MODEL 1
REMARK VINA RESULT:      -7.8      0.000      0.000
REMARK  Name = 
REMARK  11 active torsions:
REMARK  status: ('A' for Active; 'I' for Inactive)
REMARK    1  A    between atoms: C_1  and  O_2
REMARK    2  A    between atoms: O_2  and  C_3
REMARK    3  A    between atoms: C_6  and  O_7
REMARK    4  A    between atoms: O_7  and  C_8
REMARK    5  A    between atoms: C_8  and  C_9
REMARK    6  A    between atoms: C_9  and  C_10
REMARK    7  A    between atoms: C_10  and  O_11
REMARK    8  A    between atoms: O_11  and  C_12
REMARK    9  A    between atoms: C_19  and  C_20
REMARK   10  A    between atoms: C_19  and  C_21
REMARK   11  A    between atoms: C_21  and  O_23
REMARK                            x       y       z     vdW  Elec       q    Type
REMARK                         _______ _______ _______ _____ _____    ______ ____
ROOT
ATOM      1  C   UNL     1       3.101   7.701  17.814  0.00  0.00    +0.000 A 
ATOM      2  C   UNL     1       4.262   7.159  17.263  0.00  0.00    +0.000 A 
ATOM      3  C   UNL     1       4.678   5.873  17.611  0.00  0.00    +0.000 A 
ATOM      4  C   UNL     1       3.932   5.106  18.508  0.00  0.00    +0.000 A 
ATOM      5  C   UNL     1       2.744   5.629  19.027  0.00  0.00    +0.000 A 
ATOM      6  C   UNL     1       2.344   6.929  18.701  0.00  0.00    +0.000 A 
ATOM      7  O   UNL     1       1.913   4.917  19.860  0.00  0.00    +0.000 OA
ATOM      8  C   UNL     1       2.129   3.491  19.861  0.00  0.00    +0.000 C 
ATOM      9  C   UNL     1       1.371   2.917  21.064  0.00  0.00    +0.000 C 
ATOM     10  C   UNL     1       3.614   3.151  20.008  0.00  0.00    +0.000 C 
ATOM     11  C   UNL     1       4.419   3.734  18.861  0.00  0.00    +0.000 C 
ENDROOT
BRANCH   8  12
ATOM     12  C   UNL     1       1.492   2.856  18.608  0.00  0.00    +0.000 C 
ATOM     13  O   UNL     1       0.951   3.478  17.705  0.00  0.00    +0.000 OA
BRANCH  12  14
ATOM     14  O   UNL     1       1.640   1.506  18.572  0.00  0.00    +0.000 OA
ATOM     15  H   UNL     1       2.588   1.263  18.642  0.00  0.00    +0.000 HD
ENDBRANCH  12  14
ENDBRANCH   8  12
BRANCH   1  16
ATOM     16  O   UNL     1       2.622   8.961  17.549  0.00  0.00    +0.000 OA
BRANCH  16  17
ATOM     17  C   UNL     1       1.234   9.157  17.845  0.00  0.00    +0.000 C 
BRANCH  17  18
ATOM     18  C   UNL     1       1.048  10.425  18.669  0.00  0.00    +0.000 C 
BRANCH  18  19
ATOM     19  C   UNL     1      -0.435  10.760  18.826  0.00  0.00    +0.000 C 
BRANCH  19  20
ATOM     20  O   UNL     1      -1.083  10.639  17.564  0.00  0.00    +0.000 OA
BRANCH  20  24
ATOM     21  C   UNL     1      -5.110  11.786  17.612  0.00  0.00    +0.000 A 
ATOM     22  C   UNL     1      -4.273  11.892  18.716  0.00  0.00    +0.000 A 
ATOM     23  C   UNL     1      -2.938  11.480  18.617  0.00  0.00    +0.000 A 
ATOM     24  C   UNL     1      -2.406  10.957  17.424  0.00  0.00    +0.000 A 
ATOM     25  C   UNL     1      -3.265  10.842  16.321  0.00  0.00    +0.000 A 
ATOM     26 CL   UNL     1      -2.830  10.225  14.766  0.00  0.00    +0.000 Cl
ATOM     27  C   UNL     1      -4.607  11.244  16.433  0.00  0.00    +0.000 A 
BRANCH  21  29
ATOM     28  C   UNL     1      -7.087  12.203  18.839  0.00  0.00    +0.000 C 
ATOM     29  O   UNL     1      -6.431  12.133  17.578  0.00  0.00    +0.000 OA
ENDBRANCH  21  29
ENDBRANCH  20  24
ENDBRANCH  19  20
ENDBRANCH  18  19
ENDBRANCH  17  18
ENDBRANCH  16  17
ENDBRANCH   1  16
TORSDOF 9
ENDMDL
MODEL 2
REMARK VINA RESULT:      -7.7      6.501      9.822
REMARK  Name = 
REMARK  11 active torsions:
REMARK  status: ('A' for Active; 'I' for Inactive)
REMARK    1  A    between atoms: C_1  and  O_2
REMARK    2  A    between atoms: O_2  and  C_3
REMARK    3  A    between atoms: C_6  and  O_7
REMARK    4  A    between atoms: O_7  and  C_8
REMARK    5  A    between atoms: C_8  and  C_9
REMARK    6  A    between atoms: C_9  and  C_10
REMARK    7  A    between atoms: C_10  and  O_11
REMARK    8  A    between atoms: O_11  and  C_12
REMARK    9  A    between atoms: C_19  and  C_20
REMARK   10  A    between atoms: C_19  and  C_21
REMARK   11  A    between atoms: C_21  and  O_23
REMARK                            x       y       z     vdW  Elec       q    Type
REMARK                         _______ _______ _______ _____ _____    ______ ____
ROOT
ATOM      1  C   UNL     1       6.908   5.970  16.828  0.00  0.00    +0.000 A 
ATOM      2  C   UNL     1       6.764   5.007  15.830  0.00  0.00    +0.000 A 
ATOM      3  C   UNL     1       5.823   3.984  15.963  0.00  0.00    +0.000 A 
ATOM      4  C   UNL     1       5.005   3.917  17.092  0.00  0.00    +0.000 A 
ATOM      5  C   UNL     1       5.115   4.907  18.072  0.00  0.00    +0.000 A 
ATOM      6  C   UNL     1       6.079   5.913  17.953  0.00  0.00    +0.000 A 
ATOM      7  O   UNL     1       4.302   4.958  19.180  0.00  0.00    +0.000 OA
ATOM      8  C   UNL     1       3.095   4.174  19.085  0.00  0.00    +0.000 C 
ATOM      9  C   UNL     1       2.502   4.079  20.497  0.00  0.00    +0.000 C 
ATOM     10  C   UNL     1       3.385   2.759  18.579  0.00  0.00    +0.000 C 
ATOM     11  C   UNL     1       4.014   2.799  17.198  0.00  0.00    +0.000 C 
ENDROOT
BRANCH   8  12
ATOM     12  C   UNL     1       2.048   4.914  18.227  0.00  0.00    +0.000 C 
ATOM     13  O   UNL     1       2.047   6.116  18.004  0.00  0.00    +0.000 OA
BRANCH  12  14
ATOM     14  O   UNL     1       1.131   4.074  17.681  0.00  0.00    +0.000 OA
ATOM     15  H   UNL     1       1.427   3.773  16.795  0.00  0.00    +0.000 HD
ENDBRANCH  12  14
ENDBRANCH   8  12
BRANCH   1  16
ATOM     16  O   UNL     1       7.816   7.000  16.799  0.00  0.00    +0.000 OA
BRANCH  16  17
ATOM     17  C   UNL     1       7.399   8.196  17.467  0.00  0.00    +0.000 C 
BRANCH  17  18
ATOM     18  C   UNL     1       8.506   8.696  18.387  0.00  0.00    +0.000 C 
BRANCH  18  19
ATOM     19  C   UNL     1       8.765  10.186  18.167  0.00  0.00    +0.000 C 
BRANCH  19  20
ATOM     20  O   UNL     1       9.865  10.599  18.972  0.00  0.00    +0.000 OA
BRANCH  20  24
ATOM     21  C   UNL     1      11.283  14.495  18.386  0.00  0.00    +0.000 A 
ATOM     22  C   UNL     1      11.224  13.544  17.375  0.00  0.00    +0.000 A 
ATOM     23  C   UNL     1      10.739  12.260  17.656  0.00  0.00    +0.000 A 
ATOM     24  C   UNL     1      10.306  11.893  18.943  0.00  0.00    +0.000 A 
ATOM     25  C   UNL     1      10.385  12.858  19.959  0.00  0.00    +0.000 A 
ATOM     26 CL   UNL     1       9.914  12.626  21.606  0.00  0.00    +0.000 Cl
ATOM     27  C   UNL     1      10.884  14.139  19.671  0.00  0.00    +0.000 A 
BRANCH  21  29
ATOM     28  C   UNL     1      11.452  16.414  17.016  0.00  0.00    +0.000 C 
ATOM     29  O   UNL     1      11.749  15.771  18.251  0.00  0.00    +0.000 OA
ENDBRANCH  21  29
ENDBRANCH  20  24
ENDBRANCH  19  20
ENDBRANCH  18  19
ENDBRANCH  17  18
ENDBRANCH  16  17
ENDBRANCH   1  16
TORSDOF 9
ENDMDL
MODEL 3
REMARK VINA RESULT:      -7.7      6.779      9.566
REMARK  Name = 
REMARK  11 active torsions:
REMARK  status: ('A' for Active; 'I' for Inactive)
REMARK    1  A    between atoms: C_1  and  O_2
REMARK    2  A    between atoms: O_2  and  C_3
REMARK    3  A    between atoms: C_6  and  O_7
REMARK    4  A    between atoms: O_7  and  C_8
REMARK    5  A    between atoms: C_8  and  C_9
REMARK    6  A    between atoms: C_9  and  C_10
REMARK    7  A    between atoms: C_10  and  O_11
REMARK    8  A    between atoms: O_11  and  C_12
REMARK    9  A    between atoms: C_19  and  C_20
REMARK   10  A    between atoms: C_19  and  C_21
REMARK   11  A    between atoms: C_21  and  O_23
REMARK                            x       y       z     vdW  Elec       q    Type
REMARK                         _______ _______ _______ _____ _____    ______ ____
ROOT
ATOM      1  C   UNL     1       7.353   6.723  17.964  0.00  0.00    +0.000 A 
ATOM      2  C   UNL     1       6.829   6.756  16.672  0.00  0.00    +0.000 A 
ATOM      3  C   UNL     1       5.848   5.844  16.282  0.00  0.00    +0.000 A 
ATOM      4  C   UNL     1       5.368   4.892  17.184  0.00  0.00    +0.000 A 
ATOM      5  C   UNL     1       5.857   4.887  18.493  0.00  0.00    +0.000 A 
ATOM      6  C   UNL     1       6.863   5.781  18.874  0.00  0.00    +0.000 A 
ATOM      7  O   UNL     1       5.390   4.032  19.464  0.00  0.00    +0.000 OA
ATOM      8  C   UNL     1       4.119   3.415  19.171  0.00  0.00    +0.000 C 
ATOM      9  C   UNL     1       3.929   2.270  20.174  0.00  0.00    +0.000 C 
ATOM     10  C   UNL     1       4.092   2.837  17.754  0.00  0.00    +0.000 C 
ATOM     11  C   UNL     1       4.319   3.926  16.722  0.00  0.00    +0.000 C 
ENDROOT
BRANCH   8  12
ATOM     12  C   UNL     1       2.972   4.412  19.433  0.00  0.00    +0.000 C 
ATOM     13  O   UNL     1       1.862   4.353  18.925  0.00  0.00    +0.000 OA
BRANCH  12  14
ATOM     14  O   UNL     1       3.301   5.360  20.349  0.00  0.00    +0.000 OA
ATOM     15  H   UNL     1       2.944   5.122  21.232  0.00  0.00    +0.000 HD
ENDBRANCH  12  14
ENDBRANCH   8  12
BRANCH   1  16
ATOM     16  O   UNL     1       8.332   7.564  18.434  0.00  0.00    +0.000 OA
BRANCH  16  17
ATOM     17  C   UNL     1       8.233   8.922  17.989  0.00  0.00    +0.000 C 
BRANCH  17  18
ATOM     18  C   UNL     1       9.039   9.834  18.906  0.00  0.00    +0.000 C 
BRANCH  18  19
ATOM     19  C   UNL     1       9.646  10.996  18.120  0.00  0.00    +0.000 C 
BRANCH  19  20
ATOM     20  O   UNL     1       8.849  12.160  18.305  0.00  0.00    +0.000 OA
BRANCH  20  24
ATOM     21  C   UNL     1      10.768  15.724  17.233  0.00  0.00    +0.000 A 
ATOM     22  C   UNL     1      11.295  14.466  16.973  0.00  0.00    +0.000 A 
ATOM     23  C   UNL     1      10.590  13.322  17.370  0.00  0.00    +0.000 A 
ATOM     24  C   UNL     1       9.351  13.403  18.031  0.00  0.00    +0.000 A 
ATOM     25  C   UNL     1       8.837  14.680  18.302  0.00  0.00    +0.000 A 
ATOM     26 CL   UNL     1       7.342  15.014  19.104  0.00  0.00    +0.000 Cl
ATOM     27  C   UNL     1       9.557  15.822  17.912  0.00  0.00    +0.000 A 
BRANCH  21  29
ATOM     28  C   UNL     1      10.723  18.079  17.434  0.00  0.00    +0.000 C 
ATOM     29  O   UNL     1      11.358  16.915  16.917  0.00  0.00    +0.000 OA
ENDBRANCH  21  29
ENDBRANCH  20  24
ENDBRANCH  19  20
ENDBRANCH  18  19
ENDBRANCH  17  18
ENDBRANCH  16  17
ENDBRANCH   1  16
TORSDOF 9
ENDMDL
MODEL 4
REMARK VINA RESULT:      -7.7      6.681      9.582
REMARK  Name = 
REMARK  11 active torsions:
REMARK  status: ('A' for Active; 'I' for Inactive)
REMARK    1  A    between atoms: C_1  and  O_2
REMARK    2  A    between atoms: O_2  and  C_3
REMARK    3  A    between atoms: C_6  and  O_7
REMARK    4  A    between atoms: O_7  and  C_8
REMARK    5  A    between atoms: C_8  and  C_9
REMARK    6  A    between atoms: C_9  and  C_10
REMARK    7  A    between atoms: C_10  and  O_11
REMARK    8  A    between atoms: O_11  and  C_12
REMARK    9  A    between atoms: C_19  and  C_20
REMARK   10  A    between atoms: C_19  and  C_21
REMARK   11  A    between atoms: C_21  and  O_23
REMARK                            x       y       z     vdW  Elec       q    Type
REMARK                         _______ _______ _______ _____ _____    ______ ____
ROOT
ATOM      1  C   UNL     1       6.565   5.276  17.170  0.00  0.00    +0.000 A 
ATOM      2  C   UNL     1       5.770   5.077  16.041  0.00  0.00    +0.000 A 
ATOM      3  C   UNL     1       4.587   4.343  16.128  0.00  0.00    +0.000 A 
ATOM      4  C   UNL     1       4.176   3.805  17.349  0.00  0.00    +0.000 A 
ATOM      5  C   UNL     1       4.946   4.041  18.491  0.00  0.00    +0.000 A 
ATOM      6  C   UNL     1       6.147   4.751  18.397  0.00  0.00    +0.000 A 
ATOM      7  O   UNL     1       4.579   3.609  19.744  0.00  0.00    +0.000 OA
ATOM      8  C   UNL     1       3.191   3.242  19.879  0.00  0.00    +0.000 C 
ATOM      9  C   UNL     1       3.048   2.484  21.205  0.00  0.00    +0.000 C 
ATOM     10  C   UNL     1       2.741   2.326  18.739  0.00  0.00    +0.000 C 
ATOM     11  C   UNL     1       2.903   3.015  17.396  0.00  0.00    +0.000 C 
ENDROOT
BRANCH   8  12
ATOM     12  C   UNL     1       2.318   4.507  20.010  0.00  0.00    +0.000 C 
ATOM     13  O   UNL     1       1.119   4.560  19.775  0.00  0.00    +0.000 OA
BRANCH  12  14
ATOM     14  O   UNL     1       3.013   5.577  20.477  0.00  0.00    +0.000 OA
ATOM     15  H   UNL     1       3.017   5.581  21.459  0.00  0.00    +0.000 HD
ENDBRANCH  12  14
ENDBRANCH   8  12
BRANCH   1  16
ATOM     16  O   UNL     1       7.752   5.966  17.181  0.00  0.00    +0.000 OA
BRANCH  16  17
ATOM     17  C   UNL     1       7.882   6.934  18.228  0.00  0.00    +0.000 C 
BRANCH  17  18
ATOM     18  C   UNL     1       7.356   8.285  17.760  0.00  0.00    +0.000 C 
BRANCH  18  19
ATOM     19  C   UNL     1       8.474   9.329  17.745  0.00  0.00    +0.000 C 
BRANCH  19  20
ATOM     20  O   UNL     1       8.850   9.639  19.082  0.00  0.00    +0.000 OA
BRANCH  20  24
ATOM     21  C   UNL     1      11.184  13.093  19.478  0.00  0.00    +0.000 A 
ATOM     22  C   UNL     1      11.200  12.286  18.347  0.00  0.00    +0.000 A 
ATOM     23  C   UNL     1      10.391  11.144  18.297  0.00  0.00    +0.000 A 
ATOM     24  C   UNL     1       9.552  10.779  19.365  0.00  0.00    +0.000 A 
ATOM     25  C   UNL     1       9.556  11.593  20.507  0.00  0.00    +0.000 A 
ATOM     26 CL   UNL     1       8.612  11.333  21.932  0.00  0.00    +0.000 Cl
ATOM     27  C   UNL     1      10.380  12.730  20.554  0.00  0.00    +0.000 A 
BRANCH  21  29
ATOM     28  C   UNL     1      11.315  15.262  20.407  0.00  0.00    +0.000 C 
ATOM     29  O   UNL     1      11.934  14.219  19.662  0.00  0.00    +0.000 OA
ENDBRANCH  21  29
ENDBRANCH  20  24
ENDBRANCH  19  20
ENDBRANCH  18  19
ENDBRANCH  17  18
ENDBRANCH  16  17
ENDBRANCH   1  16
TORSDOF 9
ENDMDL
MODEL 5
REMARK VINA RESULT:      -7.7      3.350      4.068
REMARK  Name = 
REMARK  11 active torsions:
REMARK  status: ('A' for Active; 'I' for Inactive)
REMARK    1  A    between atoms: C_1  and  O_2
REMARK    2  A    between atoms: O_2  and  C_3
REMARK    3  A    between atoms: C_6  and  O_7
REMARK    4  A    between atoms: O_7  and  C_8
REMARK    5  A    between atoms: C_8  and  C_9
REMARK    6  A    between atoms: C_9  and  C_10
REMARK    7  A    between atoms: C_10  and  O_11
REMARK    8  A    between atoms: O_11  and  C_12
REMARK    9  A    between atoms: C_19  and  C_20
REMARK   10  A    between atoms: C_19  and  C_21
REMARK   11  A    between atoms: C_21  and  O_23
REMARK                            x       y       z     vdW  Elec       q    Type
REMARK                         _______ _______ _______ _____ _____    ______ ____
ROOT
ATOM      1  C   UNL     1       2.286   7.727  18.799  0.00  0.00    +0.000 A 
ATOM      2  C   UNL     1       1.924   7.653  20.143  0.00  0.00    +0.000 A 
ATOM      3  C   UNL     1       1.838   6.418  20.788  0.00  0.00    +0.000 A 
ATOM      4  C   UNL     1       2.124   5.238  20.098  0.00  0.00    +0.000 A 
ATOM      5  C   UNL     1       2.533   5.312  18.763  0.00  0.00    +0.000 A 
ATOM      6  C   UNL     1       2.589   6.547  18.110  0.00  0.00    +0.000 A 
ATOM      7  O   UNL     1       2.902   4.208  18.031  0.00  0.00    +0.000 OA
ATOM      8  C   UNL     1       3.211   3.036  18.812  0.00  0.00    +0.000 C 
ATOM      9  C   UNL     1       3.265   1.846  17.846  0.00  0.00    +0.000 C 
ATOM     10  C   UNL     1       2.134   2.764  19.866  0.00  0.00    +0.000 C 
ATOM     11  C   UNL     1       2.011   3.934  20.826  0.00  0.00    +0.000 C 
ENDROOT
BRANCH   8  12
ATOM     12  C   UNL     1       4.624   3.161  19.420  0.00  0.00    +0.000 C 
ATOM     13  O   UNL     1       5.355   4.133  19.299  0.00  0.00    +0.000 OA
BRANCH  12  14
ATOM     14  O   UNL     1       4.969   2.082  20.170  0.00  0.00    +0.000 OA
ATOM     15  H   UNL     1       5.733   1.616  19.768  0.00  0.00    +0.000 HD
ENDBRANCH  12  14
ENDBRANCH   8  12
BRANCH   1  16
ATOM     16  O   UNL     1       2.380   8.890  18.074  0.00  0.00    +0.000 OA
BRANCH  16  17
ATOM     17  C   UNL     1       1.259   9.772  18.194  0.00  0.00    +0.000 C 
BRANCH  17  18
ATOM     18  C   UNL     1       1.738  11.198  18.436  0.00  0.00    +0.000 C 
BRANCH  18  19
ATOM     19  C   UNL     1       1.082  11.788  19.685  0.00  0.00    +0.000 C 
BRANCH  19  20
ATOM     20  O   UNL     1       0.054  10.914  20.137  0.00  0.00    +0.000 OA
BRANCH  20  24
ATOM     21  C   UNL     1      -2.717  12.361  22.923  0.00  0.00    +0.000 A 
ATOM     22  C   UNL     1      -2.616  12.845  21.625  0.00  0.00    +0.000 A 
ATOM     23  C   UNL     1      -1.657  12.308  20.756  0.00  0.00    +0.000 A 
ATOM     24  C   UNL     1      -0.780  11.284  21.156  0.00  0.00    +0.000 A 
ATOM     25  C   UNL     1      -0.882  10.814  22.474  0.00  0.00    +0.000 A 
ATOM     26 CL   UNL     1       0.091   9.570  23.178  0.00  0.00    +0.000 Cl
ATOM     27  C   UNL     1      -1.838  11.367  23.343  0.00  0.00    +0.000 A 
BRANCH  21  29
ATOM     28  C   UNL     1      -4.517  13.801  23.448  0.00  0.00    +0.000 C 
ATOM     29  O   UNL     1      -3.592  12.807  23.873  0.00  0.00    +0.000 OA
ENDBRANCH  21  29
ENDBRANCH  20  24
ENDBRANCH  19  20
ENDBRANCH  18  19
ENDBRANCH  17  18
ENDBRANCH  16  17
ENDBRANCH   1  16
TORSDOF 9
ENDMDL
MODEL 6
REMARK VINA RESULT:      -7.6      6.404      9.186
REMARK  Name = 
REMARK  11 active torsions:
REMARK  status: ('A' for Active; 'I' for Inactive)
REMARK    1  A    between atoms: C_1  and  O_2
REMARK    2  A    between atoms: O_2  and  C_3
REMARK    3  A    between atoms: C_6  and  O_7
REMARK    4  A    between atoms: O_7  and  C_8
REMARK    5  A    between atoms: C_8  and  C_9
REMARK    6  A    between atoms: C_9  and  C_10
REMARK    7  A    between atoms: C_10  and  O_11
REMARK    8  A    between atoms: O_11  and  C_12
REMARK    9  A    between atoms: C_19  and  C_20
REMARK   10  A    between atoms: C_19  and  C_21
REMARK   11  A    between atoms: C_21  and  O_23
REMARK                            x       y       z     vdW  Elec       q    Type
REMARK                         _______ _______ _______ _____ _____    ______ ____
ROOT
ATOM      1  C   UNL     1       6.090   5.027  17.386  0.00  0.00    +0.000 A 
ATOM      2  C   UNL     1       5.292   4.706  16.288  0.00  0.00    +0.000 A 
ATOM      3  C   UNL     1       4.110   3.984  16.457  0.00  0.00    +0.000 A 
ATOM      4  C   UNL     1       3.704   3.580  17.731  0.00  0.00    +0.000 A 
ATOM      5  C   UNL     1       4.477   3.939  18.838  0.00  0.00    +0.000 A 
ATOM      6  C   UNL     1       5.677   4.636  18.664  0.00  0.00    +0.000 A 
ATOM      7  O   UNL     1       4.115   3.645  20.132  0.00  0.00    +0.000 OA
ATOM      8  C   UNL     1       2.728   3.293  20.310  0.00  0.00    +0.000 C 
ATOM      9  C   UNL     1       2.590   2.682  21.710  0.00  0.00    +0.000 C 
ATOM     10  C   UNL     1       2.276   2.258  19.276  0.00  0.00    +0.000 C 
ATOM     11  C   UNL     1       2.433   2.799  17.867  0.00  0.00    +0.000 C 
ENDROOT
BRANCH   8  12
ATOM     12  C   UNL     1       1.853   4.563  20.306  0.00  0.00    +0.000 C 
ATOM     13  O   UNL     1       0.659   4.592  20.043  0.00  0.00    +0.000 OA
BRANCH  12  14
ATOM     14  O   UNL     1       2.539   5.672  20.687  0.00  0.00    +0.000 OA
ATOM     15  H   UNL     1       3.472   5.617  20.388  0.00  0.00    +0.000 HD
ENDBRANCH  12  14
ENDBRANCH   8  12
BRANCH   1  16
ATOM     16  O   UNL     1       7.276   5.716  17.319  0.00  0.00    +0.000 OA
BRANCH  16  17
ATOM     17  C   UNL     1       7.412   6.785  18.262  0.00  0.00    +0.000 C 
BRANCH  17  18
ATOM     18  C   UNL     1       7.900   8.045  17.560  0.00  0.00    +0.000 C 
BRANCH  18  19
ATOM     19  C   UNL     1       8.482   9.038  18.566  0.00  0.00    +0.000 C 
BRANCH  19  20
ATOM     20  O   UNL     1       9.027  10.153  17.868  0.00  0.00    +0.000 OA
BRANCH  20  24
ATOM     21  C   UNL     1      10.436  13.369  20.151  0.00  0.00    +0.000 A 
ATOM     22  C   UNL     1      10.911  12.070  20.287  0.00  0.00    +0.000 A 
ATOM     23  C   UNL     1      10.381  11.050  19.486  0.00  0.00    +0.000 A 
ATOM     24  C   UNL     1       9.373  11.295  18.537  0.00  0.00    +0.000 A 
ATOM     25  C   UNL     1       8.891  12.608  18.420  0.00  0.00    +0.000 A 
ATOM     26 CL   UNL     1       7.657  13.134  17.329  0.00  0.00    +0.000 Cl
ATOM     27  C   UNL     1       9.418  13.623  19.236  0.00  0.00    +0.000 A 
BRANCH  21  29
ATOM     28  C   UNL     1      10.735  15.712  20.234  0.00  0.00    +0.000 C 
ATOM     29  O   UNL     1      10.851  14.448  20.878  0.00  0.00    +0.000 OA
ENDBRANCH  21  29
ENDBRANCH  20  24
ENDBRANCH  19  20
ENDBRANCH  18  19
ENDBRANCH  17  18
ENDBRANCH  16  17
ENDBRANCH   1  16
TORSDOF 9
ENDMDL
MODEL 7
REMARK VINA RESULT:      -7.5      6.001      9.072
REMARK  Name = 
REMARK  11 active torsions:
REMARK  status: ('A' for Active; 'I' for Inactive)
REMARK    1  A    between atoms: C_1  and  O_2
REMARK    2  A    between atoms: O_2  and  C_3
REMARK    3  A    between atoms: C_6  and  O_7
REMARK    4  A    between atoms: O_7  and  C_8
REMARK    5  A    between atoms: C_8  and  C_9
REMARK    6  A    between atoms: C_9  and  C_10
REMARK    7  A    between atoms: C_10  and  O_11
REMARK    8  A    between atoms: O_11  and  C_12
REMARK    9  A    between atoms: C_19  and  C_20
REMARK   10  A    between atoms: C_19  and  C_21
REMARK   11  A    between atoms: C_21  and  O_23
REMARK                            x       y       z     vdW  Elec       q    Type
REMARK                         _______ _______ _______ _____ _____    ______ ____
ROOT
ATOM      1  C   UNL     1       6.878   6.071  16.817  0.00  0.00    +0.000 A 
ATOM      2  C   UNL     1       6.755   5.108  15.816  0.00  0.00    +0.000 A 
ATOM      3  C   UNL     1       5.833   4.068  15.942  0.00  0.00    +0.000 A 
ATOM      4  C   UNL     1       5.012   3.983  17.069  0.00  0.00    +0.000 A 
ATOM      5  C   UNL     1       5.100   4.972  18.052  0.00  0.00    +0.000 A 
ATOM      6  C   UNL     1       6.046   5.996  17.939  0.00  0.00    +0.000 A 
ATOM      7  O   UNL     1       4.282   5.005  19.157  0.00  0.00    +0.000 OA
ATOM      8  C   UNL     1       3.090   4.199  19.056  0.00  0.00    +0.000 C 
ATOM      9  C   UNL     1       2.494   4.090  20.465  0.00  0.00    +0.000 C 
ATOM     10  C   UNL     1       3.408   2.791  18.547  0.00  0.00    +0.000 C 
ATOM     11  C   UNL     1       4.042   2.845  17.168  0.00  0.00    +0.000 C 
ENDROOT
BRANCH   8  12
ATOM     12  C   UNL     1       2.033   4.921  18.195  0.00  0.00    +0.000 C 
ATOM     13  O   UNL     1       2.033   6.118  17.942  0.00  0.00    +0.000 OA
BRANCH  12  14
ATOM     14  O   UNL     1       1.105   4.072  17.684  0.00  0.00    +0.000 OA
ATOM     15  H   UNL     1       0.867   3.386  18.344  0.00  0.00    +0.000 HD
ENDBRANCH  12  14
ENDBRANCH   8  12
BRANCH   1  16
ATOM     16  O   UNL     1       7.766   7.118  16.793  0.00  0.00    +0.000 OA
BRANCH  16  17
ATOM     17  C   UNL     1       7.940   7.796  18.042  0.00  0.00    +0.000 C 
BRANCH  17  18
ATOM     18  C   UNL     1       8.205   9.277  17.802  0.00  0.00    +0.000 C 
BRANCH  18  19
ATOM     19  C   UNL     1       9.036   9.872  18.939  0.00  0.00    +0.000 C 
BRANCH  19  20
ATOM     20  O   UNL     1       9.959  10.815  18.406  0.00  0.00    +0.000 OA
BRANCH  20  24
ATOM     21  C   UNL     1       9.967  14.859  19.495  0.00  0.00    +0.000 A 
ATOM     22  C   UNL     1      10.880  13.934  19.986  0.00  0.00    +0.000 A 
ATOM     23  C   UNL     1      10.805  12.597  19.573  0.00  0.00    +0.000 A 
ATOM     24  C   UNL     1       9.825  12.151  18.669  0.00  0.00    +0.000 A 
ATOM     25  C   UNL     1       8.899  13.091  18.192  0.00  0.00    +0.000 A 
ATOM     26 CL   UNL     1       7.613  12.765  17.084  0.00  0.00    +0.000 Cl
ATOM     27  C   UNL     1       8.973  14.427  18.621  0.00  0.00    +0.000 A 
BRANCH  21  29
ATOM     28  C   UNL     1       8.764  16.598  20.551  0.00  0.00    +0.000 C 
ATOM     29  O   UNL     1       9.917  16.182  19.828  0.00  0.00    +0.000 OA
ENDBRANCH  21  29
ENDBRANCH  20  24
ENDBRANCH  19  20
ENDBRANCH  18  19
ENDBRANCH  17  18
ENDBRANCH  16  17
ENDBRANCH   1  16
TORSDOF 9
ENDMDL
MODEL 8
REMARK VINA RESULT:      -7.5      2.589      3.747
REMARK  Name = 
REMARK  11 active torsions:
REMARK  status: ('A' for Active; 'I' for Inactive)
REMARK    1  A    between atoms: C_1  and  O_2
REMARK    2  A    between atoms: O_2  and  C_3
REMARK    3  A    between atoms: C_6  and  O_7
REMARK    4  A    between atoms: O_7  and  C_8
REMARK    5  A    between atoms: C_8  and  C_9
REMARK    6  A    between atoms: C_9  and  C_10
REMARK    7  A    between atoms: C_10  and  O_11
REMARK    8  A    between atoms: O_11  and  C_12
REMARK    9  A    between atoms: C_19  and  C_20
REMARK   10  A    between atoms: C_19  and  C_21
REMARK   11  A    between atoms: C_21  and  O_23
REMARK                            x       y       z     vdW  Elec       q    Type
REMARK                         _______ _______ _______ _____ _____    ______ ____
ROOT
ATOM      1  C   UNL     1       2.603   7.075  18.700  0.00  0.00    +0.000 A 
ATOM      2  C   UNL     1       2.262   5.826  19.218  0.00  0.00    +0.000 A 
ATOM      3  C   UNL     1       2.880   4.669  18.742  0.00  0.00    +0.000 A 
ATOM      4  C   UNL     1       3.856   4.746  17.746  0.00  0.00    +0.000 A 
ATOM      5  C   UNL     1       4.233   6.000  17.258  0.00  0.00    +0.000 A 
ATOM      6  C   UNL     1       3.591   7.156  17.713  0.00  0.00    +0.000 A 
ATOM      7  O   UNL     1       5.233   6.173  16.330  0.00  0.00    +0.000 OA
ATOM      8  C   UNL     1       6.123   5.048  16.178  0.00  0.00    +0.000 C 
ATOM      9  C   UNL     1       6.936   5.281  14.899  0.00  0.00    +0.000 C 
ATOM     10  C   UNL     1       5.346   3.737  16.032  0.00  0.00    +0.000 C 
ATOM     11  C   UNL     1       4.488   3.478  17.258  0.00  0.00    +0.000 C 
ENDROOT
BRANCH   8  12
ATOM     12  C   UNL     1       7.140   5.015  17.336  0.00  0.00    +0.000 C 
ATOM     13  O   UNL     1       7.080   5.707  18.342  0.00  0.00    +0.000 OA
BRANCH  12  14
ATOM     14  O   UNL     1       8.108   4.079  17.157  0.00  0.00    +0.000 OA
ATOM     15  H   UNL     1       8.838   4.441  16.609  0.00  0.00    +0.000 HD
ENDBRANCH  12  14
ENDBRANCH   8  12
BRANCH   1  16
ATOM     16  O   UNL     1       2.039   8.266  19.089  0.00  0.00    +0.000 OA
BRANCH  16  17
ATOM     17  C   UNL     1       1.507   9.063  18.024  0.00  0.00    +0.000 C 
BRANCH  17  18
ATOM     18  C   UNL     1       1.921  10.518  18.202  0.00  0.00    +0.000 C 
BRANCH  18  19
ATOM     19  C   UNL     1       0.732  11.373  18.639  0.00  0.00    +0.000 C 
BRANCH  19  20
ATOM     20  O   UNL     1      -0.342  10.526  19.030  0.00  0.00    +0.000 OA
BRANCH  20  24
ATOM     21  C   UNL     1      -4.279  11.101  17.724  0.00  0.00    +0.000 A 
ATOM     22  C   UNL     1      -3.430  10.140  17.190  0.00  0.00    +0.000 A 
ATOM     23  C   UNL     1      -2.124  10.016  17.681  0.00  0.00    +0.000 A 
ATOM     24  C   UNL     1      -1.634  10.841  18.710  0.00  0.00    +0.000 A 
ATOM     25  C   UNL     1      -2.496  11.818  19.231  0.00  0.00    +0.000 A 
ATOM     26 CL   UNL     1      -2.105  12.938  20.488  0.00  0.00    +0.000 Cl
ATOM     27  C   UNL     1      -3.800  11.944  18.723  0.00  0.00    +0.000 A 
BRANCH  21  29
ATOM     28  C   UNL     1      -6.576  11.036  18.280  0.00  0.00    +0.000 C 
ATOM     29  O   UNL     1      -5.564  11.338  17.326  0.00  0.00    +0.000 OA
ENDBRANCH  21  29
ENDBRANCH  20  24
ENDBRANCH  19  20
ENDBRANCH  18  19
ENDBRANCH  17  18
ENDBRANCH  16  17
ENDBRANCH   1  16
TORSDOF 9
ENDMDL
MODEL 9
REMARK VINA RESULT:      -7.5      6.324      9.198
REMARK  Name = 
REMARK  11 active torsions:
REMARK  status: ('A' for Active; 'I' for Inactive)
REMARK    1  A    between atoms: C_1  and  O_2
REMARK    2  A    between atoms: O_2  and  C_3
REMARK    3  A    between atoms: C_6  and  O_7
REMARK    4  A    between atoms: O_7  and  C_8
REMARK    5  A    between atoms: C_8  and  C_9
REMARK    6  A    between atoms: C_9  and  C_10
REMARK    7  A    between atoms: C_10  and  O_11
REMARK    8  A    between atoms: O_11  and  C_12
REMARK    9  A    between atoms: C_19  and  C_20
REMARK   10  A    between atoms: C_19  and  C_21
REMARK   11  A    between atoms: C_21  and  O_23
REMARK                            x       y       z     vdW  Elec       q    Type
REMARK                         _______ _______ _______ _____ _____    ______ ____
ROOT
ATOM      1  C   UNL     1       5.465   5.803  16.687  0.00  0.00    +0.000 A 
ATOM      2  C   UNL     1       5.737   4.649  15.952  0.00  0.00    +0.000 A 
ATOM      3  C   UNL     1       5.191   3.423  16.329  0.00  0.00    +0.000 A 
ATOM      4  C   UNL     1       4.353   3.334  17.444  0.00  0.00    +0.000 A 
ATOM      5  C   UNL     1       4.041   4.496  18.155  0.00  0.00    +0.000 A 
ATOM      6  C   UNL     1       4.614   5.719  17.794  0.00  0.00    +0.000 A 
ATOM      7  O   UNL     1       3.171   4.511  19.220  0.00  0.00    +0.000 OA
ATOM      8  C   UNL     1       2.312   3.356  19.320  0.00  0.00    +0.000 C 
ATOM      9  C   UNL     1       1.673   3.385  20.714  0.00  0.00    +0.000 C 
ATOM     10  C   UNL     1       3.104   2.055  19.170  0.00  0.00    +0.000 C 
ATOM     11  C   UNL     1       3.794   1.996  17.819  0.00  0.00    +0.000 C 
ENDROOT
BRANCH   8  12
ATOM     12  C   UNL     1       1.151   3.470  18.311  0.00  0.00    +0.000 C 
ATOM     13  O   UNL     1       1.066   4.315  17.432  0.00  0.00    +0.000 OA
BRANCH  12  14
ATOM     14  O   UNL     1       0.232   2.480  18.457  0.00  0.00    +0.000 OA
ATOM     15  H   UNL     1      -0.673   2.858  18.511  0.00  0.00    +0.000 HD
ENDBRANCH  12  14
ENDBRANCH   8  12
BRANCH   1  16
ATOM     16  O   UNL     1       5.970   7.049  16.406  0.00  0.00    +0.000 OA
BRANCH  16  17
ATOM     17  C   UNL     1       6.482   7.765  17.535  0.00  0.00    +0.000 C 
BRANCH  17  18
ATOM     18  C   UNL     1       7.999   7.873  17.444  0.00  0.00    +0.000 C 
BRANCH  18  19
ATOM     19  C   UNL     1       8.541   8.837  18.500  0.00  0.00    +0.000 C 
BRANCH  19  20
ATOM     20  O   UNL     1       8.127  10.162  18.187  0.00  0.00    +0.000 OA
BRANCH  20  24
ATOM     21  C   UNL     1      11.219  12.982  18.347  0.00  0.00    +0.000 A 
ATOM     22  C   UNL     1      11.366  11.663  18.759  0.00  0.00    +0.000 A 
ATOM     23  C   UNL     1      10.278  10.784  18.676  0.00  0.00    +0.000 A 
ATOM     24  C   UNL     1       9.026  11.194  18.186  0.00  0.00    +0.000 A 
ATOM     25  C   UNL     1       8.885  12.532  17.787  0.00  0.00    +0.000 A 
ATOM     26 CL   UNL     1       7.443  13.250  17.161  0.00  0.00    +0.000 Cl
ATOM     27  C   UNL     1       9.978  13.410  17.885  0.00  0.00    +0.000 A 
BRANCH  21  29
ATOM     28  C   UNL     1      12.108  14.858  19.476  0.00  0.00    +0.000 C 
ATOM     29  O   UNL     1      12.189  13.942  18.390  0.00  0.00    +0.000 OA
ENDBRANCH  21  29
ENDBRANCH  20  24
ENDBRANCH  19  20
ENDBRANCH  18  19
ENDBRANCH  17  18
ENDBRANCH  16  17
ENDBRANCH   1  16
TORSDOF 9
ENDMDL
