MODEL 1
REMARK VINA RESULT:      -7.4      0.000      0.000
REMARK  Name = 
REMARK  8 active torsions:
REMARK  status: ('A' for Active; 'I' for Inactive)
REMARK    1  A    between atoms: C_1  and  O_2
REMARK    2  A    between atoms: O_2  and  C_3
REMARK    3  A    between atoms: C_7  and  C_8
REMARK    4  A    between atoms: C_8  and  S_9
REMARK    5  A    between atoms: S_9  and  C_10
REMARK    6  A    between atoms: N_18  and  C_19
REMARK    7  A    between atoms: C_19  and  C_20
REMARK    8  A    between atoms: C_20  and  O_22
REMARK                            x       y       z     vdW  Elec       q    Type
REMARK                         _______ _______ _______ _____ _____    ______ ____
ROOT
ATOM      1  C   UNL     1       5.245   3.992  17.831  0.00  0.00    +0.000 A 
ATOM      2  N   UNL     1       6.041   4.179  18.849  0.00  0.00    +0.000 NA
ATOM      3  C   UNL     1       6.747   5.311  18.544  0.00  0.00    +0.000 A 
ATOM      4  C   UNL     1       7.731   5.973  19.292  0.00  0.00    +0.000 A 
ATOM      5  C   UNL     1       8.223   7.193  18.821  0.00  0.00    +0.000 A 
ATOM      6  C   UNL     1       7.759   7.732  17.619  0.00  0.00    +0.000 A 
ATOM      7  C   UNL     1       6.835   7.048  16.817  0.00  0.00    +0.000 A 
ATOM      8  C   UNL     1       6.358   5.826  17.305  0.00  0.00    +0.000 A 
ATOM      9  N   UNL     1       5.508   4.861  16.801  0.00  0.00    +0.000 N 
ENDROOT
BRANCH   1  10
ATOM     10  S   UNL     1       3.942   2.849  17.786  0.00  0.00    +0.000 S 
BRANCH  10  11
ATOM     11  C   UNL     1       2.569   3.957  17.317  0.00  0.00    +0.000 C 
BRANCH  11  16
ATOM     12  C   UNL     1       2.172   7.363  18.983  0.00  0.00    +0.000 A 
ATOM     13  C   UNL     1       1.911   6.992  20.302  0.00  0.00    +0.000 A 
ATOM     14  C   UNL     1       1.863   5.645  20.664  0.00  0.00    +0.000 A 
ATOM     15  C   UNL     1       2.076   4.657  19.703  0.00  0.00    +0.000 A 
ATOM     16  C   UNL     1       2.333   5.011  18.372  0.00  0.00    +0.000 A 
ATOM     17  C   UNL     1       2.383   6.371  18.023  0.00  0.00    +0.000 A 
BRANCH  12  19
ATOM     18  C   UNL     1       1.149   9.476  19.332  0.00  0.00    +0.000 C 
ATOM     19  O   UNL     1       2.201   8.712  18.755  0.00  0.00    +0.000 OA
ENDBRANCH  12  19
ENDBRANCH  11  16
ENDBRANCH  10  11
ENDBRANCH   1  10
BRANCH   9  20
ATOM     20  C   UNL     1       5.236   4.630  15.392  0.00  0.00    +0.000 C 
BRANCH  20  21
ATOM     21  C   UNL     1       6.422   4.237  14.561  0.00  0.00    +0.000 C 
ATOM     22  O   UNL     1       7.550   4.654  14.788  0.00  0.00    +0.000 OA
BRANCH  21  23
ATOM     23  O   UNL     1       6.202   3.309  13.605  0.00  0.00    +0.000 OA
ATOM     24  H   UNL     1       6.977   3.059  13.059  0.00  0.00    +0.000 HD
ENDBRANCH  21  23
ENDBRANCH  20  21
ENDBRANCH   9  20
TORSDOF 7
ENDMDL
MODEL 2
REMARK VINA RESULT:      -7.4      2.497      6.561
REMARK  Name = 
REMARK  8 active torsions:
REMARK  status: ('A' for Active; 'I' for Inactive)
REMARK    1  A    between atoms: C_1  and  O_2
REMARK    2  A    between atoms: O_2  and  C_3
REMARK    3  A    between atoms: C_7  and  C_8
REMARK    4  A    between atoms: C_8  and  S_9
REMARK    5  A    between atoms: S_9  and  C_10
REMARK    6  A    between atoms: N_18  and  C_19
REMARK    7  A    between atoms: C_19  and  C_20
REMARK    8  A    between atoms: C_20  and  O_22
REMARK                            x       y       z     vdW  Elec       q    Type
REMARK                         _______ _______ _______ _____ _____    ______ ____
ROOT
ATOM      1  C   UNL     1       4.216   5.083  17.483  0.00  0.00    +0.000 A 
ATOM      2  N   UNL     1       3.978   6.275  17.007  0.00  0.00    +0.000 NA
ATOM      3  C   UNL     1       3.178   6.876  17.939  0.00  0.00    +0.000 A 
ATOM      4  C   UNL     1       2.634   8.169  17.943  0.00  0.00    +0.000 A 
ATOM      5  C   UNL     1       1.942   8.602  19.078  0.00  0.00    +0.000 A 
ATOM      6  C   UNL     1       1.779   7.757  20.177  0.00  0.00    +0.000 A 
ATOM      7  C   UNL     1       2.245   6.436  20.163  0.00  0.00    +0.000 A 
ATOM      8  C   UNL     1       2.931   6.020  19.015  0.00  0.00    +0.000 A 
ATOM      9  N   UNL     1       3.479   4.819  18.611  0.00  0.00    +0.000 N 
ENDROOT
BRANCH   1  10
ATOM     10  S   UNL     1       5.383   3.972  16.843  0.00  0.00    +0.000 S 
BRANCH  10  11
ATOM     11  C   UNL     1       6.549   5.149  16.076  0.00  0.00    +0.000 C 
BRANCH  11  16
ATOM     12  C   UNL     1       6.131   3.561  12.635  0.00  0.00    +0.000 A 
ATOM     13  C   UNL     1       7.108   4.237  11.903  0.00  0.00    +0.000 A 
ATOM     14  C   UNL     1       7.907   5.205  12.512  0.00  0.00    +0.000 A 
ATOM     15  C   UNL     1       7.732   5.505  13.863  0.00  0.00    +0.000 A 
ATOM     16  C   UNL     1       6.752   4.841  14.612  0.00  0.00    +0.000 A 
ATOM     17  C   UNL     1       5.958   3.865  13.988  0.00  0.00    +0.000 A 
BRANCH  12  19
ATOM     18  C   UNL     1       4.207   3.077  11.334  0.00  0.00    +0.000 C 
ATOM     19  O   UNL     1       5.419   2.631  11.929  0.00  0.00    +0.000 OA
ENDBRANCH  12  19
ENDBRANCH  11  16
ENDBRANCH  10  11
ENDBRANCH   1  10
BRANCH   9  20
ATOM     20  C   UNL     1       3.072   3.505  19.083  0.00  0.00    +0.000 C 
BRANCH  20  21
ATOM     21  C   UNL     1       2.059   2.798  18.231  0.00  0.00    +0.000 C 
ATOM     22  O   UNL     1       1.048   3.351  17.817  0.00  0.00    +0.000 OA
BRANCH  21  23
ATOM     23  O   UNL     1       2.369   1.540  17.853  0.00  0.00    +0.000 OA
ATOM     24  H   UNL     1       2.479   1.393  16.890  0.00  0.00    +0.000 HD
ENDBRANCH  21  23
ENDBRANCH  20  21
ENDBRANCH   9  20
TORSDOF 7
ENDMDL
MODEL 3
REMARK VINA RESULT:      -7.4      2.838      6.776
REMARK  Name = 
REMARK  8 active torsions:
REMARK  status: ('A' for Active; 'I' for Inactive)
REMARK    1  A    between atoms: C_1  and  O_2
REMARK    2  A    between atoms: O_2  and  C_3
REMARK    3  A    between atoms: C_7  and  C_8
REMARK    4  A    between atoms: C_8  and  S_9
REMARK    5  A    between atoms: S_9  and  C_10
REMARK    6  A    between atoms: N_18  and  C_19
REMARK    7  A    between atoms: C_19  and  C_20
REMARK    8  A    between atoms: C_20  and  O_22
REMARK                            x       y       z     vdW  Elec       q    Type
REMARK                         _______ _______ _______ _____ _____    ______ ____
ROOT
ATOM      1  C   UNL     1       4.433   4.944  17.132  0.00  0.00    +0.000 A 
ATOM      2  N   UNL     1       3.780   3.879  16.750  0.00  0.00    +0.000 NA
ATOM      3  C   UNL     1       3.185   3.403  17.887  0.00  0.00    +0.000 A 
ATOM      4  C   UNL     1       2.352   2.287  18.052  0.00  0.00    +0.000 A 
ATOM      5  C   UNL     1       1.758   2.072  19.299  0.00  0.00    +0.000 A 
ATOM      6  C   UNL     1       2.005   2.942  20.364  0.00  0.00    +0.000 A 
ATOM      7  C   UNL     1       2.895   4.017  20.242  0.00  0.00    +0.000 A 
ATOM      8  C   UNL     1       3.483   4.211  18.986  0.00  0.00    +0.000 A 
ATOM      9  N   UNL     1       4.420   5.099  18.495  0.00  0.00    +0.000 N 
ENDROOT
BRANCH   1  10
ATOM     10  S   UNL     1       5.165   6.095  16.062  0.00  0.00    +0.000 S 
BRANCH  10  11
ATOM     11  C   UNL     1       6.740   5.242  15.713  0.00  0.00    +0.000 C 
BRANCH  11  16
ATOM     12  C   UNL     1       6.036   3.483  12.405  0.00  0.00    +0.000 A 
ATOM     13  C   UNL     1       6.990   4.072  11.575  0.00  0.00    +0.000 A 
ATOM     14  C   UNL     1       7.866   5.037  12.074  0.00  0.00    +0.000 A 
ATOM     15  C   UNL     1       7.791   5.420  13.414  0.00  0.00    +0.000 A 
ATOM     16  C   UNL     1       6.836   4.843  14.260  0.00  0.00    +0.000 A 
ATOM     17  C   UNL     1       5.964   3.870  13.745  0.00  0.00    +0.000 A 
BRANCH  12  19
ATOM     18  C   UNL     1       4.039   3.020  11.209  0.00  0.00    +0.000 C 
ATOM     19  O   UNL     1       5.243   2.546  11.802  0.00  0.00    +0.000 OA
ENDBRANCH  12  19
ENDBRANCH  11  16
ENDBRANCH  10  11
ENDBRANCH   1  10
BRANCH   9  20
ATOM     20  C   UNL     1       5.422   5.793  19.289  0.00  0.00    +0.000 C 
BRANCH  20  21
ATOM     21  C   UNL     1       6.757   5.114  19.381  0.00  0.00    +0.000 C 
ATOM     22  O   UNL     1       7.113   4.255  18.585  0.00  0.00    +0.000 OA
BRANCH  21  23
ATOM     23  O   UNL     1       7.597   5.575  20.332  0.00  0.00    +0.000 OA
ATOM     24  H   UNL     1       7.196   6.138  21.027  0.00  0.00    +0.000 HD
ENDBRANCH  21  23
ENDBRANCH  20  21
ENDBRANCH   9  20
TORSDOF 7
ENDMDL
MODEL 4
REMARK VINA RESULT:      -7.4      2.347      6.463
REMARK  Name = 
REMARK  8 active torsions:
REMARK  status: ('A' for Active; 'I' for Inactive)
REMARK    1  A    between atoms: C_1  and  O_2
REMARK    2  A    between atoms: O_2  and  C_3
REMARK    3  A    between atoms: C_7  and  C_8
REMARK    4  A    between atoms: C_8  and  S_9
REMARK    5  A    between atoms: S_9  and  C_10
REMARK    6  A    between atoms: N_18  and  C_19
REMARK    7  A    between atoms: C_19  and  C_20
REMARK    8  A    between atoms: C_20  and  O_22
REMARK                            x       y       z     vdW  Elec       q    Type
REMARK                         _______ _______ _______ _____ _____    ______ ____
ROOT
ATOM      1  C   UNL     1       3.592   5.488  19.027  0.00  0.00    +0.000 A 
ATOM      2  N   UNL     1       3.477   6.339  18.043  0.00  0.00    +0.000 NA
ATOM      3  C   UNL     1       2.625   7.303  18.508  0.00  0.00    +0.000 A 
ATOM      4  C   UNL     1       2.163   8.463  17.869  0.00  0.00    +0.000 A 
ATOM      5  C   UNL     1       1.389   9.369  18.600  0.00  0.00    +0.000 A 
ATOM      6  C   UNL     1       1.065   9.113  19.935  0.00  0.00    +0.000 A 
ATOM      7  C   UNL     1       1.449   7.923  20.567  0.00  0.00    +0.000 A 
ATOM      8  C   UNL     1       2.220   7.028  19.815  0.00  0.00    +0.000 A 
ATOM      9  N   UNL     1       2.732   5.768  20.058  0.00  0.00    +0.000 N 
ENDROOT
BRANCH   1  10
ATOM     10  S   UNL     1       4.748   4.197  19.092  0.00  0.00    +0.000 S 
BRANCH  10  11
ATOM     11  C   UNL     1       6.178   5.016  18.309  0.00  0.00    +0.000 C 
BRANCH  11  16
ATOM     12  C   UNL     1       7.262   5.102  14.654  0.00  0.00    +0.000 A 
ATOM     13  C   UNL     1       6.376   4.186  14.086  0.00  0.00    +0.000 A 
ATOM     14  C   UNL     1       5.424   3.537  14.874  0.00  0.00    +0.000 A 
ATOM     15  C   UNL     1       5.354   3.802  16.242  0.00  0.00    +0.000 A 
ATOM     16  C   UNL     1       6.240   4.714  16.831  0.00  0.00    +0.000 A 
ATOM     17  C   UNL     1       7.189   5.364  16.025  0.00  0.00    +0.000 A 
BRANCH  12  19
ATOM     18  C   UNL     1       7.928   5.412  12.398  0.00  0.00    +0.000 C 
ATOM     19  O   UNL     1       8.141   5.677  13.779  0.00  0.00    +0.000 OA
ENDBRANCH  12  19
ENDBRANCH  11  16
ENDBRANCH  10  11
ENDBRANCH   1  10
BRANCH   9  20
ATOM     20  C   UNL     1       2.201   4.813  21.017  0.00  0.00    +0.000 C 
BRANCH  20  21
ATOM     21  C   UNL     1       1.252   3.795  20.457  0.00  0.00    +0.000 C 
ATOM     22  O   UNL     1       0.958   3.755  19.269  0.00  0.00    +0.000 OA
BRANCH  21  23
ATOM     23  O   UNL     1       0.814   2.849  21.315  0.00  0.00    +0.000 OA
ATOM     24  H   UNL     1       1.378   2.682  22.100  0.00  0.00    +0.000 HD
ENDBRANCH  21  23
ENDBRANCH  20  21
ENDBRANCH   9  20
TORSDOF 7
ENDMDL
MODEL 5
REMARK VINA RESULT:      -7.3      1.108      1.447
REMARK  Name = 
REMARK  8 active torsions:
REMARK  status: ('A' for Active; 'I' for Inactive)
REMARK    1  A    between atoms: C_1  and  O_2
REMARK    2  A    between atoms: O_2  and  C_3
REMARK    3  A    between atoms: C_7  and  C_8
REMARK    4  A    between atoms: C_8  and  S_9
REMARK    5  A    between atoms: S_9  and  C_10
REMARK    6  A    between atoms: N_18  and  C_19
REMARK    7  A    between atoms: C_19  and  C_20
REMARK    8  A    between atoms: C_20  and  O_22
REMARK                            x       y       z     vdW  Elec       q    Type
REMARK                         _______ _______ _______ _____ _____    ______ ____
ROOT
ATOM      1  C   UNL     1       5.615   4.302  17.328  0.00  0.00    +0.000 A 
ATOM      2  N   UNL     1       6.390   4.341  18.378  0.00  0.00    +0.000 NA
ATOM      3  C   UNL     1       7.047   5.538  18.287  0.00  0.00    +0.000 A 
ATOM      4  C   UNL     1       7.991   6.101  19.158  0.00  0.00    +0.000 A 
ATOM      5  C   UNL     1       8.433   7.405  18.916  0.00  0.00    +0.000 A 
ATOM      6  C   UNL     1       7.957   8.126  17.819  0.00  0.00    +0.000 A 
ATOM      7  C   UNL     1       7.074   7.554  16.893  0.00  0.00    +0.000 A 
ATOM      8  C   UNL     1       6.648   6.245  17.151  0.00  0.00    +0.000 A 
ATOM      9  N   UNL     1       5.848   5.348  16.471  0.00  0.00    +0.000 N 
ENDROOT
BRANCH   1  10
ATOM     10  S   UNL     1       4.366   3.129  17.060  0.00  0.00    +0.000 S 
BRANCH  10  11
ATOM     11  C   UNL     1       4.093   2.564  18.774  0.00  0.00    +0.000 C 
BRANCH  11  16
ATOM     12  C   UNL     1       2.145   5.620  19.960  0.00  0.00    +0.000 A 
ATOM     13  C   UNL     1       1.167   5.026  20.758  0.00  0.00    +0.000 A 
ATOM     14  C   UNL     1       1.129   3.641  20.921  0.00  0.00    +0.000 A 
ATOM     15  C   UNL     1       2.074   2.838  20.282  0.00  0.00    +0.000 A 
ATOM     16  C   UNL     1       3.059   3.416  19.472  0.00  0.00    +0.000 A 
ATOM     17  C   UNL     1       3.089   4.812  19.321  0.00  0.00    +0.000 A 
BRANCH  12  19
ATOM     18  C   UNL     1       2.437   7.569  18.638  0.00  0.00    +0.000 C 
ATOM     19  O   UNL     1       2.082   6.984  19.885  0.00  0.00    +0.000 OA
ENDBRANCH  12  19
ENDBRANCH  11  16
ENDBRANCH  10  11
ENDBRANCH   1  10
BRANCH   9  20
ATOM     20  C   UNL     1       5.602   5.356  15.038  0.00  0.00    +0.000 C 
BRANCH  20  21
ATOM     21  C   UNL     1       6.702   4.788  14.191  0.00  0.00    +0.000 C 
ATOM     22  O   UNL     1       7.762   5.373  14.011  0.00  0.00    +0.000 OA
BRANCH  21  23
ATOM     23  O   UNL     1       6.506   3.540  13.714  0.00  0.00    +0.000 OA
ATOM     24  H   UNL     1       5.669   3.390  13.225  0.00  0.00    +0.000 HD
ENDBRANCH  21  23
ENDBRANCH  20  21
ENDBRANCH   9  20
TORSDOF 7
ENDMDL
MODEL 6
REMARK VINA RESULT:      -7.3      2.514      5.663
REMARK  Name = 
REMARK  8 active torsions:
REMARK  status: ('A' for Active; 'I' for Inactive)
REMARK    1  A    between atoms: C_1  and  O_2
REMARK    2  A    between atoms: O_2  and  C_3
REMARK    3  A    between atoms: C_7  and  C_8
REMARK    4  A    between atoms: C_8  and  S_9
REMARK    5  A    between atoms: S_9  and  C_10
REMARK    6  A    between atoms: N_18  and  C_19
REMARK    7  A    between atoms: C_19  and  C_20
REMARK    8  A    between atoms: C_20  and  O_22
REMARK                            x       y       z     vdW  Elec       q    Type
REMARK                         _______ _______ _______ _____ _____    ______ ____
ROOT
ATOM      1  C   UNL     1       3.730   4.788  17.784  0.00  0.00    +0.000 A 
ATOM      2  N   UNL     1       3.530   5.965  17.255  0.00  0.00    +0.000 NA
ATOM      3  C   UNL     1       2.836   6.665  18.204  0.00  0.00    +0.000 A 
ATOM      4  C   UNL     1       2.372   7.988  18.169  0.00  0.00    +0.000 A 
ATOM      5  C   UNL     1       1.792   8.526  19.321  0.00  0.00    +0.000 A 
ATOM      6  C   UNL     1       1.660   7.755  20.478  0.00  0.00    +0.000 A 
ATOM      7  C   UNL     1       2.044   6.408  20.509  0.00  0.00    +0.000 A 
ATOM      8  C   UNL     1       2.619   5.888  19.343  0.00  0.00    +0.000 A 
ATOM      9  N   UNL     1       3.064   4.633  18.974  0.00  0.00    +0.000 N 
ENDROOT
BRANCH   1  10
ATOM     10  S   UNL     1       4.780   3.572  17.131  0.00  0.00    +0.000 S 
BRANCH  10  11
ATOM     11  C   UNL     1       5.945   4.628  16.204  0.00  0.00    +0.000 C 
BRANCH  11  16
ATOM     12  C   UNL     1       7.634   7.697  17.708  0.00  0.00    +0.000 A 
ATOM     13  C   UNL     1       8.247   7.146  18.833  0.00  0.00    +0.000 A 
ATOM     14  C   UNL     1       8.123   5.785  19.114  0.00  0.00    +0.000 A 
ATOM     15  C   UNL     1       7.379   4.964  18.266  0.00  0.00    +0.000 A 
ATOM     16  C   UNL     1       6.751   5.500  17.135  0.00  0.00    +0.000 A 
ATOM     17  C   UNL     1       6.889   6.871  16.862  0.00  0.00    +0.000 A 
BRANCH  12  19
ATOM     18  C   UNL     1       8.742   9.665  18.436  0.00  0.00    +0.000 C 
ATOM     19  O   UNL     1       7.836   9.039  17.536  0.00  0.00    +0.000 OA
ENDBRANCH  12  19
ENDBRANCH  11  16
ENDBRANCH  10  11
ENDBRANCH   1  10
BRANCH   9  20
ATOM     20  C   UNL     1       2.615   3.376  19.550  0.00  0.00    +0.000 C 
BRANCH  20  21
ATOM     21  C   UNL     1       1.165   3.052  19.345  0.00  0.00    +0.000 C 
ATOM     22  O   UNL     1       0.743   2.556  18.308  0.00  0.00    +0.000 OA
BRANCH  21  23
ATOM     23  O   UNL     1       0.354   3.240  20.407  0.00  0.00    +0.000 OA
ATOM     24  H   UNL     1       0.383   2.548  21.101  0.00  0.00    +0.000 HD
ENDBRANCH  21  23
ENDBRANCH  20  21
ENDBRANCH   9  20
TORSDOF 7
ENDMDL
MODEL 7
REMARK VINA RESULT:      -7.3      2.406      6.139
REMARK  Name = 
REMARK  8 active torsions:
REMARK  status: ('A' for Active; 'I' for Inactive)
REMARK    1  A    between atoms: C_1  and  O_2
REMARK    2  A    between atoms: O_2  and  C_3
REMARK    3  A    between atoms: C_7  and  C_8
REMARK    4  A    between atoms: C_8  and  S_9
REMARK    5  A    between atoms: S_9  and  C_10
REMARK    6  A    between atoms: N_18  and  C_19
REMARK    7  A    between atoms: C_19  and  C_20
REMARK    8  A    between atoms: C_20  and  O_22
REMARK                            x       y       z     vdW  Elec       q    Type
REMARK                         _______ _______ _______ _____ _____    ______ ____
ROOT
ATOM      1  C   UNL     1       3.240   5.216  19.102  0.00  0.00    +0.000 A 
ATOM      2  N   UNL     1       3.045   6.074  18.137  0.00  0.00    +0.000 NA
ATOM      3  C   UNL     1       2.332   7.092  18.708  0.00  0.00    +0.000 A 
ATOM      4  C   UNL     1       1.865   8.281  18.130  0.00  0.00    +0.000 A 
ATOM      5  C   UNL     1       1.262   9.236  18.955  0.00  0.00    +0.000 A 
ATOM      6  C   UNL     1       1.111   9.001  20.323  0.00  0.00    +0.000 A 
ATOM      7  C   UNL     1       1.499   7.787  20.906  0.00  0.00    +0.000 A 
ATOM      8  C   UNL     1       2.097   6.843  20.061  0.00  0.00    +0.000 A 
ATOM      9  N   UNL     1       2.552   5.552  20.241  0.00  0.00    +0.000 N 
ENDROOT
BRANCH   1  10
ATOM     10  S   UNL     1       4.304   3.850  19.016  0.00  0.00    +0.000 S 
BRANCH  10  11
ATOM     11  C   UNL     1       4.079   3.385  17.265  0.00  0.00    +0.000 C 
BRANCH  11  16
ATOM     12  C   UNL     1       6.922   5.633  16.081  0.00  0.00    +0.000 A 
ATOM     13  C   UNL     1       7.180   5.103  14.817  0.00  0.00    +0.000 A 
ATOM     14  C   UNL     1       6.440   4.021  14.337  0.00  0.00    +0.000 A 
ATOM     15  C   UNL     1       5.434   3.461  15.125  0.00  0.00    +0.000 A 
ATOM     16  C   UNL     1       5.165   3.976  16.399  0.00  0.00    +0.000 A 
ATOM     17  C   UNL     1       5.915   5.068  16.867  0.00  0.00    +0.000 A 
BRANCH  12  19
ATOM     18  C   UNL     1       7.687   7.072  17.806  0.00  0.00    +0.000 C 
ATOM     19  O   UNL     1       7.707   6.696  16.435  0.00  0.00    +0.000 OA
ENDBRANCH  12  19
ENDBRANCH  11  16
ENDBRANCH  10  11
ENDBRANCH   1  10
BRANCH   9  20
ATOM     20  C   UNL     1       2.098   4.633  21.272  0.00  0.00    +0.000 C 
BRANCH  20  21
ATOM     21  C   UNL     1       1.356   3.425  20.780  0.00  0.00    +0.000 C 
ATOM     22  O   UNL     1       1.648   2.288  21.128  0.00  0.00    +0.000 OA
BRANCH  21  23
ATOM     23  O   UNL     1       0.274   3.661  20.008  0.00  0.00    +0.000 OA
ATOM     24  H   UNL     1       0.409   4.266  19.248  0.00  0.00    +0.000 HD
ENDBRANCH  21  23
ENDBRANCH  20  21
ENDBRANCH   9  20
TORSDOF 7
ENDMDL
MODEL 8
REMARK VINA RESULT:      -7.3      0.786      1.077
REMARK  Name = 
REMARK  8 active torsions:
REMARK  status: ('A' for Active; 'I' for Inactive)
REMARK    1  A    between atoms: C_1  and  O_2
REMARK    2  A    between atoms: O_2  and  C_3
REMARK    3  A    between atoms: C_7  and  C_8
REMARK    4  A    between atoms: C_8  and  S_9
REMARK    5  A    between atoms: S_9  and  C_10
REMARK    6  A    between atoms: N_18  and  C_19
REMARK    7  A    between atoms: C_19  and  C_20
REMARK    8  A    between atoms: C_20  and  O_22
REMARK                            x       y       z     vdW  Elec       q    Type
REMARK                         _______ _______ _______ _____ _____    ______ ____
ROOT
ATOM      1  C   UNL     1       5.071   4.442  17.541  0.00  0.00    +0.000 A 
ATOM      2  N   UNL     1       5.788   4.311  18.625  0.00  0.00    +0.000 NA
ATOM      3  C   UNL     1       6.692   5.337  18.578  0.00  0.00    +0.000 A 
ATOM      4  C   UNL     1       7.695   5.680  19.496  0.00  0.00    +0.000 A 
ATOM      5  C   UNL     1       8.419   6.857  19.288  0.00  0.00    +0.000 A 
ATOM      6  C   UNL     1       8.162   7.665  18.178  0.00  0.00    +0.000 A 
ATOM      7  C   UNL     1       7.220   7.300  17.208  0.00  0.00    +0.000 A 
ATOM      8  C   UNL     1       6.509   6.115  17.432  0.00  0.00    +0.000 A 
ATOM      9  N   UNL     1       5.565   5.413  16.707  0.00  0.00    +0.000 N 
ENDROOT
BRANCH   1  10
ATOM     10  S   UNL     1       3.611   3.569  17.205  0.00  0.00    +0.000 S 
BRANCH  10  11
ATOM     11  C   UNL     1       2.766   3.739  18.814  0.00  0.00    +0.000 C 
BRANCH  11  16
ATOM     12  C   UNL     1       2.286   7.494  18.356  0.00  0.00    +0.000 A 
ATOM     13  C   UNL     1       1.870   7.873  19.632  0.00  0.00    +0.000 A 
ATOM     14  C   UNL     1       1.743   6.924  20.648  0.00  0.00    +0.000 A 
ATOM     15  C   UNL     1       2.032   5.584  20.390  0.00  0.00    +0.000 A 
ATOM     16  C   UNL     1       2.445   5.184  19.112  0.00  0.00    +0.000 A 
ATOM     17  C   UNL     1       2.573   6.151  18.101  0.00  0.00    +0.000 A 
BRANCH  12  19
ATOM     18  C   UNL     1       1.913   9.789  17.878  0.00  0.00    +0.000 C 
ATOM     19  O   UNL     1       2.379   8.515  17.450  0.00  0.00    +0.000 OA
ENDBRANCH  12  19
ENDBRANCH  11  16
ENDBRANCH  10  11
ENDBRANCH   1  10
BRANCH   9  20
ATOM     20  C   UNL     1       5.393   5.476  15.265  0.00  0.00    +0.000 C 
BRANCH  20  21
ATOM     21  C   UNL     1       6.420   4.736  14.459  0.00  0.00    +0.000 C 
ATOM     22  O   UNL     1       6.176   3.673  13.902  0.00  0.00    +0.000 OA
BRANCH  21  23
ATOM     23  O   UNL     1       7.607   5.355  14.290  0.00  0.00    +0.000 OA
ATOM     24  H   UNL     1       8.402   4.780  14.316  0.00  0.00    +0.000 HD
ENDBRANCH  21  23
ENDBRANCH  20  21
ENDBRANCH   9  20
TORSDOF 7
ENDMDL
MODEL 9
REMARK VINA RESULT:      -7.2      2.313      6.492
REMARK  Name = 
REMARK  8 active torsions:
REMARK  status: ('A' for Active; 'I' for Inactive)
REMARK    1  A    between atoms: C_1  and  O_2
REMARK    2  A    between atoms: O_2  and  C_3
REMARK    3  A    between atoms: C_7  and  C_8
REMARK    4  A    between atoms: C_8  and  S_9
REMARK    5  A    between atoms: S_9  and  C_10
REMARK    6  A    between atoms: N_18  and  C_19
REMARK    7  A    between atoms: C_19  and  C_20
REMARK    8  A    between atoms: C_20  and  O_22
REMARK                            x       y       z     vdW  Elec       q    Type
REMARK                         _______ _______ _______ _____ _____    ______ ____
ROOT
ATOM      1  C   UNL     1       3.585   5.663  18.961  0.00  0.00    +0.000 A 
ATOM      2  N   UNL     1       3.487   6.526  17.986  0.00  0.00    +0.000 NA
ATOM      3  C   UNL     1       2.619   7.480  18.444  0.00  0.00    +0.000 A 
ATOM      4  C   UNL     1       2.166   8.646  17.810  0.00  0.00    +0.000 A 
ATOM      5  C   UNL     1       1.370   9.537  18.536  0.00  0.00    +0.000 A 
ATOM      6  C   UNL     1       1.018   9.262  19.859  0.00  0.00    +0.000 A 
ATOM      7  C   UNL     1       1.394   8.066  20.485  0.00  0.00    +0.000 A 
ATOM      8  C   UNL     1       2.187   7.185  19.739  0.00  0.00    +0.000 A 
ATOM      9  N   UNL     1       2.700   5.925  19.977  0.00  0.00    +0.000 N 
ENDROOT
BRANCH   1  10
ATOM     10  S   UNL     1       4.745   4.377  19.036  0.00  0.00    +0.000 S 
BRANCH  10  11
ATOM     11  C   UNL     1       4.402   3.551  17.445  0.00  0.00    +0.000 C 
BRANCH  11  16
ATOM     12  C   UNL     1       6.064   3.985  14.041  0.00  0.00    +0.000 A 
ATOM     13  C   UNL     1       7.137   4.815  14.366  0.00  0.00    +0.000 A 
ATOM     14  C   UNL     1       7.333   5.239  15.681  0.00  0.00    +0.000 A 
ATOM     15  C   UNL     1       6.451   4.833  16.683  0.00  0.00    +0.000 A 
ATOM     16  C   UNL     1       5.365   4.004  16.374  0.00  0.00    +0.000 A 
ATOM     17  C   UNL     1       5.183   3.581  15.047  0.00  0.00    +0.000 A 
BRANCH  12  19
ATOM     18  C   UNL     1       7.097   3.970  11.905  0.00  0.00    +0.000 C 
ATOM     19  O   UNL     1       5.983   3.631  12.722  0.00  0.00    +0.000 OA
ENDBRANCH  12  19
ENDBRANCH  11  16
ENDBRANCH  10  11
ENDBRANCH   1  10
BRANCH   9  20
ATOM     20  C   UNL     1       2.152   4.954  20.911  0.00  0.00    +0.000 C 
BRANCH  20  21
ATOM     21  C   UNL     1       1.253   3.915  20.309  0.00  0.00    +0.000 C 
ATOM     22  O   UNL     1       1.033   3.853  19.106  0.00  0.00    +0.000 OA
BRANCH  21  23
ATOM     23  O   UNL     1       0.774   2.976  21.153  0.00  0.00    +0.000 OA
ATOM     24  H   UNL     1       1.127   2.998  22.068  0.00  0.00    +0.000 HD
ENDBRANCH  21  23
ENDBRANCH  20  21
ENDBRANCH   9  20
TORSDOF 7
ENDMDL
