MODEL 1
REMARK VINA RESULT:      -7.5      0.000      0.000
REMARK  Name = 
REMARK  4 active torsions:
REMARK  status: ('A' for Active; 'I' for Inactive)
REMARK    1  A    between atoms: C_5  and  N_6
REMARK    2  A    between atoms: N_6  and  C_7
REMARK    3  A    between atoms: N_17  and  C_18
REMARK    4  A    between atoms: C_18  and  C_19
REMARK                            x       y       z     vdW  Elec       q    Type
REMARK                         _______ _______ _______ _____ _____    ______ ____
ROOT
ATOM      1  O   UNL     1       2.758   4.094  20.844  0.00  0.00    +0.000 OA
ATOM      2  C   UNL     1       2.373   4.919  20.011  0.00  0.00    +0.000 C 
ATOM      3  C   UNL     1       1.458   6.047  20.431  0.00  0.00    +0.000 C 
ATOM      4  C   UNL     1       2.195   7.379  20.443  0.00  0.00    +0.000 C 
ATOM      5  C   UNL     1       2.256   8.072  19.074  0.00  0.00    +0.000 C 
ATOM      6  C   UNL     1       3.014   7.236  18.024  0.00  0.00    +0.000 C 
ATOM      7  C   UNL     1       2.372   5.885  17.705  0.00  0.00    +0.000 C 
ATOM      8  N   UNL     1       2.754   4.866  18.680  0.00  0.00    +0.000 N 
ENDROOT
BRANCH   5   9
ATOM      9  N   UNL     1       0.939   8.387  18.514  0.00  0.00    +0.000 NA
ATOM     10  H   UNL     1       0.809   7.834  17.668  0.00  0.00    +0.000 HD
BRANCH   9  11
ATOM     11  C   UNL     1       0.637   9.799  18.210  0.00  0.00    +0.000 C 
ATOM     12  C   UNL     1      -0.851   9.987  17.880  0.00  0.00    +0.000 C 
ATOM     13  C   UNL     1      -1.327  11.419  17.630  0.00  0.00    +0.000 C 
ATOM     14  C   UNL     1      -1.371  12.389  18.810  0.00  0.00    +0.000 C 
ATOM     15  C   UNL     1      -1.751  11.786  20.163  0.00  0.00    +0.000 C 
ATOM     16  C   UNL     1      -0.567  11.545  21.102  0.00  0.00    +0.000 C 
ATOM     17  C   UNL     1       0.390  10.417  20.723  0.00  0.00    +0.000 C 
ATOM     18  C   UNL     1       1.155  10.618  19.410  0.00  0.00    +0.000 C 
ENDBRANCH   9  11
ENDBRANCH   5   9
BRANCH   8  19
ATOM     19  C   UNL     1       3.502   3.704  18.196  0.00  0.00    +0.000 C 
BRANCH  19  20
ATOM     20  C   UNL     1       4.717   4.120  17.389  0.00  0.00    +0.000 A 
ATOM     21  C   UNL     1       4.744   3.792  16.017  0.00  0.00    +0.000 A 
ATOM     22  C   UNL     1       5.784   4.257  15.243  0.00  0.00    +0.000 A 
ATOM     23  C   UNL     1       6.806   4.999  15.780  0.00  0.00    +0.000 A 
ATOM     24  C   UNL     1       6.853   5.296  17.123  0.00  0.00    +0.000 A 
ATOM     25  C   UNL     1       5.799   4.852  17.933  0.00  0.00    +0.000 A 
ATOM     26 CL   UNL     1       5.887   5.248  19.614  0.00  0.00    +0.000 Cl
ATOM     27  O   UNL     1       7.711   5.387  14.842  0.00  0.00    +0.000 OA
ATOM     28  C   UNL     1       7.096   4.869  13.643  0.00  0.00    +0.000 C 
ATOM     29  O   UNL     1       5.923   4.073  13.903  0.00  0.00    +0.000 OA
ENDBRANCH  19  20
ENDBRANCH   8  19
TORSDOF 4
ENDMDL
MODEL 2
REMARK VINA RESULT:      -7.4      2.964      4.745
REMARK  Name = 
REMARK  4 active torsions:
REMARK  status: ('A' for Active; 'I' for Inactive)
REMARK    1  A    between atoms: C_5  and  N_6
REMARK    2  A    between atoms: N_6  and  C_7
REMARK    3  A    between atoms: N_17  and  C_18
REMARK    4  A    between atoms: C_18  and  C_19
REMARK                            x       y       z     vdW  Elec       q    Type
REMARK                         _______ _______ _______ _____ _____    ______ ____
ROOT
ATOM      1  O   UNL     1       1.298   8.081  21.870  0.00  0.00    +0.000 OA
ATOM      2  C   UNL     1       1.086   8.527  20.739  0.00  0.00    +0.000 C 
ATOM      3  C   UNL     1      -0.148   9.362  20.476  0.00  0.00    +0.000 C 
ATOM      4  C   UNL     1       0.212  10.828  20.275  0.00  0.00    +0.000 C 
ATOM      5  C   UNL     1       0.633  11.178  18.841  0.00  0.00    +0.000 C 
ATOM      6  C   UNL     1       1.899  10.420  18.397  0.00  0.00    +0.000 C 
ATOM      7  C   UNL     1       1.746   8.898  18.357  0.00  0.00    +0.000 C 
ATOM      8  N   UNL     1       1.946   8.304  19.676  0.00  0.00    +0.000 N 
ENDROOT
BRANCH   5   9
ATOM      9  N   UNL     1      -0.407  10.915  17.841  0.00  0.00    +0.000 NA
ATOM     10  H   UNL     1      -0.429  11.698  17.189  0.00  0.00    +0.000 HD
BRANCH   9  11
ATOM     11  C   UNL     1      -1.778  10.657  18.321  0.00  0.00    +0.000 C 
ATOM     12  C   UNL     1      -2.542  11.971  18.544  0.00  0.00    +0.000 C 
ATOM     13  C   UNL     1      -4.009  11.854  18.959  0.00  0.00    +0.000 C 
ATOM     14  C   UNL     1      -5.016  11.334  17.935  0.00  0.00    +0.000 C 
ATOM     15  C   UNL     1      -4.764  11.731  16.480  0.00  0.00    +0.000 C 
ATOM     16  C   UNL     1      -4.139  10.628  15.623  0.00  0.00    +0.000 C 
ATOM     17  C   UNL     1      -2.682  10.275  15.915  0.00  0.00    +0.000 C 
ATOM     18  C   UNL     1      -2.414   9.689  17.305  0.00  0.00    +0.000 C 
ENDBRANCH   9  11
ENDBRANCH   5   9
BRANCH   8  19
ATOM     19  C   UNL     1       3.061   7.369  19.843  0.00  0.00    +0.000 C 
BRANCH  19  20
ATOM     20  C   UNL     1       2.745   6.011  19.247  0.00  0.00    +0.000 A 
ATOM     21  C   UNL     1       1.909   5.144  19.982  0.00  0.00    +0.000 A 
ATOM     22  C   UNL     1       1.519   3.953  19.410  0.00  0.00    +0.000 A 
ATOM     23  C   UNL     1       1.949   3.580  18.162  0.00  0.00    +0.000 A 
ATOM     24  C   UNL     1       2.810   4.365  17.429  0.00  0.00    +0.000 A 
ATOM     25  C   UNL     1       3.209   5.592  17.978  0.00  0.00    +0.000 A 
ATOM     26 CL   UNL     1       4.286   6.557  17.029  0.00  0.00    +0.000 Cl
ATOM     27  O   UNL     1       1.422   2.389  17.769  0.00  0.00    +0.000 OA
ATOM     28  C   UNL     1       0.550   2.099  18.882  0.00  0.00    +0.000 C 
ATOM     29  O   UNL     1       0.678   3.042  19.966  0.00  0.00    +0.000 OA
ENDBRANCH  19  20
ENDBRANCH   8  19
TORSDOF 4
ENDMDL
MODEL 3
REMARK VINA RESULT:      -7.2      1.192      1.478
REMARK  Name = 
REMARK  4 active torsions:
REMARK  status: ('A' for Active; 'I' for Inactive)
REMARK    1  A    between atoms: C_5  and  N_6
REMARK    2  A    between atoms: N_6  and  C_7
REMARK    3  A    between atoms: N_17  and  C_18
REMARK    4  A    between atoms: C_18  and  C_19
REMARK                            x       y       z     vdW  Elec       q    Type
REMARK                         _______ _______ _______ _____ _____    ______ ____
ROOT
ATOM      1  O   UNL     1       1.970   2.636  20.040  0.00  0.00    +0.000 OA
ATOM      2  C   UNL     1       1.812   3.795  19.649  0.00  0.00    +0.000 C 
ATOM      3  C   UNL     1       1.082   4.793  20.520  0.00  0.00    +0.000 C 
ATOM      4  C   UNL     1       2.043   5.817  21.108  0.00  0.00    +0.000 C 
ATOM      5  C   UNL     1       2.343   7.000  20.178  0.00  0.00    +0.000 C 
ATOM      6  C   UNL     1       3.025   6.561  18.867  0.00  0.00    +0.000 C 
ATOM      7  C   UNL     1       2.179   5.632  17.994  0.00  0.00    +0.000 C 
ATOM      8  N   UNL     1       2.288   4.241  18.427  0.00  0.00    +0.000 N 
ENDROOT
BRANCH   5   9
ATOM      9  N   UNL     1       1.156   7.779  19.813  0.00  0.00    +0.000 NA
ATOM     10  H   UNL     1       0.934   7.588  18.837  0.00  0.00    +0.000 HD
BRANCH   9  11
ATOM     11  C   UNL     1       1.200   9.241  20.013  0.00  0.00    +0.000 C 
ATOM     12  C   UNL     1      -0.046   9.917  19.423  0.00  0.00    +0.000 C 
ATOM     13  C   UNL     1      -0.179  11.426  19.635  0.00  0.00    +0.000 C 
ATOM     14  C   UNL     1      -0.453  11.941  21.046  0.00  0.00    +0.000 C 
ATOM     15  C   UNL     1      -1.349  11.063  21.921  0.00  0.00    +0.000 C 
ATOM     16  C   UNL     1      -0.595  10.226  22.956  0.00  0.00    +0.000 C 
ATOM     17  C   UNL     1       0.242   9.065  22.423  0.00  0.00    +0.000 C 
ATOM     18  C   UNL     1       1.417   9.462  21.523  0.00  0.00    +0.000 C 
ENDBRANCH   9  11
ENDBRANCH   5   9
BRANCH   8  19
ATOM     19  C   UNL     1       2.854   3.274  17.484  0.00  0.00    +0.000 C 
BRANCH  19  20
ATOM     20  C   UNL     1       4.224   3.705  16.997  0.00  0.00    +0.000 A 
ATOM     21  C   UNL     1       4.428   3.816  15.606  0.00  0.00    +0.000 A 
ATOM     22  C   UNL     1       5.628   4.312  15.147  0.00  0.00    +0.000 A 
ATOM     23  C   UNL     1       6.635   4.668  16.007  0.00  0.00    +0.000 A 
ATOM     24  C   UNL     1       6.506   4.525  17.370  0.00  0.00    +0.000 A 
ATOM     25  C   UNL     1       5.288   4.040  17.867  0.00  0.00    +0.000 A 
ATOM     26 CL   UNL     1       5.156   3.878  19.584  0.00  0.00    +0.000 Cl
ATOM     27  O   UNL     1       7.720   5.166  15.354  0.00  0.00    +0.000 OA
ATOM     28  C   UNL     1       7.244   5.154  13.991  0.00  0.00    +0.000 C 
ATOM     29  O   UNL     1       5.953   4.528  13.845  0.00  0.00    +0.000 OA
ENDBRANCH  19  20
ENDBRANCH   8  19
TORSDOF 4
ENDMDL
MODEL 4
REMARK VINA RESULT:      -7.1      4.020      9.005
REMARK  Name = 
REMARK  4 active torsions:
REMARK  status: ('A' for Active; 'I' for Inactive)
REMARK    1  A    between atoms: C_5  and  N_6
REMARK    2  A    between atoms: N_6  and  C_7
REMARK    3  A    between atoms: N_17  and  C_18
REMARK    4  A    between atoms: C_18  and  C_19
REMARK                            x       y       z     vdW  Elec       q    Type
REMARK                         _______ _______ _______ _____ _____    ______ ____
ROOT
ATOM      1  O   UNL     1       2.205  10.852  17.615  0.00  0.00    +0.000 OA
ATOM      2  C   UNL     1       1.780   9.851  18.198  0.00  0.00    +0.000 C 
ATOM      3  C   UNL     1       1.910   8.490  17.552  0.00  0.00    +0.000 C 
ATOM      4  C   UNL     1       2.964   7.646  18.254  0.00  0.00    +0.000 C 
ATOM      5  C   UNL     1       2.446   6.899  19.491  0.00  0.00    +0.000 C 
ATOM      6  C   UNL     1       1.944   7.857  20.590  0.00  0.00    +0.000 C 
ATOM      7  C   UNL     1       0.753   8.724  20.178  0.00  0.00    +0.000 C 
ATOM      8  N   UNL     1       1.183   9.913  19.446  0.00  0.00    +0.000 N 
ENDROOT
BRANCH   5   9
ATOM      9  N   UNL     1       1.359   5.959  19.200  0.00  0.00    +0.000 NA
ATOM     10  H   UNL     1       0.778   5.873  20.033  0.00  0.00    +0.000 HD
BRANCH   9  11
ATOM     11  C   UNL     1       1.721   4.608  18.731  0.00  0.00    +0.000 C 
ATOM     12  C   UNL     1       3.239   4.482  18.526  0.00  0.00    +0.000 C 
ATOM     13  C   UNL     1       3.770   3.106  18.124  0.00  0.00    +0.000 C 
ATOM     14  C   UNL     1       3.721   1.978  19.153  0.00  0.00    +0.000 C 
ATOM     15  C   UNL     1       3.955   2.384  20.609  0.00  0.00    +0.000 C 
ATOM     16  C   UNL     1       2.680   2.478  21.450  0.00  0.00    +0.000 C 
ATOM     17  C   UNL     1       1.738   3.639  21.142  0.00  0.00    +0.000 C 
ATOM     18  C   UNL     1       1.109   3.622  19.745  0.00  0.00    +0.000 C 
ENDBRANCH   9  11
ENDBRANCH   5   9
BRANCH   8  19
ATOM     19  C   UNL     1       0.888  11.221  20.034  0.00  0.00    +0.000 C 
BRANCH  19  20
ATOM     20  C   UNL     1      -0.564  11.609  19.834  0.00  0.00    +0.000 A 
ATOM     21  C   UNL     1      -1.141  11.381  18.567  0.00  0.00    +0.000 A 
ATOM     22  C   UNL     1      -2.487  11.620  18.396  0.00  0.00    +0.000 A 
ATOM     23  C   UNL     1      -3.267  12.105  19.415  0.00  0.00    +0.000 A 
ATOM     24  C   UNL     1      -2.738  12.397  20.652  0.00  0.00    +0.000 A 
ATOM     25  C   UNL     1      -1.375  12.146  20.862  0.00  0.00    +0.000 A 
ATOM     26 CL   UNL     1      -0.745  12.518  22.429  0.00  0.00    +0.000 Cl
ATOM     27  O   UNL     1      -4.570  12.238  19.050  0.00  0.00    +0.000 OA
ATOM     28  C   UNL     1      -4.531  11.707  17.709  0.00  0.00    +0.000 C 
ATOM     29  O   UNL     1      -3.196  11.399  17.258  0.00  0.00    +0.000 OA
ENDBRANCH  19  20
ENDBRANCH   8  19
TORSDOF 4
ENDMDL
MODEL 5
REMARK VINA RESULT:      -7.1      0.642      1.473
REMARK  Name = 
REMARK  4 active torsions:
REMARK  status: ('A' for Active; 'I' for Inactive)
REMARK    1  A    between atoms: C_5  and  N_6
REMARK    2  A    between atoms: N_6  and  C_7
REMARK    3  A    between atoms: N_17  and  C_18
REMARK    4  A    between atoms: C_18  and  C_19
REMARK                            x       y       z     vdW  Elec       q    Type
REMARK                         _______ _______ _______ _____ _____    ______ ____
ROOT
ATOM      1  O   UNL     1       2.480   4.041  20.738  0.00  0.00    +0.000 OA
ATOM      2  C   UNL     1       2.170   4.971  19.989  0.00  0.00    +0.000 C 
ATOM      3  C   UNL     1       1.374   6.141  20.525  0.00  0.00    +0.000 C 
ATOM      4  C   UNL     1       2.240   7.388  20.641  0.00  0.00    +0.000 C 
ATOM      5  C   UNL     1       2.355   8.192  19.338  0.00  0.00    +0.000 C 
ATOM      6  C   UNL     1       3.016   7.385  18.204  0.00  0.00    +0.000 C 
ATOM      7  C   UNL     1       2.240   6.137  17.779  0.00  0.00    +0.000 C 
ATOM      8  N   UNL     1       2.530   5.002  18.652  0.00  0.00    +0.000 N 
ENDROOT
BRANCH   5   9
ATOM      9  N   UNL     1       1.069   8.684  18.834  0.00  0.00    +0.000 NA
ATOM     10  H   UNL     1       1.205   9.014  17.879  0.00  0.00    +0.000 HD
BRANCH   9  11
ATOM     11  C   UNL     1       0.379   9.733  19.607  0.00  0.00    +0.000 C 
ATOM     12  C   UNL     1       1.109  11.080  19.486  0.00  0.00    +0.000 C 
ATOM     13  C   UNL     1       0.455  12.283  20.166  0.00  0.00    +0.000 C 
ATOM     14  C   UNL     1      -0.847  12.830  19.585  0.00  0.00    +0.000 C 
ATOM     15  C   UNL     1      -0.982  12.770  18.062  0.00  0.00    +0.000 C 
ATOM     16  C   UNL     1      -1.864  11.630  17.552  0.00  0.00    +0.000 C 
ATOM     17  C   UNL     1      -1.305  10.215  17.687  0.00  0.00    +0.000 C 
ATOM     18  C   UNL     1      -1.085   9.731  19.124  0.00  0.00    +0.000 C 
ENDBRANCH   9  11
ENDBRANCH   5   9
BRANCH   8  19
ATOM     19  C   UNL     1       3.154   3.820  18.052  0.00  0.00    +0.000 C 
BRANCH  19  20
ATOM     20  C   UNL     1       4.440   4.175  17.331  0.00  0.00    +0.000 A 
ATOM     21  C   UNL     1       4.523   3.900  15.950  0.00  0.00    +0.000 A 
ATOM     22  C   UNL     1       5.636   4.315  15.254  0.00  0.00    +0.000 A 
ATOM     23  C   UNL     1       6.676   4.958  15.877  0.00  0.00    +0.000 A 
ATOM     24  C   UNL     1       6.668   5.199  17.232  0.00  0.00    +0.000 A 
ATOM     25  C   UNL     1       5.539   4.804  17.964  0.00  0.00    +0.000 A 
ATOM     26 CL   UNL     1       5.559   5.127  19.663  0.00  0.00    +0.000 Cl
ATOM     27  O   UNL     1       7.659   5.314  15.008  0.00  0.00    +0.000 OA
ATOM     28  C   UNL     1       7.079   4.890  13.756  0.00  0.00    +0.000 C 
ATOM     29  O   UNL     1       5.838   4.174  13.917  0.00  0.00    +0.000 OA
ENDBRANCH  19  20
ENDBRANCH   8  19
TORSDOF 4
ENDMDL
MODEL 6
REMARK VINA RESULT:      -7.0      4.797      8.879
REMARK  Name = 
REMARK  4 active torsions:
REMARK  status: ('A' for Active; 'I' for Inactive)
REMARK    1  A    between atoms: C_5  and  N_6
REMARK    2  A    between atoms: N_6  and  C_7
REMARK    3  A    between atoms: N_17  and  C_18
REMARK    4  A    between atoms: C_18  and  C_19
REMARK                            x       y       z     vdW  Elec       q    Type
REMARK                         _______ _______ _______ _____ _____    ______ ____
ROOT
ATOM      1  O   UNL     1      -0.820  11.553  22.904  0.00  0.00    +0.000 OA
ATOM      2  C   UNL     1      -0.119  10.860  22.161  0.00  0.00    +0.000 C 
ATOM      3  C   UNL     1       0.566   9.626  22.704  0.00  0.00    +0.000 C 
ATOM      4  C   UNL     1      -0.093   8.357  22.182  0.00  0.00    +0.000 C 
ATOM      5  C   UNL     1       0.414   7.910  20.804  0.00  0.00    +0.000 C 
ATOM      6  C   UNL     1       0.131   8.953  19.706  0.00  0.00    +0.000 C 
ATOM      7  C   UNL     1       0.827  10.300  19.917  0.00  0.00    +0.000 C 
ATOM      8  N   UNL     1       0.069  11.159  20.822  0.00  0.00    +0.000 N 
ENDROOT
BRANCH   5   9
ATOM      9  N   UNL     1       1.850   7.618  20.770  0.00  0.00    +0.000 NA
ATOM     10  H   UNL     1       2.249   8.064  19.945  0.00  0.00    +0.000 HD
BRANCH   9  11
ATOM     11  C   UNL     1       2.269   6.203  20.795  0.00  0.00    +0.000 C 
ATOM     12  C   UNL     1       1.051   5.266  20.769  0.00  0.00    +0.000 C 
ATOM     13  C   UNL     1       1.337   3.765  20.701  0.00  0.00    +0.000 C 
ATOM     14  C   UNL     1       1.923   3.192  19.412  0.00  0.00    +0.000 C 
ATOM     15  C   UNL     1       1.448   3.840  18.111  0.00  0.00    +0.000 C 
ATOM     16  C   UNL     1       2.448   4.820  17.492  0.00  0.00    +0.000 C 
ATOM     17  C   UNL     1       2.656   6.143  18.226  0.00  0.00    +0.000 C 
ATOM     18  C   UNL     1       3.261   6.027  19.629  0.00  0.00    +0.000 C 
ENDBRANCH   9  11
ENDBRANCH   5   9
BRANCH   8  19
ATOM     19  C   UNL     1      -0.439  12.428  20.295  0.00  0.00    +0.000 C 
BRANCH  19  20
ATOM     20  C   UNL     1      -1.649  12.219  19.405  0.00  0.00    +0.000 A 
ATOM     21  C   UNL     1      -1.428  11.816  18.071  0.00  0.00    +0.000 A 
ATOM     22  C   UNL     1      -2.513  11.512  17.280  0.00  0.00    +0.000 A 
ATOM     23  C   UNL     1      -3.798  11.623  17.747  0.00  0.00    +0.000 A 
ATOM     24  C   UNL     1      -4.067  12.066  19.022  0.00  0.00    +0.000 A 
ATOM     25  C   UNL     1      -2.981  12.365  19.857  0.00  0.00    +0.000 A 
ATOM     26 CL   UNL     1      -3.354  12.913  21.455  0.00  0.00    +0.000 Cl
ATOM     27  O   UNL     1      -4.719  11.243  16.821  0.00  0.00    +0.000 OA
ATOM     28  C   UNL     1      -3.859  10.806  15.748  0.00  0.00    +0.000 C 
ATOM     29  O   UNL     1      -2.462  11.061  15.999  0.00  0.00    +0.000 OA
ENDBRANCH  19  20
ENDBRANCH   8  19
TORSDOF 4
ENDMDL
MODEL 7
REMARK VINA RESULT:      -6.9      1.369      2.213
REMARK  Name = 
REMARK  4 active torsions:
REMARK  status: ('A' for Active; 'I' for Inactive)
REMARK    1  A    between atoms: C_5  and  N_6
REMARK    2  A    between atoms: N_6  and  C_7
REMARK    3  A    between atoms: N_17  and  C_18
REMARK    4  A    between atoms: C_18  and  C_19
REMARK                            x       y       z     vdW  Elec       q    Type
REMARK                         _______ _______ _______ _____ _____    ______ ____
ROOT
ATOM      1  O   UNL     1       1.243   2.774  19.672  0.00  0.00    +0.000 OA
ATOM      2  C   UNL     1       1.354   3.976  19.414  0.00  0.00    +0.000 C 
ATOM      3  C   UNL     1       0.718   5.004  20.323  0.00  0.00    +0.000 C 
ATOM      4  C   UNL     1       1.772   5.750  21.130  0.00  0.00    +0.000 C 
ATOM      5  C   UNL     1       2.401   6.939  20.390  0.00  0.00    +0.000 C 
ATOM      6  C   UNL     1       3.147   6.509  19.112  0.00  0.00    +0.000 C 
ATOM      7  C   UNL     1       2.260   5.862  18.047  0.00  0.00    +0.000 C 
ATOM      8  N   UNL     1       2.054   4.440  18.313  0.00  0.00    +0.000 N 
ENDROOT
BRANCH   5   9
ATOM      9  N   UNL     1       1.434   7.972  20.005  0.00  0.00    +0.000 NA
ATOM     10  H   UNL     1       1.949   8.810  19.738  0.00  0.00    +0.000 HD
BRANCH   9  11
ATOM     11  C   UNL     1       0.394   8.344  20.984  0.00  0.00    +0.000 C 
ATOM     12  C   UNL     1       1.009   9.049  22.203  0.00  0.00    +0.000 C 
ATOM     13  C   UNL     1       0.037   9.572  23.261  0.00  0.00    +0.000 C 
ATOM     14  C   UNL     1      -0.855  10.760  22.907  0.00  0.00    +0.000 C 
ATOM     15  C   UNL     1      -0.237  11.816  21.989  0.00  0.00    +0.000 C 
ATOM     16  C   UNL     1      -0.693  11.731  20.531  0.00  0.00    +0.000 C 
ATOM     17  C   UNL     1      -0.184  10.541  19.721  0.00  0.00    +0.000 C 
ATOM     18  C   UNL     1      -0.653   9.166  20.206  0.00  0.00    +0.000 C 
ENDBRANCH   9  11
ENDBRANCH   5   9
BRANCH   8  19
ATOM     19  C   UNL     1       2.543   3.481  17.320  0.00  0.00    +0.000 C 
BRANCH  19  20
ATOM     20  C   UNL     1       3.987   3.753  16.947  0.00  0.00    +0.000 A 
ATOM     21  C   UNL     1       4.286   3.999  15.590  0.00  0.00    +0.000 A 
ATOM     22  C   UNL     1       5.570   4.358  15.246  0.00  0.00    +0.000 A 
ATOM     23  C   UNL     1       6.567   4.449  16.183  0.00  0.00    +0.000 A 
ATOM     24  C   UNL     1       6.339   4.163  17.511  0.00  0.00    +0.000 A 
ATOM     25  C   UNL     1       5.037   3.813  17.894  0.00  0.00    +0.000 A 
ATOM     26 CL   UNL     1       4.784   3.467  19.569  0.00  0.00    +0.000 Cl
ATOM     27  O   UNL     1       7.749   4.850  15.644  0.00  0.00    +0.000 OA
ATOM     28  C   UNL     1       7.357   5.076  14.273  0.00  0.00    +0.000 C 
ATOM     29  O   UNL     1       5.999   4.678  13.997  0.00  0.00    +0.000 OA
ENDBRANCH  19  20
ENDBRANCH   8  19
TORSDOF 4
ENDMDL
MODEL 8
REMARK VINA RESULT:      -6.9      2.859      4.529
REMARK  Name = 
REMARK  4 active torsions:
REMARK  status: ('A' for Active; 'I' for Inactive)
REMARK    1  A    between atoms: C_5  and  N_6
REMARK    2  A    between atoms: N_6  and  C_7
REMARK    3  A    between atoms: N_17  and  C_18
REMARK    4  A    between atoms: C_18  and  C_19
REMARK                            x       y       z     vdW  Elec       q    Type
REMARK                         _______ _______ _______ _____ _____    ______ ____
ROOT
ATOM      1  O   UNL     1       1.842   8.308  21.901  0.00  0.00    +0.000 OA
ATOM      2  C   UNL     1       1.269   8.507  20.827  0.00  0.00    +0.000 C 
ATOM      3  C   UNL     1      -0.092   9.166  20.807  0.00  0.00    +0.000 C 
ATOM      4  C   UNL     1      -0.006  10.590  20.277  0.00  0.00    +0.000 C 
ATOM      5  C   UNL     1      -0.046  10.691  18.745  0.00  0.00    +0.000 C 
ATOM      6  C   UNL     1       1.143   9.974  18.077  0.00  0.00    +0.000 C 
ATOM      7  C   UNL     1       1.196   8.465  18.328  0.00  0.00    +0.000 C 
ATOM      8  N   UNL     1       1.829   8.157  19.609  0.00  0.00    +0.000 N 
ENDROOT
BRANCH   5   9
ATOM      9  N   UNL     1      -1.273  10.151  18.151  0.00  0.00    +0.000 NA
ATOM     10  H   UNL     1      -1.018   9.380  17.535  0.00  0.00    +0.000 HD
BRANCH   9  11
ATOM     11  C   UNL     1      -2.150  11.080  17.412  0.00  0.00    +0.000 C 
ATOM     12  C   UNL     1      -3.387  10.354  16.864  0.00  0.00    +0.000 C 
ATOM     13  C   UNL     1      -4.432  11.213  16.150  0.00  0.00    +0.000 C 
ATOM     14  C   UNL     1      -5.260  12.192  16.980  0.00  0.00    +0.000 C 
ATOM     15  C   UNL     1      -5.624  11.737  18.393  0.00  0.00    +0.000 C 
ATOM     16  C   UNL     1      -4.769  12.363  19.498  0.00  0.00    +0.000 C 
ATOM     17  C   UNL     1      -3.316  11.903  19.585  0.00  0.00    +0.000 C 
ATOM     18  C   UNL     1      -2.444  12.249  18.373  0.00  0.00    +0.000 C 
ENDBRANCH   9  11
ENDBRANCH   5   9
BRANCH   8  19
ATOM     19  C   UNL     1       3.065   7.372  19.589  0.00  0.00    +0.000 C 
BRANCH  19  20
ATOM     20  C   UNL     1       2.824   5.965  19.078  0.00  0.00    +0.000 A 
ATOM     21  C   UNL     1       1.954   5.134  19.813  0.00  0.00    +0.000 A 
ATOM     22  C   UNL     1       1.634   3.893  19.308  0.00  0.00    +0.000 A 
ATOM     23  C   UNL     1       2.166   3.438  18.128  0.00  0.00    +0.000 A 
ATOM     24  C   UNL     1       3.063   4.189  17.403  0.00  0.00    +0.000 A 
ATOM     25  C   UNL     1       3.393   5.464  17.883  0.00  0.00    +0.000 A 
ATOM     26 CL   UNL     1       4.518   6.383  16.945  0.00  0.00    +0.000 Cl
ATOM     27  O   UNL     1       1.696   2.207  17.790  0.00  0.00    +0.000 OA
ATOM     28  C   UNL     1       0.748   1.978  18.855  0.00  0.00    +0.000 C 
ATOM     29  O   UNL     1       0.773   3.004  19.869  0.00  0.00    +0.000 OA
ENDBRANCH  19  20
ENDBRANCH   8  19
TORSDOF 4
ENDMDL
MODEL 9
REMARK VINA RESULT:      -6.9      1.657      2.386
REMARK  Name = 
REMARK  4 active torsions:
REMARK  status: ('A' for Active; 'I' for Inactive)
REMARK    1  A    between atoms: C_5  and  N_6
REMARK    2  A    between atoms: N_6  and  C_7
REMARK    3  A    between atoms: N_17  and  C_18
REMARK    4  A    between atoms: C_18  and  C_19
REMARK                            x       y       z     vdW  Elec       q    Type
REMARK                         _______ _______ _______ _____ _____    ______ ____
ROOT
ATOM      1  O   UNL     1       2.228   2.570  17.377  0.00  0.00    +0.000 OA
ATOM      2  C   UNL     1       2.582   3.733  17.585  0.00  0.00    +0.000 C 
ATOM      3  C   UNL     1       1.544   4.803  17.845  0.00  0.00    +0.000 C 
ATOM      4  C   UNL     1       1.551   5.232  19.306  0.00  0.00    +0.000 C 
ATOM      5  C   UNL     1       2.596   6.306  19.637  0.00  0.00    +0.000 C 
ATOM      6  C   UNL     1       4.037   5.823  19.386  0.00  0.00    +0.000 C 
ATOM      7  C   UNL     1       4.343   5.473  17.928  0.00  0.00    +0.000 C 
ATOM      8  N   UNL     1       3.913   4.116  17.600  0.00  0.00    +0.000 N 
ENDROOT
BRANCH   5   9
ATOM      9  N   UNL     1       2.416   7.554  18.890  0.00  0.00    +0.000 NA
ATOM     10  H   UNL     1       3.217   8.157  19.075  0.00  0.00    +0.000 HD
BRANCH   9  11
ATOM     11  C   UNL     1       1.178   8.324  19.117  0.00  0.00    +0.000 C 
ATOM     12  C   UNL     1       1.121   8.869  20.552  0.00  0.00    +0.000 C 
ATOM     13  C   UNL     1      -0.068   9.763  20.904  0.00  0.00    +0.000 C 
ATOM     14  C   UNL     1      -0.147  11.152  20.274  0.00  0.00    +0.000 C 
ATOM     15  C   UNL     1       1.186  11.870  20.058  0.00  0.00    +0.000 C 
ATOM     16  C   UNL     1       1.695  11.836  18.615  0.00  0.00    +0.000 C 
ATOM     17  C   UNL     1       2.188  10.489  18.093  0.00  0.00    +0.000 C 
ATOM     18  C   UNL     1       1.124   9.389  18.004  0.00  0.00    +0.000 C 
ENDBRANCH   9  11
ENDBRANCH   5   9
BRANCH   8  19
ATOM     19  C   UNL     1       4.939   3.154  17.193  0.00  0.00    +0.000 C 
BRANCH  19  20
ATOM     20  C   UNL     1       5.860   3.734  16.137  0.00  0.00    +0.000 A 
ATOM     21  C   UNL     1       5.583   3.443  14.785  0.00  0.00    +0.000 A 
ATOM     22  C   UNL     1       6.339   4.049  13.806  0.00  0.00    +0.000 A 
ATOM     23  C   UNL     1       7.370   4.899  14.116  0.00  0.00    +0.000 A 
ATOM     24  C   UNL     1       7.715   5.170  15.421  0.00  0.00    +0.000 A 
ATOM     25  C   UNL     1       6.952   4.582  16.439  0.00  0.00    +0.000 A 
ATOM     26 CL   UNL     1       7.408   4.948  18.066  0.00  0.00    +0.000 Cl
ATOM     27  O   UNL     1       7.964   5.417  13.008  0.00  0.00    +0.000 OA
ATOM     28  C   UNL     1       7.135   4.854  11.969  0.00  0.00    +0.000 C 
ATOM     29  O   UNL     1       6.161   3.914  12.465  0.00  0.00    +0.000 OA
ENDBRANCH  19  20
ENDBRANCH   8  19
TORSDOF 4
ENDMDL
