MODEL 1
REMARK VINA RESULT:      -8.2      0.000      0.000
REMARK  Name = 
REMARK  7 active torsions:
REMARK  status: ('A' for Active; 'I' for Inactive)
REMARK    1  A    between atoms: C_2  and  O_3
REMARK    2  A    between atoms: C_2  and  C_4
REMARK    3  A    between atoms: C_5  and  C_6
REMARK    4  A    between atoms: N_8  and  C_9
REMARK    5  A    between atoms: C_12  and  O_13
REMARK    6  A    between atoms: C_17  and  C_18
REMARK    7  A    between atoms: C_22  and  O_23
REMARK                            x       y       z     vdW  Elec       q    Type
REMARK                         _______ _______ _______ _____ _____    ______ ____
ROOT
ATOM      1  C   UNL     1       4.071   6.597  17.414  0.00  0.00    +0.000 A 
ATOM      2  C   UNL     1       3.528   7.843  17.599  0.00  0.00    +0.000 A 
ATOM      3  N   UNL     1       2.504   7.697  18.505  0.00  0.00    +0.000 N 
ATOM      4  N   UNL     1       2.401   6.413  18.934  0.00  0.00    +0.000 NA
ATOM      5  C   UNL     1       3.299   5.713  18.220  0.00  0.00    +0.000 A 
ENDROOT
BRANCH   3   6
ATOM      6  C   UNL     1       1.619   8.709  18.980  0.00  0.00    +0.000 A 
ATOM      7  C   UNL     1       1.130   9.704  18.119  0.00  0.00    +0.000 A 
ATOM      8  C   UNL     1       0.250  10.681  18.596  0.00  0.00    +0.000 A 
ATOM      9  C   UNL     1      -0.132  10.669  19.932  0.00  0.00    +0.000 A 
ATOM     10  C   UNL     1       0.346   9.694  20.799  0.00  0.00    +0.000 A 
ATOM     11  C   UNL     1       1.219   8.709  20.325  0.00  0.00    +0.000 A 
BRANCH   9  12
ATOM     12  O   UNL     1      -0.988  11.604  20.432  0.00  0.00    +0.000 OA
ATOM     13  H   UNL     1      -1.407  12.073  19.690  0.00  0.00    +0.000 HD
ENDBRANCH   9  12
ENDBRANCH   3   6
BRANCH   5  14
ATOM     14  C   UNL     1       3.385   4.249  18.327  0.00  0.00    +0.000 A 
ATOM     15  C   UNL     1       2.544   3.422  17.561  0.00  0.00    +0.000 A 
ATOM     16  C   UNL     1       2.593   2.031  17.683  0.00  0.00    +0.000 A 
ATOM     17  C   UNL     1       3.476   1.444  18.584  0.00  0.00    +0.000 A 
ATOM     18  C   UNL     1       4.308   2.256  19.349  0.00  0.00    +0.000 A 
ATOM     19  C   UNL     1       4.272   3.644  19.227  0.00  0.00    +0.000 A 
BRANCH  18  20
ATOM     20  O   UNL     1       5.178   1.714  20.249  0.00  0.00    +0.000 OA
ATOM     21  H   UNL     1       5.768   1.099  19.781  0.00  0.00    +0.000 HD
ENDBRANCH  18  20
ENDBRANCH   5  14
BRANCH   1  23
ATOM     22  C   UNL     1       5.295   5.189  15.863  0.00  0.00    +0.000 C 
ATOM     23  C   UNL     1       5.180   6.324  16.568  0.00  0.00    +0.000 C 
BRANCH  22  25
ATOM     24  O   UNL     1       7.498   5.599  15.046  0.00  0.00    +0.000 OA
ATOM     25  C   UNL     1       6.428   5.029  14.934  0.00  0.00    +0.000 C 
BRANCH  25  26
ATOM     26  O   UNL     1       6.141   4.178  13.930  0.00  0.00    +0.000 OA
ATOM     27  H   UNL     1       5.697   3.351  14.189  0.00  0.00    +0.000 HD
ENDBRANCH  25  26
ENDBRANCH  22  25
ENDBRANCH   1  23
TORSDOF 7
ENDMDL
MODEL 2
REMARK VINA RESULT:      -8.2      0.154      1.188
REMARK  Name = 
REMARK  7 active torsions:
REMARK  status: ('A' for Active; 'I' for Inactive)
REMARK    1  A    between atoms: C_2  and  O_3
REMARK    2  A    between atoms: C_2  and  C_4
REMARK    3  A    between atoms: C_5  and  C_6
REMARK    4  A    between atoms: N_8  and  C_9
REMARK    5  A    between atoms: C_12  and  O_13
REMARK    6  A    between atoms: C_17  and  C_18
REMARK    7  A    between atoms: C_22  and  O_23
REMARK                            x       y       z     vdW  Elec       q    Type
REMARK                         _______ _______ _______ _____ _____    ______ ____
ROOT
ATOM      1  C   UNL     1       4.049   6.593  17.499  0.00  0.00    +0.000 A 
ATOM      2  C   UNL     1       3.494   7.834  17.681  0.00  0.00    +0.000 A 
ATOM      3  N   UNL     1       2.450   7.673  18.562  0.00  0.00    +0.000 N 
ATOM      4  N   UNL     1       2.345   6.385  18.978  0.00  0.00    +0.000 NA
ATOM      5  C   UNL     1       3.265   5.698  18.279  0.00  0.00    +0.000 A 
ENDROOT
BRANCH   3   6
ATOM      6  C   UNL     1       1.547   8.675  19.024  0.00  0.00    +0.000 A 
ATOM      7  C   UNL     1       1.216   8.778  20.385  0.00  0.00    +0.000 A 
ATOM      8  C   UNL     1       0.341   9.776  20.826  0.00  0.00    +0.000 A 
ATOM      9  C   UNL     1      -0.209  10.663  19.908  0.00  0.00    +0.000 A 
ATOM     10  C   UNL     1       0.104  10.573  18.558  0.00  0.00    +0.000 A 
ATOM     11  C   UNL     1       0.986   9.582  18.112  0.00  0.00    +0.000 A 
BRANCH   9  12
ATOM     12  O   UNL     1      -1.064  11.649  20.302  0.00  0.00    +0.000 OA
ATOM     13  H   UNL     1      -0.776  12.489  19.908  0.00  0.00    +0.000 HD
ENDBRANCH   9  12
ENDBRANCH   3   6
BRANCH   5  14
ATOM     14  C   UNL     1       3.357   4.233  18.375  0.00  0.00    +0.000 A 
ATOM     15  C   UNL     1       2.516   3.408  17.610  0.00  0.00    +0.000 A 
ATOM     16  C   UNL     1       2.572   2.016  17.722  0.00  0.00    +0.000 A 
ATOM     17  C   UNL     1       3.463   1.427  18.614  0.00  0.00    +0.000 A 
ATOM     18  C   UNL     1       4.296   2.237  19.379  0.00  0.00    +0.000 A 
ATOM     19  C   UNL     1       4.254   3.626  19.266  0.00  0.00    +0.000 A 
BRANCH  18  20
ATOM     20  O   UNL     1       5.175   1.693  20.270  0.00  0.00    +0.000 OA
ATOM     21  H   UNL     1       5.349   2.342  20.972  0.00  0.00    +0.000 HD
ENDBRANCH  18  20
ENDBRANCH   5  14
BRANCH   1  23
ATOM     22  C   UNL     1       5.268   5.260  15.879  0.00  0.00    +0.000 C 
ATOM     23  C   UNL     1       5.179   6.334  16.677  0.00  0.00    +0.000 C 
BRANCH  22  25
ATOM     24  O   UNL     1       6.442   4.456  13.965  0.00  0.00    +0.000 OA
ATOM     25  C   UNL     1       6.432   5.119  14.986  0.00  0.00    +0.000 C 
BRANCH  25  26
ATOM     26  O   UNL     1       7.498   5.809  15.434  0.00  0.00    +0.000 OA
ATOM     27  H   UNL     1       7.582   5.879  16.401  0.00  0.00    +0.000 HD
ENDBRANCH  25  26
ENDBRANCH  22  25
ENDBRANCH   1  23
TORSDOF 7
ENDMDL
MODEL 3
REMARK VINA RESULT:      -8.1      1.239      1.630
REMARK  Name = 
REMARK  7 active torsions:
REMARK  status: ('A' for Active; 'I' for Inactive)
REMARK    1  A    between atoms: C_2  and  O_3
REMARK    2  A    between atoms: C_2  and  C_4
REMARK    3  A    between atoms: C_5  and  C_6
REMARK    4  A    between atoms: N_8  and  C_9
REMARK    5  A    between atoms: C_12  and  O_13
REMARK    6  A    between atoms: C_17  and  C_18
REMARK    7  A    between atoms: C_22  and  O_23
REMARK                            x       y       z     vdW  Elec       q    Type
REMARK                         _______ _______ _______ _____ _____    ______ ____
ROOT
ATOM      1  C   UNL     1       3.196   6.956  18.210  0.00  0.00    +0.000 A 
ATOM      2  C   UNL     1       2.678   8.141  18.669  0.00  0.00    +0.000 A 
ATOM      3  N   UNL     1       1.892   7.833  19.755  0.00  0.00    +0.000 N 
ATOM      4  N   UNL     1       1.923   6.503  20.028  0.00  0.00    +0.000 NA
ATOM      5  C   UNL     1       2.652   5.943  19.048  0.00  0.00    +0.000 A 
ENDROOT
BRANCH   3   6
ATOM      6  C   UNL     1       1.113   8.731  20.541  0.00  0.00    +0.000 A 
ATOM      7  C   UNL     1       0.353   9.747  19.938  0.00  0.00    +0.000 A 
ATOM      8  C   UNL     1      -0.418  10.612  20.722  0.00  0.00    +0.000 A 
ATOM      9  C   UNL     1      -0.422  10.467  22.104  0.00  0.00    +0.000 A 
ATOM     10  C   UNL     1       0.327   9.471  22.717  0.00  0.00    +0.000 A 
ATOM     11  C   UNL     1       1.093   8.598  21.938  0.00  0.00    +0.000 A 
BRANCH   9  12
ATOM     12  O   UNL     1      -1.163  11.291  22.899  0.00  0.00    +0.000 OA
ATOM     13  H   UNL     1      -0.993  12.212  22.640  0.00  0.00    +0.000 HD
ENDBRANCH   9  12
ENDBRANCH   3   6
BRANCH   5  14
ATOM     14  C   UNL     1       2.797   4.483  18.944  0.00  0.00    +0.000 A 
ATOM     15  C   UNL     1       1.813   3.706  18.309  0.00  0.00    +0.000 A 
ATOM     16  C   UNL     1       1.925   2.315  18.238  0.00  0.00    +0.000 A 
ATOM     17  C   UNL     1       3.018   1.676  18.815  0.00  0.00    +0.000 A 
ATOM     18  C   UNL     1       3.994   2.438  19.450  0.00  0.00    +0.000 A 
ATOM     19  C   UNL     1       3.895   3.827  19.517  0.00  0.00    +0.000 A 
BRANCH  18  20
ATOM     20  O   UNL     1       5.074   1.844  20.035  0.00  0.00    +0.000 OA
ATOM     21  H   UNL     1       4.759   1.155  20.645  0.00  0.00    +0.000 HD
ENDBRANCH  18  20
ENDBRANCH   5  14
BRANCH   1  23
ATOM     22  C   UNL     1       5.344   6.388  17.234  0.00  0.00    +0.000 C 
ATOM     23  C   UNL     1       4.089   6.846  17.110  0.00  0.00    +0.000 C 
BRANCH  22  25
ATOM     24  O   UNL     1       5.731   5.948  14.923  0.00  0.00    +0.000 OA
ATOM     25  C   UNL     1       6.170   6.213  16.027  0.00  0.00    +0.000 C 
BRANCH  25  26
ATOM     26  O   UNL     1       7.483   6.373  16.286  0.00  0.00    +0.000 OA
ATOM     27  H   UNL     1       7.787   6.045  17.151  0.00  0.00    +0.000 HD
ENDBRANCH  25  26
ENDBRANCH  22  25
ENDBRANCH   1  23
TORSDOF 7
ENDMDL
MODEL 4
REMARK VINA RESULT:      -8.0      1.330      1.892
REMARK  Name = 
REMARK  7 active torsions:
REMARK  status: ('A' for Active; 'I' for Inactive)
REMARK    1  A    between atoms: C_2  and  O_3
REMARK    2  A    between atoms: C_2  and  C_4
REMARK    3  A    between atoms: C_5  and  C_6
REMARK    4  A    between atoms: N_8  and  C_9
REMARK    5  A    between atoms: C_12  and  O_13
REMARK    6  A    between atoms: C_17  and  C_18
REMARK    7  A    between atoms: C_22  and  O_23
REMARK                            x       y       z     vdW  Elec       q    Type
REMARK                         _______ _______ _______ _____ _____    ______ ____
ROOT
ATOM      1  C   UNL     1       3.122   6.994  18.320  0.00  0.00    +0.000 A 
ATOM      2  C   UNL     1       2.610   8.179  18.781  0.00  0.00    +0.000 A 
ATOM      3  N   UNL     1       1.807   7.871  19.855  0.00  0.00    +0.000 N 
ATOM      4  N   UNL     1       1.822   6.539  20.118  0.00  0.00    +0.000 NA
ATOM      5  C   UNL     1       2.558   5.979  19.143  0.00  0.00    +0.000 A 
ENDROOT
BRANCH   3   6
ATOM      6  C   UNL     1       1.027   8.771  20.638  0.00  0.00    +0.000 A 
ATOM      7  C   UNL     1       0.984   8.660  22.038  0.00  0.00    +0.000 A 
ATOM      8  C   UNL     1       0.226   9.561  22.794  0.00  0.00    +0.000 A 
ATOM      9  C   UNL     1      -0.493  10.563  22.152  0.00  0.00    +0.000 A 
ATOM     10  C   UNL     1      -0.464  10.683  20.769  0.00  0.00    +0.000 A 
ATOM     11  C   UNL     1       0.299   9.792  20.008  0.00  0.00    +0.000 A 
BRANCH   9  12
ATOM     12  O   UNL     1      -1.241  11.459  22.857  0.00  0.00    +0.000 OA
ATOM     13  H   UNL     1      -0.815  12.330  22.807  0.00  0.00    +0.000 HD
ENDBRANCH   9  12
ENDBRANCH   3   6
BRANCH   5  14
ATOM     14  C   UNL     1       2.690   4.519  19.029  0.00  0.00    +0.000 A 
ATOM     15  C   UNL     1       1.659   3.745  18.469  0.00  0.00    +0.000 A 
ATOM     16  C   UNL     1       1.761   2.354  18.391  0.00  0.00    +0.000 A 
ATOM     17  C   UNL     1       2.891   1.711  18.885  0.00  0.00    +0.000 A 
ATOM     18  C   UNL     1       3.915   2.470  19.446  0.00  0.00    +0.000 A 
ATOM     19  C   UNL     1       3.826   3.859  19.519  0.00  0.00    +0.000 A 
BRANCH  18  20
ATOM     20  O   UNL     1       5.033   1.872  19.949  0.00  0.00    +0.000 OA
ATOM     21  H   UNL     1       4.928   0.908  19.883  0.00  0.00    +0.000 HD
ENDBRANCH  18  20
ENDBRANCH   5  14
BRANCH   1  23
ATOM     22  C   UNL     1       5.310   6.520  17.384  0.00  0.00    +0.000 C 
ATOM     23  C   UNL     1       4.028   6.884  17.230  0.00  0.00    +0.000 C 
BRANCH  22  25
ATOM     24  O   UNL     1       7.368   6.231  16.214  0.00  0.00    +0.000 OA
ATOM     25  C   UNL     1       6.155   6.334  16.191  0.00  0.00    +0.000 C 
BRANCH  25  26
ATOM     26  O   UNL     1       5.427   6.300  15.057  0.00  0.00    +0.000 OA
ATOM     27  H   UNL     1       5.935   6.336  14.227  0.00  0.00    +0.000 HD
ENDBRANCH  25  26
ENDBRANCH  22  25
ENDBRANCH   1  23
TORSDOF 7
ENDMDL
MODEL 5
REMARK VINA RESULT:      -7.7      1.476      1.964
REMARK  Name = 
REMARK  7 active torsions:
REMARK  status: ('A' for Active; 'I' for Inactive)
REMARK    1  A    between atoms: C_2  and  O_3
REMARK    2  A    between atoms: C_2  and  C_4
REMARK    3  A    between atoms: C_5  and  C_6
REMARK    4  A    between atoms: N_8  and  C_9
REMARK    5  A    between atoms: C_12  and  O_13
REMARK    6  A    between atoms: C_17  and  C_18
REMARK    7  A    between atoms: C_22  and  O_23
REMARK                            x       y       z     vdW  Elec       q    Type
REMARK                         _______ _______ _______ _____ _____    ______ ____
ROOT
ATOM      1  C   UNL     1       3.386   6.651  18.150  0.00  0.00    +0.000 A 
ATOM      2  C   UNL     1       2.914   7.924  17.959  0.00  0.00    +0.000 A 
ATOM      3  N   UNL     1       2.075   8.196  19.015  0.00  0.00    +0.000 N 
ATOM      4  N   UNL     1       2.028   7.160  19.890  0.00  0.00    +0.000 NA
ATOM      5  C   UNL     1       2.762   6.178  19.339  0.00  0.00    +0.000 A 
ENDROOT
BRANCH   3   6
ATOM      6  C   UNL     1       1.316   9.383  19.232  0.00  0.00    +0.000 A 
ATOM      7  C   UNL     1       0.373   9.458  20.271  0.00  0.00    +0.000 A 
ATOM      8  C   UNL     1      -0.353  10.635  20.482  0.00  0.00    +0.000 A 
ATOM      9  C   UNL     1      -0.144  11.730  19.651  0.00  0.00    +0.000 A 
ATOM     10  C   UNL     1       0.782  11.671  18.617  0.00  0.00    +0.000 A 
ATOM     11  C   UNL     1       1.517  10.500  18.407  0.00  0.00    +0.000 A 
BRANCH   9  12
ATOM     12  O   UNL     1      -0.832  12.893  19.827  0.00  0.00    +0.000 OA
ATOM     13  H   UNL     1      -0.254  13.534  20.275  0.00  0.00    +0.000 HD
ENDBRANCH   9  12
ENDBRANCH   3   6
BRANCH   5  14
ATOM     14  C   UNL     1       2.836   4.844  19.952  0.00  0.00    +0.000 A 
ATOM     15  C   UNL     1       1.909   4.451  20.933  0.00  0.00    +0.000 A 
ATOM     16  C   UNL     1       1.994   3.199  21.548  0.00  0.00    +0.000 A 
ATOM     17  C   UNL     1       3.017   2.323  21.200  0.00  0.00    +0.000 A 
ATOM     18  C   UNL     1       3.941   2.706  20.232  0.00  0.00    +0.000 A 
ATOM     19  C   UNL     1       3.858   3.949  19.607  0.00  0.00    +0.000 A 
BRANCH  18  20
ATOM     20  O   UNL     1       4.963   1.875  19.874  0.00  0.00    +0.000 OA
ATOM     21  H   UNL     1       4.863   1.646  18.934  0.00  0.00    +0.000 HD
ENDBRANCH  18  20
ENDBRANCH   5  14
BRANCH   1  23
ATOM     22  C   UNL     1       5.638   6.171  17.384  0.00  0.00    +0.000 C 
ATOM     23  C   UNL     1       4.311   6.002  17.287  0.00  0.00    +0.000 C 
BRANCH  22  25
ATOM     24  O   UNL     1       7.307   5.864  15.709  0.00  0.00    +0.000 OA
ATOM     25  C   UNL     1       6.530   5.384  16.514  0.00  0.00    +0.000 C 
BRANCH  25  26
ATOM     26  O   UNL     1       6.383   4.059  16.707  0.00  0.00    +0.000 OA
ATOM     27  H   UNL     1       7.208   3.547  16.776  0.00  0.00    +0.000 HD
ENDBRANCH  25  26
ENDBRANCH  22  25
ENDBRANCH   1  23
TORSDOF 7
ENDMDL
MODEL 6
REMARK VINA RESULT:      -7.7      1.982      2.432
REMARK  Name = 
REMARK  7 active torsions:
REMARK  status: ('A' for Active; 'I' for Inactive)
REMARK    1  A    between atoms: C_2  and  O_3
REMARK    2  A    between atoms: C_2  and  C_4
REMARK    3  A    between atoms: C_5  and  C_6
REMARK    4  A    between atoms: N_8  and  C_9
REMARK    5  A    between atoms: C_12  and  O_13
REMARK    6  A    between atoms: C_17  and  C_18
REMARK    7  A    between atoms: C_22  and  O_23
REMARK                            x       y       z     vdW  Elec       q    Type
REMARK                         _______ _______ _______ _____ _____    ______ ____
ROOT
ATOM      1  C   UNL     1       2.470   7.395  18.711  0.00  0.00    +0.000 A 
ATOM      2  C   UNL     1       2.052   8.643  19.097  0.00  0.00    +0.000 A 
ATOM      3  N   UNL     1       1.363   8.481  20.277  0.00  0.00    +0.000 N 
ATOM      4  N   UNL     1       1.361   7.183  20.675  0.00  0.00    +0.000 NA
ATOM      5  C   UNL     1       1.965   6.495  19.691  0.00  0.00    +0.000 A 
ENDROOT
BRANCH   3   6
ATOM      6  C   UNL     1       0.706   9.489  21.040  0.00  0.00    +0.000 A 
ATOM      7  C   UNL     1       0.651  10.818  20.587  0.00  0.00    +0.000 A 
ATOM      8  C   UNL     1      -0.012  11.794  21.340  0.00  0.00    +0.000 A 
ATOM      9  C   UNL     1      -0.609  11.444  22.545  0.00  0.00    +0.000 A 
ATOM     10  C   UNL     1      -0.560  10.136  23.010  0.00  0.00    +0.000 A 
ATOM     11  C   UNL     1       0.093   9.154  22.257  0.00  0.00    +0.000 A 
BRANCH   9  12
ATOM     12  O   UNL     1      -1.263  12.368  23.304  0.00  0.00    +0.000 OA
ATOM     13  H   UNL     1      -2.069  11.962  23.666  0.00  0.00    +0.000 HD
ENDBRANCH   9  12
ENDBRANCH   3   6
BRANCH   5  14
ATOM     14  C   UNL     1       2.034   5.026  19.718  0.00  0.00    +0.000 A 
ATOM     15  C   UNL     1       1.667   4.269  18.593  0.00  0.00    +0.000 A 
ATOM     16  C   UNL     1       1.695   2.872  18.622  0.00  0.00    +0.000 A 
ATOM     17  C   UNL     1       2.077   2.209  19.783  0.00  0.00    +0.000 A 
ATOM     18  C   UNL     1       2.438   2.952  20.904  0.00  0.00    +0.000 A 
ATOM     19  C   UNL     1       2.422   4.346  20.881  0.00  0.00    +0.000 A 
BRANCH  18  20
ATOM     20  O   UNL     1       2.809   2.334  22.062  0.00  0.00    +0.000 OA
ATOM     21  H   UNL     1       2.259   2.676  22.788  0.00  0.00    +0.000 HD
ENDBRANCH  18  20
ENDBRANCH   5  14
BRANCH   1  23
ATOM     22  C   UNL     1       4.509   6.688  17.602  0.00  0.00    +0.000 C 
ATOM     23  C   UNL     1       3.245   7.135  17.549  0.00  0.00    +0.000 C 
BRANCH  22  25
ATOM     24  O   UNL     1       5.039   6.923  15.289  0.00  0.00    +0.000 OA
ATOM     25  C   UNL     1       5.207   6.350  16.350  0.00  0.00    +0.000 C 
BRANCH  25  26
ATOM     26  O   UNL     1       6.058   5.318  16.509  0.00  0.00    +0.000 OA
ATOM     27  H   UNL     1       5.659   4.483  16.813  0.00  0.00    +0.000 HD
ENDBRANCH  25  26
ENDBRANCH  22  25
ENDBRANCH   1  23
TORSDOF 7
ENDMDL
MODEL 7
REMARK VINA RESULT:      -7.7      1.755      2.224
REMARK  Name = 
REMARK  7 active torsions:
REMARK  status: ('A' for Active; 'I' for Inactive)
REMARK    1  A    between atoms: C_2  and  O_3
REMARK    2  A    between atoms: C_2  and  C_4
REMARK    3  A    between atoms: C_5  and  C_6
REMARK    4  A    between atoms: N_8  and  C_9
REMARK    5  A    between atoms: C_12  and  O_13
REMARK    6  A    between atoms: C_17  and  C_18
REMARK    7  A    between atoms: C_22  and  O_23
REMARK                            x       y       z     vdW  Elec       q    Type
REMARK                         _______ _______ _______ _____ _____    ______ ____
ROOT
ATOM      1  C   UNL     1       3.049   7.029  18.409  0.00  0.00    +0.000 A 
ATOM      2  C   UNL     1       2.574   8.235  18.859  0.00  0.00    +0.000 A 
ATOM      3  N   UNL     1       1.765   7.962  19.938  0.00  0.00    +0.000 N 
ATOM      4  N   UNL     1       1.741   6.634  20.216  0.00  0.00    +0.000 NA
ATOM      5  C   UNL     1       2.457   6.041  19.245  0.00  0.00    +0.000 A 
ENDROOT
BRANCH   3   6
ATOM      6  C   UNL     1       1.015   8.894  20.713  0.00  0.00    +0.000 A 
ATOM      7  C   UNL     1       0.392  10.000  20.111  0.00  0.00    +0.000 A 
ATOM      8  C   UNL     1      -0.354  10.897  20.883  0.00  0.00    +0.000 A 
ATOM      9  C   UNL     1      -0.468  10.694  22.253  0.00  0.00    +0.000 A 
ATOM     10  C   UNL     1       0.145   9.609  22.865  0.00  0.00    +0.000 A 
ATOM     11  C   UNL     1       0.884   8.703  22.098  0.00  0.00    +0.000 A 
BRANCH   9  12
ATOM     12  O   UNL     1      -1.188  11.548  23.036  0.00  0.00    +0.000 OA
ATOM     13  H   UNL     1      -0.575  12.158  23.479  0.00  0.00    +0.000 HD
ENDBRANCH   9  12
ENDBRANCH   3   6
BRANCH   5  14
ATOM     14  C   UNL     1       2.546   4.577  19.148  0.00  0.00    +0.000 A 
ATOM     15  C   UNL     1       3.772   3.916  19.338  0.00  0.00    +0.000 A 
ATOM     16  C   UNL     1       3.872   2.528  19.211  0.00  0.00    +0.000 A 
ATOM     17  C   UNL     1       2.749   1.778  18.878  0.00  0.00    +0.000 A 
ATOM     18  C   UNL     1       1.532   2.426  18.684  0.00  0.00    +0.000 A 
ATOM     19  C   UNL     1       1.421   3.809  18.818  0.00  0.00    +0.000 A 
BRANCH  18  20
ATOM     20  O   UNL     1       0.412   1.722  18.347  0.00  0.00    +0.000 OA
ATOM     21  H   UNL     1       0.458   0.845  18.764  0.00  0.00    +0.000 HD
ENDBRANCH  18  20
ENDBRANCH   5  14
BRANCH   1  23
ATOM     22  C   UNL     1       5.248   6.595  17.481  0.00  0.00    +0.000 C 
ATOM     23  C   UNL     1       3.948   6.880  17.318  0.00  0.00    +0.000 C 
BRANCH  22  25
ATOM     24  O   UNL     1       7.297   6.216  16.322  0.00  0.00    +0.000 OA
ATOM     25  C   UNL     1       6.089   6.359  16.294  0.00  0.00    +0.000 C 
BRANCH  25  26
ATOM     26  O   UNL     1       5.363   6.327  15.159  0.00  0.00    +0.000 OA
ATOM     27  H   UNL     1       5.585   7.003  14.495  0.00  0.00    +0.000 HD
ENDBRANCH  25  26
ENDBRANCH  22  25
ENDBRANCH   1  23
TORSDOF 7
ENDMDL
MODEL 8
REMARK VINA RESULT:      -7.6      2.069      4.407
REMARK  Name = 
REMARK  7 active torsions:
REMARK  status: ('A' for Active; 'I' for Inactive)
REMARK    1  A    between atoms: C_2  and  O_3
REMARK    2  A    between atoms: C_2  and  C_4
REMARK    3  A    between atoms: C_5  and  C_6
REMARK    4  A    between atoms: N_8  and  C_9
REMARK    5  A    between atoms: C_12  and  O_13
REMARK    6  A    between atoms: C_17  and  C_18
REMARK    7  A    between atoms: C_22  and  O_23
REMARK                            x       y       z     vdW  Elec       q    Type
REMARK                         _______ _______ _______ _____ _____    ______ ____
ROOT
ATOM      1  C   UNL     1       2.431   6.663  19.566  0.00  0.00    +0.000 A 
ATOM      2  C   UNL     1       1.680   7.763  19.895  0.00  0.00    +0.000 A 
ATOM      3  N   UNL     1       1.832   8.666  18.868  0.00  0.00    +0.000 N 
ATOM      4  N   UNL     1       2.619   8.167  17.881  0.00  0.00    +0.000 NA
ATOM      5  C   UNL     1       3.057   6.976  18.326  0.00  0.00    +0.000 A 
ENDROOT
BRANCH   3   6
ATOM      6  C   UNL     1       1.274   9.974  18.778  0.00  0.00    +0.000 A 
ATOM      7  C   UNL     1      -0.086  10.201  19.049  0.00  0.00    +0.000 A 
ATOM      8  C   UNL     1      -0.615  11.493  18.972  0.00  0.00    +0.000 A 
ATOM      9  C   UNL     1       0.209  12.554  18.616  0.00  0.00    +0.000 A 
ATOM     10  C   UNL     1       1.555  12.347  18.340  0.00  0.00    +0.000 A 
ATOM     11  C   UNL     1       2.092  11.058  18.425  0.00  0.00    +0.000 A 
BRANCH   9  12
ATOM     12  O   UNL     1      -0.272  13.827  18.532  0.00  0.00    +0.000 OA
ATOM     13  H   UNL     1      -0.768  14.028  19.343  0.00  0.00    +0.000 HD
ENDBRANCH   9  12
ENDBRANCH   3   6
BRANCH   5  14
ATOM     14  C   UNL     1       4.044   6.194  17.568  0.00  0.00    +0.000 A 
ATOM     15  C   UNL     1       3.770   4.871  17.180  0.00  0.00    +0.000 A 
ATOM     16  C   UNL     1       4.717   4.108  16.491  0.00  0.00    +0.000 A 
ATOM     17  C   UNL     1       5.961   4.653  16.190  0.00  0.00    +0.000 A 
ATOM     18  C   UNL     1       6.242   5.961  16.575  0.00  0.00    +0.000 A 
ATOM     19  C   UNL     1       5.300   6.732  17.254  0.00  0.00    +0.000 A 
BRANCH  18  20
ATOM     20  O   UNL     1       7.455   6.524  16.304  0.00  0.00    +0.000 OA
ATOM     21  H   UNL     1       7.666   7.163  17.005  0.00  0.00    +0.000 HD
ENDBRANCH  18  20
ENDBRANCH   5  14
BRANCH   1  23
ATOM     22  C   UNL     1       1.571   4.538  20.360  0.00  0.00    +0.000 C 
ATOM     23  C   UNL     1       2.519   5.487  20.359  0.00  0.00    +0.000 C 
BRANCH  22  25
ATOM     24  O   UNL     1       2.190   3.273  22.284  0.00  0.00    +0.000 OA
ATOM     25  C   UNL     1       1.787   3.304  21.136  0.00  0.00    +0.000 C 
BRANCH  25  26
ATOM     26  O   UNL     1       1.492   2.201  20.421  0.00  0.00    +0.000 OA
ATOM     27  H   UNL     1       0.947   1.535  20.876  0.00  0.00    +0.000 HD
ENDBRANCH  25  26
ENDBRANCH  22  25
ENDBRANCH   1  23
TORSDOF 7
ENDMDL
MODEL 9
REMARK VINA RESULT:      -7.6      1.970      2.186
REMARK  Name = 
REMARK  7 active torsions:
REMARK  status: ('A' for Active; 'I' for Inactive)
REMARK    1  A    between atoms: C_2  and  O_3
REMARK    2  A    between atoms: C_2  and  C_4
REMARK    3  A    between atoms: C_5  and  C_6
REMARK    4  A    between atoms: N_8  and  C_9
REMARK    5  A    between atoms: C_12  and  O_13
REMARK    6  A    between atoms: C_17  and  C_18
REMARK    7  A    between atoms: C_22  and  O_23
REMARK                            x       y       z     vdW  Elec       q    Type
REMARK                         _______ _______ _______ _____ _____    ______ ____
ROOT
ATOM      1  C   UNL     1       3.395   7.166  17.725  0.00  0.00    +0.000 A 
ATOM      2  C   UNL     1       3.099   8.492  17.537  0.00  0.00    +0.000 A 
ATOM      3  N   UNL     1       1.999   8.764  18.316  0.00  0.00    +0.000 N 
ATOM      4  N   UNL     1       1.610   7.673  19.023  0.00  0.00    +0.000 NA
ATOM      5  C   UNL     1       2.403   6.668  18.615  0.00  0.00    +0.000 A 
ENDROOT
BRANCH   3   6
ATOM      6  C   UNL     1       1.299  10.002  18.421  0.00  0.00    +0.000 A 
ATOM      7  C   UNL     1       1.993  11.220  18.505  0.00  0.00    +0.000 A 
ATOM      8  C   UNL     1       1.292  12.428  18.592  0.00  0.00    +0.000 A 
ATOM      9  C   UNL     1      -0.098  12.416  18.604  0.00  0.00    +0.000 A 
ATOM     10  C   UNL     1      -0.799  11.220  18.526  0.00  0.00    +0.000 A 
ATOM     11  C   UNL     1      -0.104  10.010  18.430  0.00  0.00    +0.000 A 
BRANCH   9  12
ATOM     12  O   UNL     1      -0.814  13.573  18.686  0.00  0.00    +0.000 OA
ATOM     13  H   UNL     1      -1.671  13.382  19.103  0.00  0.00    +0.000 HD
ENDBRANCH   9  12
ENDBRANCH   3   6
BRANCH   5  14
ATOM     14  C   UNL     1       2.187   5.289  19.078  0.00  0.00    +0.000 A 
ATOM     15  C   UNL     1       1.768   4.288  18.185  0.00  0.00    +0.000 A 
ATOM     16  C   UNL     1       1.524   2.983  18.623  0.00  0.00    +0.000 A 
ATOM     17  C   UNL     1       1.683   2.662  19.968  0.00  0.00    +0.000 A 
ATOM     18  C   UNL     1       2.094   3.649  20.859  0.00  0.00    +0.000 A 
ATOM     19  C   UNL     1       2.348   4.950  20.429  0.00  0.00    +0.000 A 
BRANCH  18  20
ATOM     20  O   UNL     1       2.251   3.370  22.186  0.00  0.00    +0.000 OA
ATOM     21  H   UNL     1       2.737   2.533  22.273  0.00  0.00    +0.000 HD
ENDBRANCH  18  20
ENDBRANCH   5  14
BRANCH   1  23
ATOM     22  C   UNL     1       5.656   6.285  17.743  0.00  0.00    +0.000 C 
ATOM     23  C   UNL     1       4.490   6.496  17.114  0.00  0.00    +0.000 C 
BRANCH  22  25
ATOM     24  O   UNL     1       7.448   5.926  16.211  0.00  0.00    +0.000 OA
ATOM     25  C   UNL     1       6.704   5.495  17.072  0.00  0.00    +0.000 C 
BRANCH  25  26
ATOM     26  O   UNL     1       6.742   4.224  17.519  0.00  0.00    +0.000 OA
ATOM     27  H   UNL     1       7.439   3.662  17.137  0.00  0.00    +0.000 HD
ENDBRANCH  25  26
ENDBRANCH  22  25
ENDBRANCH   1  23
TORSDOF 7
ENDMDL
