MODEL 1
REMARK VINA RESULT:      -6.7      0.000      0.000
REMARK  Name = 
REMARK  4 active torsions:
REMARK  status: ('A' for Active; 'I' for Inactive)
REMARK    1  A    between atoms: C_1  and  C_2
REMARK    2  A    between atoms: C_2  and  O_3
REMARK    3  A    between atoms: C_16  and  C_17
REMARK    4  A    between atoms: C_22  and  C_23
REMARK                            x       y       z     vdW  Elec       q    Type
REMARK                         _______ _______ _______ _____ _____    ______ ____
ROOT
ATOM      1  C   UNL     1       8.407  12.628  17.457  0.00  0.00    +0.000 C 
ATOM      2  C   UNL     1       9.604  12.252  18.340  0.00  0.00    +0.000 C 
ATOM      3  C   UNL     1       9.382  10.783  18.828  0.00  0.00    +0.000 C 
ATOM      4  C   UNL     1       9.586  10.823  20.332  0.00  0.00    +0.000 C 
ATOM      5  C   UNL     1       9.040  12.211  20.649  0.00  0.00    +0.000 C 
ATOM      6  C   UNL     1       9.044  12.643  22.106  0.00  0.00    +0.000 C 
ATOM      7  C   UNL     1       8.233  11.633  22.909  0.00  0.00    +0.000 C 
ATOM      8  C   UNL     1       8.384  11.946  24.376  0.00  0.00    +0.000 C 
ATOM      9  C   UNL     1       7.667  13.238  24.629  0.00  0.00    +0.000 C 
ATOM     10  C   UNL     1       6.651  13.172  25.506  0.00  0.00    +0.000 C 
ATOM     11  C   UNL     1       5.732  14.301  25.695  0.00  0.00    +0.000 C 
ATOM     12  O   UNL     1       4.755  14.161  26.423  0.00  0.00    +0.000 OA
ATOM     13  C   UNL     1       6.088  15.604  25.051  0.00  0.00    +0.000 C 
ATOM     14  C   UNL     1       6.710  15.352  23.682  0.00  0.00    +0.000 C 
ATOM     15  C   UNL     1       7.999  14.463  23.721  0.00  0.00    +0.000 C 
ATOM     16  C   UNL     1       9.140  15.302  24.341  0.00  0.00    +0.000 C 
ATOM     17  C   UNL     1       8.443  14.034  22.263  0.00  0.00    +0.000 C 
ATOM     18  O   UNL     1       7.456  14.421  21.297  0.00  0.00    +0.000 OA
ATOM     19  C   UNL     1       8.752  15.004  21.076  0.00  0.00    +0.000 C 
ATOM     20  C   UNL     1       9.244  14.563  19.697  0.00  0.00    +0.000 C 
ATOM     21  C   UNL     1       9.809  13.116  19.664  0.00  0.00    +0.000 C 
ATOM     22  C   UNL     1      11.322  13.265  20.014  0.00  0.00    +0.000 C 
ENDROOT
BRANCH   2  23
ATOM     23  O   UNL     1      10.765  12.282  17.513  0.00  0.00    +0.000 OA
ATOM     24  H   UNL     1      11.022  11.358  17.337  0.00  0.00    +0.000 HD
ENDBRANCH   2  23
TORSDOF 1
ENDMDL
MODEL 2
REMARK VINA RESULT:      -6.4      8.220     10.875
REMARK  Name = 
REMARK  4 active torsions:
REMARK  status: ('A' for Active; 'I' for Inactive)
REMARK    1  A    between atoms: C_1  and  C_2
REMARK    2  A    between atoms: C_2  and  O_3
REMARK    3  A    between atoms: C_16  and  C_17
REMARK    4  A    between atoms: C_22  and  C_23
REMARK                            x       y       z     vdW  Elec       q    Type
REMARK                         _______ _______ _______ _____ _____    ______ ____
ROOT
ATOM      1  C   UNL     1       0.753   4.145  20.450  0.00  0.00    +0.000 C 
ATOM      2  C   UNL     1       1.592   3.107  19.694  0.00  0.00    +0.000 C 
ATOM      3  C   UNL     1       2.573   2.458  20.726  0.00  0.00    +0.000 C 
ATOM      4  C   UNL     1       3.946   2.537  20.082  0.00  0.00    +0.000 C 
ATOM      5  C   UNL     1       3.819   3.852  19.320  0.00  0.00    +0.000 C 
ATOM      6  C   UNL     1       5.033   4.318  18.534  0.00  0.00    +0.000 C 
ATOM      7  C   UNL     1       6.207   4.453  19.496  0.00  0.00    +0.000 C 
ATOM      8  C   UNL     1       7.456   4.734  18.701  0.00  0.00    +0.000 C 
ATOM      9  C   UNL     1       7.319   6.115  18.134  0.00  0.00    +0.000 C 
ATOM     10  C   UNL     1       8.258   6.995  18.522  0.00  0.00    +0.000 C 
ATOM     11  C   UNL     1       8.137   8.425  18.217  0.00  0.00    +0.000 C 
ATOM     12  O   UNL     1       8.957   9.207  18.683  0.00  0.00    +0.000 OA
ATOM     13  C   UNL     1       7.055   8.847  17.273  0.00  0.00    +0.000 C 
ATOM     14  C   UNL     1       5.802   8.012  17.516  0.00  0.00    +0.000 C 
ATOM     15  C   UNL     1       6.019   6.470  17.346  0.00  0.00    +0.000 C 
ATOM     16  C   UNL     1       6.203   6.176  15.839  0.00  0.00    +0.000 C 
ATOM     17  C   UNL     1       4.761   5.655  17.855  0.00  0.00    +0.000 C 
ATOM     18  O   UNL     1       3.820   6.524  18.499  0.00  0.00    +0.000 OA
ATOM     19  C   UNL     1       3.290   5.834  17.355  0.00  0.00    +0.000 C 
ATOM     20  C   UNL     1       2.105   4.984  17.817  0.00  0.00    +0.000 C 
ATOM     21  C   UNL     1       2.514   3.659  18.517  0.00  0.00    +0.000 C 
ATOM     22  C   UNL     1       2.647   2.617  17.364  0.00  0.00    +0.000 C 
ENDROOT
BRANCH   2  23
ATOM     23  O   UNL     1       0.699   2.099  19.226  0.00  0.00    +0.000 OA
ATOM     24  H   UNL     1       1.084   1.235  19.460  0.00  0.00    +0.000 HD
ENDBRANCH   2  23
TORSDOF 1
ENDMDL
MODEL 3
REMARK VINA RESULT:      -6.0      8.420     10.557
REMARK  Name = 
REMARK  4 active torsions:
REMARK  status: ('A' for Active; 'I' for Inactive)
REMARK    1  A    between atoms: C_1  and  C_2
REMARK    2  A    between atoms: C_2  and  O_3
REMARK    3  A    between atoms: C_16  and  C_17
REMARK    4  A    between atoms: C_22  and  C_23
REMARK                            x       y       z     vdW  Elec       q    Type
REMARK                         _______ _______ _______ _____ _____    ______ ____
ROOT
ATOM      1  C   UNL     1       1.822  12.450  19.685  0.00  0.00    +0.000 C 
ATOM      2  C   UNL     1       0.558  11.607  19.899  0.00  0.00    +0.000 C 
ATOM      3  C   UNL     1       0.499  11.232  21.417  0.00  0.00    +0.000 C 
ATOM      4  C   UNL     1       0.274   9.731  21.452  0.00  0.00    +0.000 C 
ATOM      5  C   UNL     1       1.058   9.304  20.215  0.00  0.00    +0.000 C 
ATOM      6  C   UNL     1       1.102   7.818  19.900  0.00  0.00    +0.000 C 
ATOM      7  C   UNL     1       1.699   7.089  21.098  0.00  0.00    +0.000 C 
ATOM      8  C   UNL     1       1.576   5.604  20.872  0.00  0.00    +0.000 C 
ATOM      9  C   UNL     1       2.512   5.247  19.756  0.00  0.00    +0.000 C 
ATOM     10  C   UNL     1       3.481   4.371  20.072  0.00  0.00    +0.000 C 
ATOM     11  C   UNL     1       4.585   4.090  19.148  0.00  0.00    +0.000 C 
ATOM     12  O   UNL     1       5.505   3.369  19.517  0.00  0.00    +0.000 OA
ATOM     13  C   UNL     1       4.486   4.634  17.757  0.00  0.00    +0.000 C 
ATOM     14  C   UNL     1       3.856   6.022  17.788  0.00  0.00    +0.000 C 
ATOM     15  C   UNL     1       2.427   6.061  18.426  0.00  0.00    +0.000 C 
ATOM     16  C   UNL     1       1.445   5.385  17.441  0.00  0.00    +0.000 C 
ATOM     17  C   UNL     1       1.942   7.550  18.657  0.00  0.00    +0.000 C 
ATOM     18  O   UNL     1       3.003   8.477  18.386  0.00  0.00    +0.000 OA
ATOM     19  C   UNL     1       1.841   8.661  17.561  0.00  0.00    +0.000 C 
ATOM     20  C   UNL     1       1.304  10.073  17.801  0.00  0.00    +0.000 C 
ATOM     21  C   UNL     1       0.486  10.222  19.113  0.00  0.00    +0.000 C 
ATOM     22  C   UNL     1      -0.981   9.872  18.717  0.00  0.00    +0.000 C 
ENDROOT
BRANCH   2  23
ATOM     23  O   UNL     1      -0.561  12.436  19.596  0.00  0.00    +0.000 OA
ATOM     24  H   UNL     1      -1.298  11.851  19.342  0.00  0.00    +0.000 HD
ENDBRANCH   2  23
TORSDOF 1
ENDMDL
MODEL 4
REMARK VINA RESULT:      -6.0     10.480     13.196
REMARK  Name = 
REMARK  4 active torsions:
REMARK  status: ('A' for Active; 'I' for Inactive)
REMARK    1  A    between atoms: C_1  and  C_2
REMARK    2  A    between atoms: C_2  and  O_3
REMARK    3  A    between atoms: C_16  and  C_17
REMARK    4  A    between atoms: C_22  and  C_23
REMARK                            x       y       z     vdW  Elec       q    Type
REMARK                         _______ _______ _______ _____ _____    ______ ____
ROOT
ATOM      1  C   UNL     1      -7.544  12.984  23.839  0.00  0.00    +0.000 C 
ATOM      2  C   UNL     1      -6.986  14.072  22.913  0.00  0.00    +0.000 C 
ATOM      3  C   UNL     1      -7.407  13.702  21.452  0.00  0.00    +0.000 C 
ATOM      4  C   UNL     1      -6.131  13.780  20.633  0.00  0.00    +0.000 C 
ATOM      5  C   UNL     1      -5.111  13.311  21.664  0.00  0.00    +0.000 C 
ATOM      6  C   UNL     1      -3.661  13.222  21.217  0.00  0.00    +0.000 C 
ATOM      7  C   UNL     1      -3.583  12.274  20.025  0.00  0.00    +0.000 C 
ATOM      8  C   UNL     1      -2.187  12.323  19.458  0.00  0.00    +0.000 C 
ATOM      9  C   UNL     1      -1.279  11.682  20.464  0.00  0.00    +0.000 C 
ATOM     10  C   UNL     1      -0.619  10.593  20.035  0.00  0.00    +0.000 C 
ATOM     11  C   UNL     1       0.140   9.745  20.963  0.00  0.00    +0.000 C 
ATOM     12  O   UNL     1       0.636   8.703  20.551  0.00  0.00    +0.000 OA
ATOM     13  C   UNL     1       0.344  10.248  22.358  0.00  0.00    +0.000 C 
ATOM     14  C   UNL     1      -0.914  10.965  22.838  0.00  0.00    +0.000 C 
ATOM     15  C   UNL     1      -1.338  12.178  21.943  0.00  0.00    +0.000 C 
ATOM     16  C   UNL     1      -0.321  13.320  22.171  0.00  0.00    +0.000 C 
ATOM     17  C   UNL     1      -2.773  12.713  22.345  0.00  0.00    +0.000 C 
ATOM     18  O   UNL     1      -3.388  11.842  23.305  0.00  0.00    +0.000 OA
ATOM     19  C   UNL     1      -3.207  13.191  23.769  0.00  0.00    +0.000 C 
ATOM     20  C   UNL     1      -4.582  13.766  24.112  0.00  0.00    +0.000 C 
ATOM     21  C   UNL     1      -5.400  14.225  22.874  0.00  0.00    +0.000 C 
ATOM     22  C   UNL     1      -4.980  15.710  22.641  0.00  0.00    +0.000 C 
ENDROOT
BRANCH   2  23
ATOM     23  O   UNL     1      -7.619  15.298  23.268  0.00  0.00    +0.000 OA
ATOM     24  H   UNL     1      -8.537  15.259  22.941  0.00  0.00    +0.000 HD
ENDBRANCH   2  23
TORSDOF 1
ENDMDL
MODEL 5
REMARK VINA RESULT:      -5.9      2.121      3.507
REMARK  Name = 
REMARK  4 active torsions:
REMARK  status: ('A' for Active; 'I' for Inactive)
REMARK    1  A    between atoms: C_1  and  C_2
REMARK    2  A    between atoms: C_2  and  O_3
REMARK    3  A    between atoms: C_16  and  C_17
REMARK    4  A    between atoms: C_22  and  C_23
REMARK                            x       y       z     vdW  Elec       q    Type
REMARK                         _______ _______ _______ _____ _____    ______ ____
ROOT
ATOM      1  C   UNL     1      12.054  13.458  17.111  0.00  0.00    +0.000 C 
ATOM      2  C   UNL     1      11.367  14.813  17.328  0.00  0.00    +0.000 C 
ATOM      3  C   UNL     1      12.333  15.694  18.187  0.00  0.00    +0.000 C 
ATOM      4  C   UNL     1      11.484  16.230  19.326  0.00  0.00    +0.000 C 
ATOM      5  C   UNL     1      10.538  15.054  19.543  0.00  0.00    +0.000 C 
ATOM      6  C   UNL     1       9.508  15.186  20.653  0.00  0.00    +0.000 C 
ATOM      7  C   UNL     1      10.244  15.436  21.964  0.00  0.00    +0.000 C 
ATOM      8  C   UNL     1       9.231  15.753  23.035  0.00  0.00    +0.000 C 
ATOM      9  C   UNL     1       8.466  14.494  23.308  0.00  0.00    +0.000 C 
ATOM     10  C   UNL     1       8.551  14.026  24.565  0.00  0.00    +0.000 C 
ATOM     11  C   UNL     1       8.029  12.702  24.924  0.00  0.00    +0.000 C 
ATOM     12  O   UNL     1       8.224  12.269  26.053  0.00  0.00    +0.000 OA
ATOM     13  C   UNL     1       7.203  11.980  23.906  0.00  0.00    +0.000 C 
ATOM     14  C   UNL     1       7.772  12.220  22.512  0.00  0.00    +0.000 C 
ATOM     15  C   UNL     1       7.836  13.730  22.101  0.00  0.00    +0.000 C 
ATOM     16  C   UNL     1       6.391  14.218  21.846  0.00  0.00    +0.000 C 
ATOM     17  C   UNL     1       8.661  13.925  20.763  0.00  0.00    +0.000 C 
ATOM     18  O   UNL     1       9.284  12.695  20.368  0.00  0.00    +0.000 OA
ATOM     19  C   UNL     1       8.368  13.226  19.395  0.00  0.00    +0.000 C 
ATOM     20  C   UNL     1       9.143  13.486  18.103  0.00  0.00    +0.000 C 
ATOM     21  C   UNL     1       9.987  14.789  18.125  0.00  0.00    +0.000 C 
ATOM     22  C   UNL     1       9.022  15.905  17.619  0.00  0.00    +0.000 C 
ENDROOT
BRANCH   2  23
ATOM     23  O   UNL     1      11.219  15.423  16.048  0.00  0.00    +0.000 OA
ATOM     24  H   UNL     1      10.704  16.241  16.172  0.00  0.00    +0.000 HD
ENDBRANCH   2  23
TORSDOF 1
ENDMDL
MODEL 6
REMARK VINA RESULT:      -5.9     11.362     13.343
REMARK  Name = 
REMARK  4 active torsions:
REMARK  status: ('A' for Active; 'I' for Inactive)
REMARK    1  A    between atoms: C_1  and  C_2
REMARK    2  A    between atoms: C_2  and  O_3
REMARK    3  A    between atoms: C_16  and  C_17
REMARK    4  A    between atoms: C_22  and  C_23
REMARK                            x       y       z     vdW  Elec       q    Type
REMARK                         _______ _______ _______ _____ _____    ______ ____
ROOT
ATOM      1  C   UNL     1      -6.925  12.196  22.074  0.00  0.00    +0.000 C 
ATOM      2  C   UNL     1      -6.940  12.679  20.617  0.00  0.00    +0.000 C 
ATOM      3  C   UNL     1      -7.407  11.476  19.732  0.00  0.00    +0.000 C 
ATOM      4  C   UNL     1      -6.380  11.373  18.619  0.00  0.00    +0.000 C 
ATOM      5  C   UNL     1      -5.120  11.803  19.363  0.00  0.00    +0.000 C 
ATOM      6  C   UNL     1      -3.819  11.813  18.578  0.00  0.00    +0.000 C 
ATOM      7  C   UNL     1      -3.577  10.411  18.031  0.00  0.00    +0.000 C 
ATOM      8  C   UNL     1      -2.392  10.452  17.099  0.00  0.00    +0.000 C 
ATOM      9  C   UNL     1      -1.177  10.705  17.940  0.00  0.00    +0.000 C 
ATOM     10  C   UNL     1      -0.237   9.746  17.900  0.00  0.00    +0.000 C 
ATOM     11  C   UNL     1       0.904   9.756  18.823  0.00  0.00    +0.000 C 
ATOM     12  O   UNL     1       1.679   8.806  18.827  0.00  0.00    +0.000 OA
ATOM     13  C   UNL     1       1.112  10.980  19.660  0.00  0.00    +0.000 C 
ATOM     14  C   UNL     1      -0.235  11.534  20.110  0.00  0.00    +0.000 C 
ATOM     15  C   UNL     1      -1.196  11.910  18.932  0.00  0.00    +0.000 C 
ATOM     16  C   UNL     1      -0.641  13.182  18.249  0.00  0.00    +0.000 C 
ATOM     17  C   UNL     1      -2.653  12.235  19.462  0.00  0.00    +0.000 C 
ATOM     18  O   UNL     1      -2.763  11.932  20.860  0.00  0.00    +0.000 OA
ATOM     19  C   UNL     1      -3.018  13.310  20.538  0.00  0.00    +0.000 C 
ATOM     20  C   UNL     1      -4.442  13.647  20.981  0.00  0.00    +0.000 C 
ATOM     21  C   UNL     1      -5.542  13.141  20.008  0.00  0.00    +0.000 C 
ATOM     22  C   UNL     1      -5.728  14.294  18.974  0.00  0.00    +0.000 C 
ENDROOT
BRANCH   2  23
ATOM     23  O   UNL     1      -7.917  13.713  20.524  0.00  0.00    +0.000 OA
ATOM     24  H   UNL     1      -7.772  14.320  21.273  0.00  0.00    +0.000 HD
ENDBRANCH   2  23
TORSDOF 1
ENDMDL
MODEL 7
REMARK VINA RESULT:      -5.9      1.787      3.215
REMARK  Name = 
REMARK  4 active torsions:
REMARK  status: ('A' for Active; 'I' for Inactive)
REMARK    1  A    between atoms: C_1  and  C_2
REMARK    2  A    between atoms: C_2  and  O_3
REMARK    3  A    between atoms: C_16  and  C_17
REMARK    4  A    between atoms: C_22  and  C_23
REMARK                            x       y       z     vdW  Elec       q    Type
REMARK                         _______ _______ _______ _____ _____    ______ ____
ROOT
ATOM      1  C   UNL     1      12.289  12.294  18.131  0.00  0.00    +0.000 C 
ATOM      2  C   UNL     1      11.223  13.370  17.887  0.00  0.00    +0.000 C 
ATOM      3  C   UNL     1      11.875  14.755  18.214  0.00  0.00    +0.000 C 
ATOM      4  C   UNL     1      10.900  15.447  19.150  0.00  0.00    +0.000 C 
ATOM      5  C   UNL     1      10.354  14.248  19.918  0.00  0.00    +0.000 C 
ATOM      6  C   UNL     1       9.330  14.528  21.006  0.00  0.00    +0.000 C 
ATOM      7  C   UNL     1       9.952  15.482  22.019  0.00  0.00    +0.000 C 
ATOM      8  C   UNL     1       8.888  15.912  22.997  0.00  0.00    +0.000 C 
ATOM      9  C   UNL     1       8.540  14.713  23.827  0.00  0.00    +0.000 C 
ATOM     10  C   UNL     1       8.760  14.841  25.146  0.00  0.00    +0.000 C 
ATOM     11  C   UNL     1       8.663  13.689  26.051  0.00  0.00    +0.000 C 
ATOM     12  O   UNL     1       8.978  13.825  27.227  0.00  0.00    +0.000 OA
ATOM     13  C   UNL     1       8.097  12.417  25.501  0.00  0.00    +0.000 C 
ATOM     14  C   UNL     1       8.570  12.219  24.065  0.00  0.00    +0.000 C 
ATOM     15  C   UNL     1       8.174  13.383  23.096  0.00  0.00    +0.000 C 
ATOM     16  C   UNL     1       6.650  13.304  22.849  0.00  0.00    +0.000 C 
ATOM     17  C   UNL     1       8.905  13.240  21.698  0.00  0.00    +0.000 C 
ATOM     18  O   UNL     1       9.873  12.182  21.738  0.00  0.00    +0.000 OA
ATOM     19  C   UNL     1       8.841  11.994  20.754  0.00  0.00    +0.000 C 
ATOM     20  C   UNL     1       9.504  11.911  19.379  0.00  0.00    +0.000 C 
ATOM     21  C   UNL     1       9.913  13.289  18.792  0.00  0.00    +0.000 C 
ATOM     22  C   UNL     1       8.656  13.787  18.014  0.00  0.00    +0.000 C 
ENDROOT
BRANCH   2  23
ATOM     23  O   UNL     1      10.900  13.340  16.499  0.00  0.00    +0.000 OA
ATOM     24  H   UNL     1      11.740  13.308  16.005  0.00  0.00    +0.000 HD
ENDBRANCH   2  23
TORSDOF 1
ENDMDL
MODEL 8
REMARK VINA RESULT:      -5.9      9.480     10.552
REMARK  Name = 
REMARK  4 active torsions:
REMARK  status: ('A' for Active; 'I' for Inactive)
REMARK    1  A    between atoms: C_1  and  C_2
REMARK    2  A    between atoms: C_2  and  O_3
REMARK    3  A    between atoms: C_16  and  C_17
REMARK    4  A    between atoms: C_22  and  C_23
REMARK                            x       y       z     vdW  Elec       q    Type
REMARK                         _______ _______ _______ _____ _____    ______ ____
ROOT
ATOM      1  C   UNL     1      -0.225   9.473  17.611  0.00  0.00    +0.000 C 
ATOM      2  C   UNL     1       0.692  10.295  18.527  0.00  0.00    +0.000 C 
ATOM      3  C   UNL     1       1.046   9.398  19.759  0.00  0.00    +0.000 C 
ATOM      4  C   UNL     1       0.757  10.257  20.978  0.00  0.00    +0.000 C 
ATOM      5  C   UNL     1      -0.438  11.060  20.474  0.00  0.00    +0.000 C 
ATOM      6  C   UNL     1      -1.063  12.054  21.439  0.00  0.00    +0.000 C 
ATOM      7  C   UNL     1      -1.506  11.300  22.687  0.00  0.00    +0.000 C 
ATOM      8  C   UNL     1      -1.955  12.299  23.723  0.00  0.00    +0.000 C 
ATOM      9  C   UNL     1      -3.229  12.911  23.224  0.00  0.00    +0.000 C 
ATOM     10  C   UNL     1      -4.304  12.727  24.009  0.00  0.00    +0.000 C 
ATOM     11  C   UNL     1      -5.652  13.087  23.553  0.00  0.00    +0.000 C 
ATOM     12  O   UNL     1      -6.617  12.802  24.253  0.00  0.00    +0.000 OA
ATOM     13  C   UNL     1      -5.772  13.868  22.282  0.00  0.00    +0.000 C 
ATOM     14  C   UNL     1      -4.733  13.383  21.276  0.00  0.00    +0.000 C 
ATOM     15  C   UNL     1      -3.255  13.500  21.779  0.00  0.00    +0.000 C 
ATOM     16  C   UNL     1      -2.873  14.999  21.799  0.00  0.00    +0.000 C 
ATOM     17  C   UNL     1      -2.257  12.753  20.802  0.00  0.00    +0.000 C 
ATOM     18  O   UNL     1      -2.979  12.016  19.807  0.00  0.00    +0.000 OA
ATOM     19  C   UNL     1      -2.102  13.021  19.269  0.00  0.00    +0.000 C 
ATOM     20  C   UNL     1      -1.081  12.330  18.365  0.00  0.00    +0.000 C 
ATOM     21  C   UNL     1       0.073  11.632  19.135  0.00  0.00    +0.000 C 
ATOM     22  C   UNL     1       1.165  12.733  19.310  0.00  0.00    +0.000 C 
ENDROOT
BRANCH   2  23
ATOM     23  O   UNL     1       1.890  10.558  17.801  0.00  0.00    +0.000 OA
ATOM     24  H   UNL     1       2.470   9.781  17.903  0.00  0.00    +0.000 HD
ENDBRANCH   2  23
TORSDOF 1
ENDMDL
MODEL 9
REMARK VINA RESULT:      -5.8      2.820      3.433
REMARK  Name = 
REMARK  4 active torsions:
REMARK  status: ('A' for Active; 'I' for Inactive)
REMARK    1  A    between atoms: C_1  and  C_2
REMARK    2  A    between atoms: C_2  and  O_3
REMARK    3  A    between atoms: C_16  and  C_17
REMARK    4  A    between atoms: C_22  and  C_23
REMARK                            x       y       z     vdW  Elec       q    Type
REMARK                         _______ _______ _______ _____ _____    ______ ____
ROOT
ATOM      1  C   UNL     1       9.361  10.653  18.549  0.00  0.00    +0.000 C 
ATOM      2  C   UNL     1      10.465  11.690  18.308  0.00  0.00    +0.000 C 
ATOM      3  C   UNL     1      11.487  11.567  19.486  0.00  0.00    +0.000 C 
ATOM      4  C   UNL     1      11.679  12.983  20.001  0.00  0.00    +0.000 C 
ATOM      5  C   UNL     1      10.283  13.552  19.775  0.00  0.00    +0.000 C 
ATOM      6  C   UNL     1      10.043  14.993  20.197  0.00  0.00    +0.000 C 
ATOM      7  C   UNL     1      10.357  15.117  21.683  0.00  0.00    +0.000 C 
ATOM      8  C   UNL     1      10.304  16.573  22.070  0.00  0.00    +0.000 C 
ATOM      9  C   UNL     1       8.869  17.000  21.988  0.00  0.00    +0.000 C 
ATOM     10  C   UNL     1       8.330  17.438  23.138  0.00  0.00    +0.000 C 
ATOM     11  C   UNL     1       6.889  17.691  23.258  0.00  0.00    +0.000 C 
ATOM     12  O   UNL     1       6.422  17.984  24.352  0.00  0.00    +0.000 OA
ATOM     13  C   UNL     1       6.070  17.662  22.005  0.00  0.00    +0.000 C 
ATOM     14  C   UNL     1       6.574  16.557  21.083  0.00  0.00    +0.000 C 
ATOM     15  C   UNL     1       8.079  16.703  20.674  0.00  0.00    +0.000 C 
ATOM     16  C   UNL     1       8.195  17.892  19.693  0.00  0.00    +0.000 C 
ATOM     17  C   UNL     1       8.600  15.404  19.934  0.00  0.00    +0.000 C 
ATOM     18  O   UNL     1       7.615  14.363  19.983  0.00  0.00    +0.000 OA
ATOM     19  C   UNL     1       7.974  14.767  18.650  0.00  0.00    +0.000 C 
ATOM     20  C   UNL     1       8.541  13.550  17.919  0.00  0.00    +0.000 C 
ATOM     21  C   UNL     1      10.012  13.218  18.292  0.00  0.00    +0.000 C 
ATOM     22  C   UNL     1      10.879  14.056  17.302  0.00  0.00    +0.000 C 
ENDROOT
BRANCH   2  23
ATOM     23  O   UNL     1      11.127  11.331  17.098  0.00  0.00    +0.000 OA
ATOM     24  H   UNL     1      11.598  10.493  17.260  0.00  0.00    +0.000 HD
ENDBRANCH   2  23
TORSDOF 1
ENDMDL
