MODEL 1
REMARK VINA RESULT:      -9.1      0.000      0.000
REMARK  Name = 
REMARK  7 active torsions:
REMARK  status: ('A' for Active; 'I' for Inactive)
REMARK    1  A    between atoms: N_1  and  CA_2
REMARK    2  A    between atoms: CA_2  and  C_3
REMARK    3  A    between atoms: CA_2  and  C_25
REMARK    4  A    between atoms: C_3  and  C_4
REMARK    5  A    between atoms: C_7  and  N_8
REMARK    6  A    between atoms: N_8  and  C_9
REMARK    7  A    between atoms: C_25  and  OXT_27
REMARK                            x       y       z     vdW  Elec       q    Type
REMARK                         _______ _______ _______ _____ _____    ______ ____
ROOT
ATOM      1  N   UNL     1       2.914   6.420  19.243  0.00  0.00    +0.000 N 
ATOM      2  H   UNL     1       3.233   6.098  20.172  0.00  0.00    +0.000 HD
ENDROOT
BRANCH   1   3
ATOM      3  C   UNL     1       2.857   5.320  18.265  0.00  0.00    +0.000 A 
ATOM      4  C   UNL     1       3.948   5.270  17.345  0.00  0.00    +0.000 A 
ATOM      5  C   UNL     1       4.493   6.382  16.682  0.00  0.00    +0.000 A 
ATOM      6  C   UNL     1       5.428   6.190  15.660  0.00  0.00    +0.000 A 
ATOM      7  C   UNL     1       5.918   4.911  15.372  0.00  0.00    +0.000 A 
ATOM      8  C   UNL     1       5.521   3.817  16.145  0.00  0.00    +0.000 A 
ATOM      9  C   UNL     1       4.552   4.009  17.129  0.00  0.00    +0.000 A 
ATOM     10  N   UNL     1       4.344   3.080  18.102  0.00  0.00    +0.000 NA
ATOM     11  C   UNL     1       3.320   3.255  18.983  0.00  0.00    +0.000 A 
ATOM     12  C   UNL     1       3.439   2.972  20.348  0.00  0.00    +0.000 A 
ATOM     13  C   UNL     1       2.377   3.258  21.228  0.00  0.00    +0.000 A 
ATOM     14  C   UNL     1       1.143   3.629  20.696  0.00  0.00    +0.000 A 
ATOM     15  C   UNL     1       1.094   3.994  19.371  0.00  0.00    +0.000 A 
ATOM     16  C   UNL     1       2.258   4.071  18.611  0.00  0.00    +0.000 A 
ENDBRANCH   1   3
BRANCH   1  20
ATOM     17  C   UNL     1       0.580  10.018  19.501  0.00  0.00    +0.000 A 
ATOM     18  C   UNL     1       0.741   9.224  20.644  0.00  0.00    +0.000 A 
ATOM     19  C   UNL     1       1.486   8.035  20.529  0.00  0.00    +0.000 A 
ATOM     20  C   UNL     1       2.094   7.622  19.323  0.00  0.00    +0.000 A 
ATOM     21  C   UNL     1       1.915   8.446  18.208  0.00  0.00    +0.000 A 
ATOM     22  C   UNL     1       1.164   9.607  18.283  0.00  0.00    +0.000 A 
BRANCH  17  23
ATOM     23  C   UNL     1      -0.267  11.300  19.491  0.00  0.00    +0.000 C 
BRANCH  23  24
ATOM     24  CA  UNL     1      -1.056  11.556  18.178  0.00  0.00    +0.000 C 
BRANCH  24  25
ATOM     25  N   UNL     1      -0.863  12.927  17.700  0.00  0.00    +0.000 NA
ATOM     26  H1  UNL     1       0.126  13.087  17.414  0.00  0.00    +0.000 HD
ATOM     27  H2  UNL     1      -1.121  13.626  18.437  0.00  0.00    +0.000 HD
ENDBRANCH  24  25
BRANCH  24  28
ATOM     28  C   UNL     1      -2.539  11.307  18.368  0.00  0.00    +0.000 C 
ATOM     29  O   UNL     1      -3.020  10.245  18.004  0.00  0.00    +0.000 OA
BRANCH  28  30
ATOM     30  OXT UNL     1      -3.342  12.243  18.907  0.00  0.00    +0.000 OA
ATOM     31  HXT UNL     1      -3.605  12.230  19.837  0.00  0.00    +0.000 HD
ENDBRANCH  28  30
ENDBRANCH  24  28
ENDBRANCH  23  24
ENDBRANCH  17  23
ENDBRANCH   1  20
TORSDOF 7
ENDMDL
MODEL 2
REMARK VINA RESULT:      -9.1      0.582      1.140
REMARK  Name = 
REMARK  7 active torsions:
REMARK  status: ('A' for Active; 'I' for Inactive)
REMARK    1  A    between atoms: N_1  and  CA_2
REMARK    2  A    between atoms: CA_2  and  C_3
REMARK    3  A    between atoms: CA_2  and  C_25
REMARK    4  A    between atoms: C_3  and  C_4
REMARK    5  A    between atoms: C_7  and  N_8
REMARK    6  A    between atoms: N_8  and  C_9
REMARK    7  A    between atoms: C_25  and  OXT_27
REMARK                            x       y       z     vdW  Elec       q    Type
REMARK                         _______ _______ _______ _____ _____    ______ ____
ROOT
ATOM      1  N   UNL     1       2.881   6.435  19.340  0.00  0.00    +0.000 N 
ATOM      2  H   UNL     1       3.164   6.087  20.271  0.00  0.00    +0.000 HD
ENDROOT
BRANCH   1   3
ATOM      3  C   UNL     1       2.812   5.353  18.341  0.00  0.00    +0.000 A 
ATOM      4  C   UNL     1       3.891   5.324  17.405  0.00  0.00    +0.000 A 
ATOM      5  C   UNL     1       4.423   6.449  16.756  0.00  0.00    +0.000 A 
ATOM      6  C   UNL     1       5.344   6.280  15.717  0.00  0.00    +0.000 A 
ATOM      7  C   UNL     1       5.833   5.008  15.398  0.00  0.00    +0.000 A 
ATOM      8  C   UNL     1       5.449   3.899  16.155  0.00  0.00    +0.000 A 
ATOM      9  C   UNL     1       4.495   4.069  17.157  0.00  0.00    +0.000 A 
ATOM     10  N   UNL     1       4.302   3.121  18.115  0.00  0.00    +0.000 NA
ATOM     11  C   UNL     1       3.291   3.277  19.013  0.00  0.00    +0.000 A 
ATOM     12  C   UNL     1       3.430   2.967  20.370  0.00  0.00    +0.000 A 
ATOM     13  C   UNL     1       2.379   3.234  21.271  0.00  0.00    +0.000 A 
ATOM     14  C   UNL     1       1.137   3.612  20.763  0.00  0.00    +0.000 A 
ATOM     15  C   UNL     1       1.069   4.002  19.446  0.00  0.00    +0.000 A 
ATOM     16  C   UNL     1       2.221   4.097  18.672  0.00  0.00    +0.000 A 
ENDBRANCH   1   3
BRANCH   1  20
ATOM     17  C   UNL     1       0.495  10.002  19.547  0.00  0.00    +0.000 A 
ATOM     18  C   UNL     1       1.127   9.672  18.342  0.00  0.00    +0.000 A 
ATOM     19  C   UNL     1       1.927   8.514  18.305  0.00  0.00    +0.000 A 
ATOM     20  C   UNL     1       2.100   7.663  19.419  0.00  0.00    +0.000 A 
ATOM     21  C   UNL     1       1.446   8.024  20.600  0.00  0.00    +0.000 A 
ATOM     22  C   UNL     1       0.675   9.172  20.676  0.00  0.00    +0.000 A 
BRANCH  17  23
ATOM     23  C   UNL     1      -0.347  11.275  19.724  0.00  0.00    +0.000 C 
BRANCH  23  24
ATOM     24  CA  UNL     1      -0.637  12.057  18.414  0.00  0.00    +0.000 C 
BRANCH  24  25
ATOM     25  N   UNL     1      -0.738  13.496  18.665  0.00  0.00    +0.000 NA
ATOM     26  H1  UNL     1      -1.386  13.693  19.458  0.00  0.00    +0.000 HD
ATOM     27  H2  UNL     1      -1.078  14.008  17.815  0.00  0.00    +0.000 HD
ENDBRANCH  24  25
BRANCH  24  28
ATOM     28  C   UNL     1      -1.921  11.584  17.761  0.00  0.00    +0.000 C 
ATOM     29  O   UNL     1      -2.804  11.101  18.455  0.00  0.00    +0.000 OA
BRANCH  28  30
ATOM     30  OXT UNL     1      -2.099  11.661  16.429  0.00  0.00    +0.000 OA
ATOM     31  HXT UNL     1      -2.933  11.946  16.032  0.00  0.00    +0.000 HD
ENDBRANCH  28  30
ENDBRANCH  24  28
ENDBRANCH  23  24
ENDBRANCH  17  23
ENDBRANCH   1  20
TORSDOF 7
ENDMDL
MODEL 3
REMARK VINA RESULT:      -9.0      1.242      1.470
REMARK  Name = 
REMARK  7 active torsions:
REMARK  status: ('A' for Active; 'I' for Inactive)
REMARK    1  A    between atoms: N_1  and  CA_2
REMARK    2  A    between atoms: CA_2  and  C_3
REMARK    3  A    between atoms: CA_2  and  C_25
REMARK    4  A    between atoms: C_3  and  C_4
REMARK    5  A    between atoms: C_7  and  N_8
REMARK    6  A    between atoms: N_8  and  C_9
REMARK    7  A    between atoms: C_25  and  OXT_27
REMARK                            x       y       z     vdW  Elec       q    Type
REMARK                         _______ _______ _______ _____ _____    ______ ____
ROOT
ATOM      1  N   UNL     1       2.924   6.247  19.396  0.00  0.00    +0.000 N 
ATOM      2  H   UNL     1       3.214   5.870  20.313  0.00  0.00    +0.000 HD
ENDROOT
BRANCH   1   3
ATOM      3  C   UNL     1       2.818   5.194  18.370  0.00  0.00    +0.000 A 
ATOM      4  C   UNL     1       3.883   5.167  17.418  0.00  0.00    +0.000 A 
ATOM      5  C   UNL     1       4.431   6.297  16.792  0.00  0.00    +0.000 A 
ATOM      6  C   UNL     1       5.334   6.136  15.736  0.00  0.00    +0.000 A 
ATOM      7  C   UNL     1       5.791   4.863  15.377  0.00  0.00    +0.000 A 
ATOM      8  C   UNL     1       5.393   3.742  16.110  0.00  0.00    +0.000 A 
ATOM      9  C   UNL     1       4.456   3.907  17.130  0.00  0.00    +0.000 A 
ATOM     10  N   UNL     1       4.256   2.937  18.065  0.00  0.00    +0.000 NA
ATOM     11  C   UNL     1       3.261   3.091  18.981  0.00  0.00    +0.000 A 
ATOM     12  C   UNL     1       3.411   2.743  20.328  0.00  0.00    +0.000 A 
ATOM     13  C   UNL     1       2.379   3.007  21.250  0.00  0.00    +0.000 A 
ATOM     14  C   UNL     1       1.139   3.425  20.770  0.00  0.00    +0.000 A 
ATOM     15  C   UNL     1       1.061   3.851  19.464  0.00  0.00    +0.000 A 
ATOM     16  C   UNL     1       2.204   3.942  18.676  0.00  0.00    +0.000 A 
ENDBRANCH   1   3
BRANCH   1  20
ATOM     17  C   UNL     1       0.782   9.951  19.790  0.00  0.00    +0.000 A 
ATOM     18  C   UNL     1       0.871   9.092  20.893  0.00  0.00    +0.000 A 
ATOM     19  C   UNL     1       1.553   7.871  20.732  0.00  0.00    +0.000 A 
ATOM     20  C   UNL     1       2.168   7.488  19.520  0.00  0.00    +0.000 A 
ATOM     21  C   UNL     1       2.062   8.376  18.446  0.00  0.00    +0.000 A 
ATOM     22  C   UNL     1       1.373   9.572  18.565  0.00  0.00    +0.000 A 
BRANCH  17  23
ATOM     23  C   UNL     1       0.006  11.277  19.828  0.00  0.00    +0.000 C 
BRANCH  23  24
ATOM     24  CA  UNL     1       0.694  12.461  19.094  0.00  0.00    +0.000 C 
BRANCH  24  25
ATOM     25  N   UNL     1       1.423  13.317  20.032  0.00  0.00    +0.000 NA
ATOM     26  H1  UNL     1       0.796  13.656  20.793  0.00  0.00    +0.000 HD
ATOM     27  H2  UNL     1       1.843  14.145  19.545  0.00  0.00    +0.000 HD
ENDBRANCH  24  25
BRANCH  24  28
ATOM     28  C   UNL     1      -0.316  13.307  18.344  0.00  0.00    +0.000 C 
ATOM     29  O   UNL     1      -0.385  14.504  18.576  0.00  0.00    +0.000 OA
BRANCH  28  30
ATOM     30  OXT UNL     1      -1.155  12.762  17.443  0.00  0.00    +0.000 OA
ATOM     31  HXT UNL     1      -1.984  13.184  17.183  0.00  0.00    +0.000 HD
ENDBRANCH  28  30
ENDBRANCH  24  28
ENDBRANCH  23  24
ENDBRANCH  17  23
ENDBRANCH   1  20
TORSDOF 7
ENDMDL
MODEL 4
REMARK VINA RESULT:      -8.9      2.414      3.031
REMARK  Name = 
REMARK  7 active torsions:
REMARK  status: ('A' for Active; 'I' for Inactive)
REMARK    1  A    between atoms: N_1  and  CA_2
REMARK    2  A    between atoms: CA_2  and  C_3
REMARK    3  A    between atoms: CA_2  and  C_25
REMARK    4  A    between atoms: C_3  and  C_4
REMARK    5  A    between atoms: C_7  and  N_8
REMARK    6  A    between atoms: N_8  and  C_9
REMARK    7  A    between atoms: C_25  and  OXT_27
REMARK                            x       y       z     vdW  Elec       q    Type
REMARK                         _______ _______ _______ _____ _____    ______ ____
ROOT
ATOM      1  N   UNL     1       2.794   5.649  17.481  0.00  0.00    +0.000 N 
ATOM      2  H   UNL     1       2.388   5.789  16.541  0.00  0.00    +0.000 HD
ENDROOT
BRANCH   1   3
ATOM      3  C   UNL     1       4.035   4.857  17.438  0.00  0.00    +0.000 A 
ATOM      4  C   UNL     1       5.230   5.588  17.717  0.00  0.00    +0.000 A 
ATOM      5  C   UNL     1       5.535   6.858  17.203  0.00  0.00    +0.000 A 
ATOM      6  C   UNL     1       6.814   7.392  17.386  0.00  0.00    +0.000 A 
ATOM      7  C   UNL     1       7.756   6.729  18.181  0.00  0.00    +0.000 A 
ATOM      8  C   UNL     1       7.408   5.553  18.848  0.00  0.00    +0.000 A 
ATOM      9  C   UNL     1       6.147   5.002  18.621  0.00  0.00    +0.000 A 
ATOM     10  N   UNL     1       5.635   4.050  19.449  0.00  0.00    +0.000 NA
ATOM     11  C   UNL     1       4.447   3.463  19.136  0.00  0.00    +0.000 A 
ATOM     12  C   UNL     1       3.468   3.177  20.093  0.00  0.00    +0.000 A 
ATOM     13  C   UNL     1       2.221   2.652  19.699  0.00  0.00    +0.000 A 
ATOM     14  C   UNL     1       2.054   2.231  18.381  0.00  0.00    +0.000 A 
ATOM     15  C   UNL     1       2.993   2.620  17.454  0.00  0.00    +0.000 A 
ATOM     16  C   UNL     1       4.030   3.478  17.809  0.00  0.00    +0.000 A 
ENDBRANCH   1   3
BRANCH   1  20
ATOM     17  C   UNL     1       1.556   8.721  20.218  0.00  0.00    +0.000 A 
ATOM     18  C   UNL     1       1.693   9.031  18.859  0.00  0.00    +0.000 A 
ATOM     19  C   UNL     1       2.127   8.016  17.986  0.00  0.00    +0.000 A 
ATOM     20  C   UNL     1       2.407   6.700  18.414  0.00  0.00    +0.000 A 
ATOM     21  C   UNL     1       2.251   6.431  19.777  0.00  0.00    +0.000 A 
ATOM     22  C   UNL     1       1.852   7.415  20.666  0.00  0.00    +0.000 A 
BRANCH  17  23
ATOM     23  C   UNL     1       1.154   9.764  21.273  0.00  0.00    +0.000 C 
BRANCH  23  24
ATOM     24  CA  UNL     1      -0.376   9.919  21.493  0.00  0.00    +0.000 C 
BRANCH  24  25
ATOM     25  N   UNL     1      -0.913  11.042  20.722  0.00  0.00    +0.000 NA
ATOM     26  H1  UNL     1      -1.522  10.705  19.946  0.00  0.00    +0.000 HD
ATOM     27  H2  UNL     1      -0.144  11.629  20.319  0.00  0.00    +0.000 HD
ENDBRANCH  24  25
BRANCH  24  28
ATOM     28  C   UNL     1      -0.705  10.130  22.958  0.00  0.00    +0.000 C 
ATOM     29  O   UNL     1      -1.527  10.978  23.272  0.00  0.00    +0.000 OA
BRANCH  28  30
ATOM     30  OXT UNL     1      -0.091   9.419  23.923  0.00  0.00    +0.000 OA
ATOM     31  HXT UNL     1      -0.570   8.819  24.510  0.00  0.00    +0.000 HD
ENDBRANCH  28  30
ENDBRANCH  24  28
ENDBRANCH  23  24
ENDBRANCH  17  23
ENDBRANCH   1  20
TORSDOF 7
ENDMDL
MODEL 5
REMARK VINA RESULT:      -8.9      1.064      1.203
REMARK  Name = 
REMARK  7 active torsions:
REMARK  status: ('A' for Active; 'I' for Inactive)
REMARK    1  A    between atoms: N_1  and  CA_2
REMARK    2  A    between atoms: CA_2  and  C_3
REMARK    3  A    between atoms: CA_2  and  C_25
REMARK    4  A    between atoms: C_3  and  C_4
REMARK    5  A    between atoms: C_7  and  N_8
REMARK    6  A    between atoms: N_8  and  C_9
REMARK    7  A    between atoms: C_25  and  OXT_27
REMARK                            x       y       z     vdW  Elec       q    Type
REMARK                         _______ _______ _______ _____ _____    ______ ____
ROOT
ATOM      1  N   UNL     1       2.909   6.281  19.459  0.00  0.00    +0.000 N 
ATOM      2  H   UNL     1       3.258   5.897  20.352  0.00  0.00    +0.000 HD
ENDROOT
BRANCH   1   3
ATOM      3  C   UNL     1       2.794   5.245  18.417  0.00  0.00    +0.000 A 
ATOM      4  C   UNL     1       3.849   5.236  17.454  0.00  0.00    +0.000 A 
ATOM      5  C   UNL     1       4.390   6.377  16.842  0.00  0.00    +0.000 A 
ATOM      6  C   UNL     1       5.282   6.234  15.775  0.00  0.00    +0.000 A 
ATOM      7  C   UNL     1       5.737   4.968  15.390  0.00  0.00    +0.000 A 
ATOM      8  C   UNL     1       5.347   3.834  16.107  0.00  0.00    +0.000 A 
ATOM      9  C   UNL     1       4.420   3.980  17.138  0.00  0.00    +0.000 A 
ATOM     10  N   UNL     1       4.230   2.995  18.059  0.00  0.00    +0.000 NA
ATOM     11  C   UNL     1       3.244   3.132  18.988  0.00  0.00    +0.000 A 
ATOM     12  C   UNL     1       3.408   2.761  20.326  0.00  0.00    +0.000 A 
ATOM     13  C   UNL     1       2.385   3.009  21.263  0.00  0.00    +0.000 A 
ATOM     14  C   UNL     1       1.139   3.434  20.802  0.00  0.00    +0.000 A 
ATOM     15  C   UNL     1       1.048   3.882  19.505  0.00  0.00    +0.000 A 
ATOM     16  C   UNL     1       2.184   3.988  18.708  0.00  0.00    +0.000 A 
ENDBRANCH   1   3
BRANCH   1  20
ATOM     17  C   UNL     1       0.645   9.884  20.051  0.00  0.00    +0.000 A 
ATOM     18  C   UNL     1       0.686   8.927  21.073  0.00  0.00    +0.000 A 
ATOM     19  C   UNL     1       1.410   7.742  20.846  0.00  0.00    +0.000 A 
ATOM     20  C   UNL     1       2.113   7.488  19.647  0.00  0.00    +0.000 A 
ATOM     21  C   UNL     1       2.052   8.471  18.656  0.00  0.00    +0.000 A 
ATOM     22  C   UNL     1       1.325   9.635  18.838  0.00  0.00    +0.000 A 
BRANCH  17  23
ATOM     23  C   UNL     1      -0.167  11.184  20.160  0.00  0.00    +0.000 C 
BRANCH  23  24
ATOM     24  CA  UNL     1      -1.391  11.276  19.207  0.00  0.00    +0.000 C 
BRANCH  24  25
ATOM     25  N   UNL     1      -1.671   9.984  18.576  0.00  0.00    +0.000 NA
ATOM     26  H1  UNL     1      -2.373   9.444  19.127  0.00  0.00    +0.000 HD
ATOM     27  H2  UNL     1      -0.800   9.409  18.482  0.00  0.00    +0.000 HD
ENDBRANCH  24  25
BRANCH  24  28
ATOM     28  C   UNL     1      -1.170  12.311  18.123  0.00  0.00    +0.000 C 
ATOM     29  O   UNL     1      -0.448  13.272  18.349  0.00  0.00    +0.000 OA
BRANCH  28  30
ATOM     30  OXT UNL     1      -1.771  12.208  16.923  0.00  0.00    +0.000 OA
ATOM     31  HXT UNL     1      -1.277  12.209  16.092  0.00  0.00    +0.000 HD
ENDBRANCH  28  30
ENDBRANCH  24  28
ENDBRANCH  23  24
ENDBRANCH  17  23
ENDBRANCH   1  20
TORSDOF 7
ENDMDL
MODEL 6
REMARK VINA RESULT:      -8.8      0.882      1.278
REMARK  Name = 
REMARK  7 active torsions:
REMARK  status: ('A' for Active; 'I' for Inactive)
REMARK    1  A    between atoms: N_1  and  CA_2
REMARK    2  A    between atoms: CA_2  and  C_3
REMARK    3  A    between atoms: CA_2  and  C_25
REMARK    4  A    between atoms: C_3  and  C_4
REMARK    5  A    between atoms: C_7  and  N_8
REMARK    6  A    between atoms: N_8  and  C_9
REMARK    7  A    between atoms: C_25  and  OXT_27
REMARK                            x       y       z     vdW  Elec       q    Type
REMARK                         _______ _______ _______ _____ _____    ______ ____
ROOT
ATOM      1  N   UNL     1       2.890   6.449  19.737  0.00  0.00    +0.000 N 
ATOM      2  H   UNL     1       2.804   6.017  20.672  0.00  0.00    +0.000 HD
ENDROOT
BRANCH   1   3
ATOM      3  C   UNL     1       3.270   5.467  18.705  0.00  0.00    +0.000 A 
ATOM      4  C   UNL     1       4.602   5.595  18.208  0.00  0.00    +0.000 A 
ATOM      5  C   UNL     1       5.220   6.809  17.867  0.00  0.00    +0.000 A 
ATOM      6  C   UNL     1       6.454   6.798  17.209  0.00  0.00    +0.000 A 
ATOM      7  C   UNL     1       7.138   5.595  16.995  0.00  0.00    +0.000 A 
ATOM      8  C   UNL     1       6.620   4.396  17.490  0.00  0.00    +0.000 A 
ATOM      9  C   UNL     1       5.367   4.410  18.102  0.00  0.00    +0.000 A 
ATOM     10  N   UNL     1       4.944   3.363  18.863  0.00  0.00    +0.000 NA
ATOM     11  C   UNL     1       3.675   3.368  19.358  0.00  0.00    +0.000 A 
ATOM     12  C   UNL     1       3.366   2.938  20.653  0.00  0.00    +0.000 A 
ATOM     13  C   UNL     1       2.050   3.051  21.143  0.00  0.00    +0.000 A 
ATOM     14  C   UNL     1       1.030   3.399  20.259  0.00  0.00    +0.000 A 
ATOM     15  C   UNL     1       1.384   3.909  19.032  0.00  0.00    +0.000 A 
ATOM     16  C   UNL     1       2.718   4.150  18.720  0.00  0.00    +0.000 A 
ENDBRANCH   1   3
BRANCH   1  20
ATOM     17  C   UNL     1       0.426   9.944  19.323  0.00  0.00    +0.000 A 
ATOM     18  C   UNL     1       1.123   9.463  18.208  0.00  0.00    +0.000 A 
ATOM     19  C   UNL     1       1.947   8.334  18.374  0.00  0.00    +0.000 A 
ATOM     20  C   UNL     1       2.082   7.654  19.604  0.00  0.00    +0.000 A 
ATOM     21  C   UNL     1       1.363   8.161  20.691  0.00  0.00    +0.000 A 
ATOM     22  C   UNL     1       0.567   9.288  20.566  0.00  0.00    +0.000 A 
BRANCH  17  23
ATOM     23  C   UNL     1      -0.449  11.206  19.278  0.00  0.00    +0.000 C 
BRANCH  23  24
ATOM     24  CA  UNL     1      -1.214  11.427  17.944  0.00  0.00    +0.000 C 
BRANCH  24  25
ATOM     25  N   UNL     1      -1.083  12.809  17.478  0.00  0.00    +0.000 NA
ATOM     26  H1  UNL     1      -2.010  13.286  17.459  0.00  0.00    +0.000 HD
ATOM     27  H2  UNL     1      -0.661  12.850  16.520  0.00  0.00    +0.000 HD
ENDBRANCH  24  25
BRANCH  24  28
ATOM     28  C   UNL     1      -2.686  11.097  18.090  0.00  0.00    +0.000 C 
ATOM     29  O   UNL     1      -3.068   9.955  17.884  0.00  0.00    +0.000 OA
BRANCH  28  30
ATOM     30  OXT UNL     1      -3.586  12.042  18.419  0.00  0.00    +0.000 OA
ATOM     31  HXT UNL     1      -4.112  12.001  19.229  0.00  0.00    +0.000 HD
ENDBRANCH  28  30
ENDBRANCH  24  28
ENDBRANCH  23  24
ENDBRANCH  17  23
ENDBRANCH   1  20
TORSDOF 7
ENDMDL
MODEL 7
REMARK VINA RESULT:      -8.8      1.705      1.890
REMARK  Name = 
REMARK  7 active torsions:
REMARK  status: ('A' for Active; 'I' for Inactive)
REMARK    1  A    between atoms: N_1  and  CA_2
REMARK    2  A    between atoms: CA_2  and  C_3
REMARK    3  A    between atoms: CA_2  and  C_25
REMARK    4  A    between atoms: C_3  and  C_4
REMARK    5  A    between atoms: C_7  and  N_8
REMARK    6  A    between atoms: N_8  and  C_9
REMARK    7  A    between atoms: C_25  and  OXT_27
REMARK                            x       y       z     vdW  Elec       q    Type
REMARK                         _______ _______ _______ _____ _____    ______ ____
ROOT
ATOM      1  N   UNL     1       2.983   6.241  19.294  0.00  0.00    +0.000 N 
ATOM      2  H   UNL     1       3.273   5.871  20.214  0.00  0.00    +0.000 HD
ENDROOT
BRANCH   1   3
ATOM      3  C   UNL     1       2.875   5.178  18.278  0.00  0.00    +0.000 A 
ATOM      4  C   UNL     1       3.945   5.133  17.334  0.00  0.00    +0.000 A 
ATOM      5  C   UNL     1       4.508   6.252  16.700  0.00  0.00    +0.000 A 
ATOM      6  C   UNL     1       5.415   6.073  15.652  0.00  0.00    +0.000 A 
ATOM      7  C   UNL     1       5.864   4.792  15.309  0.00  0.00    +0.000 A 
ATOM      8  C   UNL     1       5.452   3.682  16.050  0.00  0.00    +0.000 A 
ATOM      9  C   UNL     1       4.510   3.865  17.061  0.00  0.00    +0.000 A 
ATOM     10  N   UNL     1       4.295   2.906  18.005  0.00  0.00    +0.000 NA
ATOM     11  C   UNL     1       3.295   3.077  18.913  0.00  0.00    +0.000 A 
ATOM     12  C   UNL     1       3.434   2.741  20.264  0.00  0.00    +0.000 A 
ATOM     13  C   UNL     1       2.398   3.024  21.176  0.00  0.00    +0.000 A 
ATOM     14  C   UNL     1       1.165   3.448  20.684  0.00  0.00    +0.000 A 
ATOM     15  C   UNL     1       1.099   3.861  19.374  0.00  0.00    +0.000 A 
ATOM     16  C   UNL     1       2.248   3.935  18.593  0.00  0.00    +0.000 A 
ENDBRANCH   1   3
BRANCH   1  20
ATOM     17  C   UNL     1       0.849   9.952  19.655  0.00  0.00    +0.000 A 
ATOM     18  C   UNL     1       0.932   9.101  20.764  0.00  0.00    +0.000 A 
ATOM     19  C   UNL     1       1.611   7.877  20.614  0.00  0.00    +0.000 A 
ATOM     20  C   UNL     1       2.230   7.483  19.407  0.00  0.00    +0.000 A 
ATOM     21  C   UNL     1       2.130   8.365  18.327  0.00  0.00    +0.000 A 
ATOM     22  C   UNL     1       1.443   9.563  18.435  0.00  0.00    +0.000 A 
BRANCH  17  23
ATOM     23  C   UNL     1       0.076  11.280  19.681  0.00  0.00    +0.000 C 
BRANCH  23  24
ATOM     24  CA  UNL     1      -1.023  11.379  20.774  0.00  0.00    +0.000 C 
BRANCH  24  25
ATOM     25  N   UNL     1      -2.131  12.231  20.338  0.00  0.00    +0.000 NA
ATOM     26  H1  UNL     1      -2.321  12.105  19.321  0.00  0.00    +0.000 HD
ATOM     27  H2  UNL     1      -1.929  13.243  20.522  0.00  0.00    +0.000 HD
ENDBRANCH  24  25
BRANCH  24  28
ATOM     28  C   UNL     1      -0.464  11.929  22.071  0.00  0.00    +0.000 C 
ATOM     29  O   UNL     1       0.152  12.985  22.058  0.00  0.00    +0.000 OA
BRANCH  28  30
ATOM     30  OXT UNL     1      -0.611  11.268  23.234  0.00  0.00    +0.000 OA
ATOM     31  HXT UNL     1      -0.331  10.350  23.349  0.00  0.00    +0.000 HD
ENDBRANCH  28  30
ENDBRANCH  24  28
ENDBRANCH  23  24
ENDBRANCH  17  23
ENDBRANCH   1  20
TORSDOF 7
ENDMDL
MODEL 8
REMARK VINA RESULT:      -8.7      1.883      2.381
REMARK  Name = 
REMARK  7 active torsions:
REMARK  status: ('A' for Active; 'I' for Inactive)
REMARK    1  A    between atoms: N_1  and  CA_2
REMARK    2  A    between atoms: CA_2  and  C_3
REMARK    3  A    between atoms: CA_2  and  C_25
REMARK    4  A    between atoms: C_3  and  C_4
REMARK    5  A    between atoms: C_7  and  N_8
REMARK    6  A    between atoms: N_8  and  C_9
REMARK    7  A    between atoms: C_25  and  OXT_27
REMARK                            x       y       z     vdW  Elec       q    Type
REMARK                         _______ _______ _______ _____ _____    ______ ____
ROOT
ATOM      1  N   UNL     1       2.917   6.309  19.583  0.00  0.00    +0.000 N 
ATOM      2  H   UNL     1       3.349   5.926  20.440  0.00  0.00    +0.000 HD
ENDROOT
BRANCH   1   3
ATOM      3  C   UNL     1       2.786   5.290  18.526  0.00  0.00    +0.000 A 
ATOM      4  C   UNL     1       3.828   5.296  17.548  0.00  0.00    +0.000 A 
ATOM      5  C   UNL     1       4.361   6.447  16.947  0.00  0.00    +0.000 A 
ATOM      6  C   UNL     1       5.237   6.322  15.865  0.00  0.00    +0.000 A 
ATOM      7  C   UNL     1       5.686   5.061  15.452  0.00  0.00    +0.000 A 
ATOM      8  C   UNL     1       5.306   3.916  16.157  0.00  0.00    +0.000 A 
ATOM      9  C   UNL     1       4.394   4.046  17.203  0.00  0.00    +0.000 A 
ATOM     10  N   UNL     1       4.216   3.046  18.110  0.00  0.00    +0.000 NA
ATOM     11  C   UNL     1       3.244   3.168  19.055  0.00  0.00    +0.000 A 
ATOM     12  C   UNL     1       3.427   2.775  20.385  0.00  0.00    +0.000 A 
ATOM     13  C   UNL     1       2.417   3.008  21.341  0.00  0.00    +0.000 A 
ATOM     14  C   UNL     1       1.166   3.441  20.905  0.00  0.00    +0.000 A 
ATOM     15  C   UNL     1       1.056   3.910  19.616  0.00  0.00    +0.000 A 
ATOM     16  C   UNL     1       2.180   4.028  18.805  0.00  0.00    +0.000 A 
ENDBRANCH   1   3
BRANCH   1  20
ATOM     17  C   UNL     1       0.342   9.662  20.347  0.00  0.00    +0.000 A 
ATOM     18  C   UNL     1       1.021   9.587  19.124  0.00  0.00    +0.000 A 
ATOM     19  C   UNL     1       1.882   8.493  18.907  0.00  0.00    +0.000 A 
ATOM     20  C   UNL     1       2.071   7.464  19.855  0.00  0.00    +0.000 A 
ATOM     21  C   UNL     1       1.369   7.574  21.059  0.00  0.00    +0.000 A 
ATOM     22  C   UNL     1       0.537   8.651  21.314  0.00  0.00    +0.000 A 
BRANCH  17  23
ATOM     23  C   UNL     1      -0.570  10.841  20.721  0.00  0.00    +0.000 C 
BRANCH  23  24
ATOM     24  CA  UNL     1      -0.138  11.629  21.988  0.00  0.00    +0.000 C 
BRANCH  24  25
ATOM     25  N   UNL     1      -1.032  11.355  23.116  0.00  0.00    +0.000 NA
ATOM     26  H1  UNL     1      -0.780  10.458  23.583  0.00  0.00    +0.000 HD
ATOM     27  H2  UNL     1      -2.032  11.306  22.805  0.00  0.00    +0.000 HD
ENDBRANCH  24  25
BRANCH  24  28
ATOM     28  C   UNL     1      -0.120  13.122  21.730  0.00  0.00    +0.000 C 
ATOM     29  O   UNL     1      -1.024  13.630  21.083  0.00  0.00    +0.000 OA
BRANCH  28  30
ATOM     30  OXT UNL     1       0.884  13.899  22.179  0.00  0.00    +0.000 OA
ATOM     31  HXT UNL     1       1.375  14.499  21.602  0.00  0.00    +0.000 HD
ENDBRANCH  28  30
ENDBRANCH  24  28
ENDBRANCH  23  24
ENDBRANCH  17  23
ENDBRANCH   1  20
TORSDOF 7
ENDMDL
MODEL 9
REMARK VINA RESULT:      -8.7      1.787      2.215
REMARK  Name = 
REMARK  7 active torsions:
REMARK  status: ('A' for Active; 'I' for Inactive)
REMARK    1  A    between atoms: N_1  and  CA_2
REMARK    2  A    between atoms: CA_2  and  C_3
REMARK    3  A    between atoms: CA_2  and  C_25
REMARK    4  A    between atoms: C_3  and  C_4
REMARK    5  A    between atoms: C_7  and  N_8
REMARK    6  A    between atoms: N_8  and  C_9
REMARK    7  A    between atoms: C_25  and  OXT_27
REMARK                            x       y       z     vdW  Elec       q    Type
REMARK                         _______ _______ _______ _____ _____    ______ ____
ROOT
ATOM      1  N   UNL     1       2.868   6.360  19.523  0.00  0.00    +0.000 N 
ATOM      2  H   UNL     1       3.233   6.012  20.425  0.00  0.00    +0.000 HD
ENDROOT
BRANCH   1   3
ATOM      3  C   UNL     1       2.813   5.301  18.500  0.00  0.00    +0.000 A 
ATOM      4  C   UNL     1       3.886   5.314  17.557  0.00  0.00    +0.000 A 
ATOM      5  C   UNL     1       4.393   6.464  16.932  0.00  0.00    +0.000 A 
ATOM      6  C   UNL     1       5.310   6.337  15.884  0.00  0.00    +0.000 A 
ATOM      7  C   UNL     1       5.822   5.082  15.532  0.00  0.00    +0.000 A 
ATOM      8  C   UNL     1       5.464   3.948  16.266  0.00  0.00    +0.000 A 
ATOM      9  C   UNL     1       4.512   4.077  17.277  0.00  0.00    +0.000 A 
ATOM     10  N   UNL     1       4.344   3.103  18.213  0.00  0.00    +0.000 NA
ATOM     11  C   UNL     1       3.336   3.219  19.121  0.00  0.00    +0.000 A 
ATOM     12  C   UNL     1       3.489   2.881  20.470  0.00  0.00    +0.000 A 
ATOM     13  C   UNL     1       2.440   3.106  21.383  0.00  0.00    +0.000 A 
ATOM     14  C   UNL     1       1.187   3.472  20.891  0.00  0.00    +0.000 A 
ATOM     15  C   UNL     1       1.103   3.890  19.584  0.00  0.00    +0.000 A 
ATOM     16  C   UNL     1       2.248   4.025  18.805  0.00  0.00    +0.000 A 
ENDBRANCH   1   3
BRANCH   1  20
ATOM     17  C   UNL     1       0.254   9.742  19.960  0.00  0.00    +0.000 A 
ATOM     18  C   UNL     1       1.016   9.614  18.791  0.00  0.00    +0.000 A 
ATOM     19  C   UNL     1       1.887   8.512  18.683  0.00  0.00    +0.000 A 
ATOM     20  C   UNL     1       2.007   7.525  19.685  0.00  0.00    +0.000 A 
ATOM     21  C   UNL     1       1.224   7.687  20.832  0.00  0.00    +0.000 A 
ATOM     22  C   UNL     1       0.379   8.774  20.980  0.00  0.00    +0.000 A 
BRANCH  17  23
ATOM     23  C   UNL     1      -0.679  10.936  20.218  0.00  0.00    +0.000 C 
BRANCH  23  24
ATOM     24  CA  UNL     1      -0.158  11.962  21.261  0.00  0.00    +0.000 C 
BRANCH  24  25
ATOM     25  N   UNL     1       1.295  11.871  21.416  0.00  0.00    +0.000 NA
ATOM     26  H1  UNL     1       1.731  11.406  20.591  0.00  0.00    +0.000 HD
ATOM     27  H2  UNL     1       1.553  11.338  22.281  0.00  0.00    +0.000 HD
ENDBRANCH  24  25
BRANCH  24  28
ATOM     28  C   UNL     1      -0.809  11.752  22.614  0.00  0.00    +0.000 C 
ATOM     29  O   UNL     1      -0.372  10.890  23.361  0.00  0.00    +0.000 OA
BRANCH  28  30
ATOM     30  OXT UNL     1      -1.873  12.480  22.999  0.00  0.00    +0.000 OA
ATOM     31  HXT UNL     1      -2.432  12.228  23.746  0.00  0.00    +0.000 HD
ENDBRANCH  28  30
ENDBRANCH  24  28
ENDBRANCH  23  24
ENDBRANCH  17  23
ENDBRANCH   1  20
TORSDOF 7
ENDMDL
