MODEL 1
REMARK VINA RESULT:      -7.6      0.000      0.000
REMARK  Name = 
REMARK  10 active torsions:
REMARK  status: ('A' for Active; 'I' for Inactive)
REMARK    1  A    between atoms: C_1  and  O_2
REMARK    2  A    between atoms: O_2  and  C_3
REMARK    3  A    between atoms: C_5  and  C_6
REMARK    4  A    between atoms: C_9  and  S_10
REMARK    5  A    between atoms: S_10  and  C_11
REMARK    6  A    between atoms: C_11  and  C_12
REMARK    7  A    between atoms: C_21  and  O_22
REMARK    8  A    between atoms: O_22  and  C_23
REMARK    9  A    between atoms: C_24  and  O_25
REMARK   10  A    between atoms: O_25  and  C_26
REMARK                            x       y       z     vdW  Elec       q    Type
REMARK                         _______ _______ _______ _____ _____    ______ ____
ROOT
ATOM      1  C   UNL     1       2.435   7.997  18.338  0.00  0.00    +0.000 A 
ATOM      2  N   UNL     1       2.658   8.736  17.272  0.00  0.00    +0.000 NA
ATOM      3  N   UNL     1       1.976   9.917  17.459  0.00  0.00    +0.000 NA
ATOM      4  C   UNL     1       1.382   9.835  18.633  0.00  0.00    +0.000 A 
ATOM      5  O   UNL     1       1.636   8.638  19.258  0.00  0.00    +0.000 OA
ENDROOT
BRANCH   1   8
ATOM      6  C   UNL     1       2.877   4.693  20.093  0.00  0.00    +0.000 A 
ATOM      7  C   UNL     1       2.505   6.021  19.812  0.00  0.00    +0.000 A 
ATOM      8  C   UNL     1       2.990   6.696  18.688  0.00  0.00    +0.000 A 
ATOM      9  C   UNL     1       3.958   6.059  17.915  0.00  0.00    +0.000 A 
ATOM     10  C   UNL     1       4.415   4.764  18.223  0.00  0.00    +0.000 A 
ATOM     11  C   UNL     1       3.867   4.054  19.315  0.00  0.00    +0.000 A 
BRANCH   6  13
ATOM     12  C   UNL     1       1.092   3.328  20.872  0.00  0.00    +0.000 C 
ATOM     13  O   UNL     1       2.306   4.032  21.151  0.00  0.00    +0.000 OA
ENDBRANCH   6  13
BRANCH  10  14
ATOM     14  O   UNL     1       5.373   4.355  17.326  0.00  0.00    +0.000 OA
ATOM     15  C   UNL     1       6.732   4.707  17.533  0.00  0.00    +0.000 C 
ENDBRANCH  10  14
BRANCH  11  16
ATOM     16  O   UNL     1       4.356   2.792  19.515  0.00  0.00    +0.000 OA
ATOM     17  C   UNL     1       3.771   1.662  18.891  0.00  0.00    +0.000 C 
ENDBRANCH  11  16
ENDBRANCH   1   8
BRANCH   4  18
ATOM     18  S   UNL     1       0.371  11.102  19.261  0.00  0.00    +0.000 S 
BRANCH  18  19
ATOM     19  C   UNL     1      -1.227  10.268  19.431  0.00  0.00    +0.000 C 
BRANCH  19  20
ATOM     20  C   UNL     1      -2.115  10.510  18.227  0.00  0.00    +0.000 A 
ATOM     21  C   UNL     1      -1.859   9.810  17.033  0.00  0.00    +0.000 A 
ATOM     22  C   UNL     1      -2.663   9.998  15.901  0.00  0.00    +0.000 A 
ATOM     23  C   UNL     1      -3.733  10.883  15.941  0.00  0.00    +0.000 A 
ATOM     24  C   UNL     1      -4.009  11.577  17.117  0.00  0.00    +0.000 A 
ATOM     25  C   UNL     1      -3.209  11.388  18.253  0.00  0.00    +0.000 A 
ATOM     26 CL   UNL     1      -3.633  12.280  19.673  0.00  0.00    +0.000 Cl
ENDBRANCH  19  20
ENDBRANCH  18  19
ENDBRANCH   4  18
TORSDOF 7
ENDMDL
MODEL 2
REMARK VINA RESULT:      -7.6      1.788      3.079
REMARK  Name = 
REMARK  10 active torsions:
REMARK  status: ('A' for Active; 'I' for Inactive)
REMARK    1  A    between atoms: C_1  and  O_2
REMARK    2  A    between atoms: O_2  and  C_3
REMARK    3  A    between atoms: C_5  and  C_6
REMARK    4  A    between atoms: C_9  and  S_10
REMARK    5  A    between atoms: S_10  and  C_11
REMARK    6  A    between atoms: C_11  and  C_12
REMARK    7  A    between atoms: C_21  and  O_22
REMARK    8  A    between atoms: O_22  and  C_23
REMARK    9  A    between atoms: C_24  and  O_25
REMARK   10  A    between atoms: O_25  and  C_26
REMARK                            x       y       z     vdW  Elec       q    Type
REMARK                         _______ _______ _______ _____ _____    ______ ____
ROOT
ATOM      1  C   UNL     1       2.550   7.670  18.697  0.00  0.00    +0.000 A 
ATOM      2  N   UNL     1       2.066   7.585  19.919  0.00  0.00    +0.000 NA
ATOM      3  N   UNL     1       1.277   8.697  20.110  0.00  0.00    +0.000 NA
ATOM      4  C   UNL     1       1.317   9.393  18.991  0.00  0.00    +0.000 A 
ATOM      5  O   UNL     1       2.106   8.794  18.039  0.00  0.00    +0.000 OA
ENDROOT
BRANCH   1   8
ATOM      6  C   UNL     1       5.513   6.190  16.903  0.00  0.00    +0.000 A 
ATOM      7  C   UNL     1       4.610   7.113  17.460  0.00  0.00    +0.000 A 
ATOM      8  C   UNL     1       3.368   6.714  17.964  0.00  0.00    +0.000 A 
ATOM      9  C   UNL     1       2.991   5.384  17.782  0.00  0.00    +0.000 A 
ATOM     10  C   UNL     1       3.838   4.457  17.147  0.00  0.00    +0.000 A 
ATOM     11  C   UNL     1       5.124   4.846  16.709  0.00  0.00    +0.000 A 
BRANCH   6  13
ATOM     12  C   UNL     1       7.484   7.403  17.449  0.00  0.00    +0.000 C 
ATOM     13  O   UNL     1       6.760   6.605  16.508  0.00  0.00    +0.000 OA
ENDBRANCH   6  13
BRANCH  10  14
ATOM     14  O   UNL     1       3.245   3.219  17.077  0.00  0.00    +0.000 OA
ATOM     15  C   UNL     1       3.340   2.326  18.176  0.00  0.00    +0.000 C 
ENDBRANCH  10  14
BRANCH  11  16
ATOM     16  O   UNL     1       5.882   3.865  16.130  0.00  0.00    +0.000 OA
ATOM     17  C   UNL     1       6.047   3.789  14.724  0.00  0.00    +0.000 C 
ENDBRANCH  11  16
ENDBRANCH   1   8
BRANCH   4  18
ATOM     18  S   UNL     1       0.486  10.907  18.801  0.00  0.00    +0.000 S 
BRANCH  18  19
ATOM     19  C   UNL     1      -1.212  10.470  19.255  0.00  0.00    +0.000 C 
BRANCH  19  20
ATOM     20  C   UNL     1      -2.156  10.598  18.077  0.00  0.00    +0.000 A 
ATOM     21  C   UNL     1      -1.882   9.884  16.895  0.00  0.00    +0.000 A 
ATOM     22  C   UNL     1      -2.736   9.968  15.787  0.00  0.00    +0.000 A 
ATOM     23  C   UNL     1      -3.875  10.762  15.839  0.00  0.00    +0.000 A 
ATOM     24  C   UNL     1      -4.170  11.467  17.004  0.00  0.00    +0.000 A 
ATOM     25  C   UNL     1      -3.320  11.382  18.116  0.00  0.00    +0.000 A 
ATOM     26 CL   UNL     1      -3.771  12.281  19.523  0.00  0.00    +0.000 Cl
ENDBRANCH  19  20
ENDBRANCH  18  19
ENDBRANCH   4  18
TORSDOF 7
ENDMDL
MODEL 3
REMARK VINA RESULT:      -7.4      1.456      2.805
REMARK  Name = 
REMARK  10 active torsions:
REMARK  status: ('A' for Active; 'I' for Inactive)
REMARK    1  A    between atoms: C_1  and  O_2
REMARK    2  A    between atoms: O_2  and  C_3
REMARK    3  A    between atoms: C_5  and  C_6
REMARK    4  A    between atoms: C_9  and  S_10
REMARK    5  A    between atoms: S_10  and  C_11
REMARK    6  A    between atoms: C_11  and  C_12
REMARK    7  A    between atoms: C_21  and  O_22
REMARK    8  A    between atoms: O_22  and  C_23
REMARK    9  A    between atoms: C_24  and  O_25
REMARK   10  A    between atoms: O_25  and  C_26
REMARK                            x       y       z     vdW  Elec       q    Type
REMARK                         _______ _______ _______ _____ _____    ______ ____
ROOT
ATOM      1  C   UNL     1       1.793   7.771  20.110  0.00  0.00    +0.000 A 
ATOM      2  N   UNL     1       1.420   8.166  21.309  0.00  0.00    +0.000 NA
ATOM      3  N   UNL     1       0.892   9.429  21.162  0.00  0.00    +0.000 NA
ATOM      4  C   UNL     1       0.966   9.729  19.880  0.00  0.00    +0.000 A 
ATOM      5  O   UNL     1       1.524   8.713  19.144  0.00  0.00    +0.000 OA
ENDROOT
BRANCH   1   8
ATOM      6  C   UNL     1       3.632   5.195  18.065  0.00  0.00    +0.000 A 
ATOM      7  C   UNL     1       2.944   6.363  18.442  0.00  0.00    +0.000 A 
ATOM      8  C   UNL     1       2.330   6.482  19.693  0.00  0.00    +0.000 A 
ATOM      9  C   UNL     1       2.307   5.356  20.515  0.00  0.00    +0.000 A 
ATOM     10  C   UNL     1       2.911   4.146  20.126  0.00  0.00    +0.000 A 
ATOM     11  C   UNL     1       3.598   4.053  18.894  0.00  0.00    +0.000 A 
BRANCH   6  13
ATOM     12  C   UNL     1       5.060   6.319  16.531  0.00  0.00    +0.000 C 
ATOM     13  O   UNL     1       4.303   5.153  16.869  0.00  0.00    +0.000 OA
ENDBRANCH   6  13
BRANCH  10  14
ATOM     14  O   UNL     1       2.749   3.184  21.094  0.00  0.00    +0.000 OA
ATOM     15  C   UNL     1       1.448   2.725  21.424  0.00  0.00    +0.000 C 
ENDBRANCH  10  14
BRANCH  11  16
ATOM     16  O   UNL     1       4.175   2.843  18.619  0.00  0.00    +0.000 OA
ATOM     17  C   UNL     1       3.426   1.772  18.069  0.00  0.00    +0.000 C 
ENDBRANCH  11  16
ENDBRANCH   1   8
BRANCH   4  18
ATOM     18  S   UNL     1       0.442  11.259  19.245  0.00  0.00    +0.000 S 
BRANCH  18  19
ATOM     19  C   UNL     1      -1.322  11.261  19.657  0.00  0.00    +0.000 C 
BRANCH  19  20
ATOM     20  C   UNL     1      -2.183  11.049  18.429  0.00  0.00    +0.000 A 
ATOM     21  C   UNL     1      -1.678  10.291  17.357  0.00  0.00    +0.000 A 
ATOM     22  C   UNL     1      -2.446  10.063  16.208  0.00  0.00    +0.000 A 
ATOM     23  C   UNL     1      -3.730  10.586  16.110  0.00  0.00    +0.000 A 
ATOM     24  C   UNL     1      -4.253  11.330  17.165  0.00  0.00    +0.000 A 
ATOM     25  C   UNL     1      -3.488  11.556  18.318  0.00  0.00    +0.000 A 
ATOM     26 CL   UNL     1      -4.221  12.479  19.583  0.00  0.00    +0.000 Cl
ENDBRANCH  19  20
ENDBRANCH  18  19
ENDBRANCH   4  18
TORSDOF 7
ENDMDL
MODEL 4
REMARK VINA RESULT:      -7.4      1.330      2.490
REMARK  Name = 
REMARK  10 active torsions:
REMARK  status: ('A' for Active; 'I' for Inactive)
REMARK    1  A    between atoms: C_1  and  O_2
REMARK    2  A    between atoms: O_2  and  C_3
REMARK    3  A    between atoms: C_5  and  C_6
REMARK    4  A    between atoms: C_9  and  S_10
REMARK    5  A    between atoms: S_10  and  C_11
REMARK    6  A    between atoms: C_11  and  C_12
REMARK    7  A    between atoms: C_21  and  O_22
REMARK    8  A    between atoms: O_22  and  C_23
REMARK    9  A    between atoms: C_24  and  O_25
REMARK   10  A    between atoms: O_25  and  C_26
REMARK                            x       y       z     vdW  Elec       q    Type
REMARK                         _______ _______ _______ _____ _____    ______ ____
ROOT
ATOM      1  C   UNL     1       2.384   7.734  18.226  0.00  0.00    +0.000 A 
ATOM      2  N   UNL     1       2.570   8.686  17.336  0.00  0.00    +0.000 NA
ATOM      3  N   UNL     1       1.967   9.818  17.836  0.00  0.00    +0.000 NA
ATOM      4  C   UNL     1       1.454   9.494  19.006  0.00  0.00    +0.000 A 
ATOM      5  O   UNL     1       1.688   8.179  19.326  0.00  0.00    +0.000 OA
ENDROOT
BRANCH   1   8
ATOM      6  C   UNL     1       4.745   4.837  18.707  0.00  0.00    +0.000 A 
ATOM      7  C   UNL     1       4.242   6.137  18.514  0.00  0.00    +0.000 A 
ATOM      8  C   UNL     1       2.893   6.369  18.231  0.00  0.00    +0.000 A 
ATOM      9  C   UNL     1       2.075   5.260  18.016  0.00  0.00    +0.000 A 
ATOM     10  C   UNL     1       2.571   3.946  18.114  0.00  0.00    +0.000 A 
ATOM     11  C   UNL     1       3.917   3.716  18.477  0.00  0.00    +0.000 A 
BRANCH   6  13
ATOM     12  C   UNL     1       7.019   4.719  18.026  0.00  0.00    +0.000 C 
ATOM     13  O   UNL     1       6.053   4.657  19.078  0.00  0.00    +0.000 OA
ENDBRANCH   6  13
BRANCH  10  14
ATOM     14  O   UNL     1       1.582   3.029  17.851  0.00  0.00    +0.000 OA
ATOM     15  C   UNL     1       0.806   2.501  18.915  0.00  0.00    +0.000 C 
ENDBRANCH  10  14
BRANCH  11  16
ATOM     16  O   UNL     1       4.295   2.405  18.573  0.00  0.00    +0.000 OA
ATOM     17  C   UNL     1       4.392   1.751  19.828  0.00  0.00    +0.000 C 
ENDBRANCH  11  16
ENDBRANCH   1   8
BRANCH   4  18
ATOM     18  S   UNL     1       0.559  10.622  19.980  0.00  0.00    +0.000 S 
BRANCH  18  19
ATOM     19  C   UNL     1      -0.134  11.738  18.733  0.00  0.00    +0.000 C 
BRANCH  19  20
ATOM     20  C   UNL     1      -1.555  11.358  18.371  0.00  0.00    +0.000 A 
ATOM     21  C   UNL     1      -1.774  10.370  17.394  0.00  0.00    +0.000 A 
ATOM     22  C   UNL     1      -3.073   9.983  17.038  0.00  0.00    +0.000 A 
ATOM     23  C   UNL     1      -4.172  10.574  17.650  0.00  0.00    +0.000 A 
ATOM     24  C   UNL     1      -3.975  11.547  18.627  0.00  0.00    +0.000 A 
ATOM     25  C   UNL     1      -2.676  11.933  18.989  0.00  0.00    +0.000 A 
ATOM     26 CL   UNL     1      -2.526  13.137  20.220  0.00  0.00    +0.000 Cl
ENDBRANCH  19  20
ENDBRANCH  18  19
ENDBRANCH   4  18
TORSDOF 7
ENDMDL
MODEL 5
REMARK VINA RESULT:      -7.2      1.452      1.494
REMARK  Name = 
REMARK  10 active torsions:
REMARK  status: ('A' for Active; 'I' for Inactive)
REMARK    1  A    between atoms: C_1  and  O_2
REMARK    2  A    between atoms: O_2  and  C_3
REMARK    3  A    between atoms: C_5  and  C_6
REMARK    4  A    between atoms: C_9  and  S_10
REMARK    5  A    between atoms: S_10  and  C_11
REMARK    6  A    between atoms: C_11  and  C_12
REMARK    7  A    between atoms: C_21  and  O_22
REMARK    8  A    between atoms: O_22  and  C_23
REMARK    9  A    between atoms: C_24  and  O_25
REMARK   10  A    between atoms: O_25  and  C_26
REMARK                            x       y       z     vdW  Elec       q    Type
REMARK                         _______ _______ _______ _____ _____    ______ ____
ROOT
ATOM      1  C   UNL     1       1.690   7.925  20.131  0.00  0.00    +0.000 A 
ATOM      2  N   UNL     1       1.080   8.226  21.258  0.00  0.00    +0.000 NA
ATOM      3  N   UNL     1       0.501   9.462  21.076  0.00  0.00    +0.000 NA
ATOM      4  C   UNL     1       0.785   9.841  19.846  0.00  0.00    +0.000 A 
ATOM      5  O   UNL     1       1.536   8.906  19.177  0.00  0.00    +0.000 OA
ENDROOT
BRANCH   1   8
ATOM      6  C   UNL     1       2.817   4.331  20.219  0.00  0.00    +0.000 A 
ATOM      7  C   UNL     1       2.320   5.588  20.609  0.00  0.00    +0.000 A 
ATOM      8  C   UNL     1       2.381   6.697  19.759  0.00  0.00    +0.000 A 
ATOM      9  C   UNL     1       3.067   6.555  18.554  0.00  0.00    +0.000 A 
ATOM     10  C   UNL     1       3.651   5.332  18.177  0.00  0.00    +0.000 A 
ATOM     11  C   UNL     1       3.521   4.193  19.003  0.00  0.00    +0.000 A 
BRANCH   6  13
ATOM     12  C   UNL     1       1.312   2.768  21.192  0.00  0.00    +0.000 C 
ATOM     13  O   UNL     1       2.652   3.245  21.042  0.00  0.00    +0.000 OA
ENDBRANCH   6  13
BRANCH  10  14
ATOM     14  O   UNL     1       4.277   5.442  16.958  0.00  0.00    +0.000 OA
ATOM     15  C   UNL     1       5.643   5.821  16.896  0.00  0.00    +0.000 C 
ENDBRANCH  10  14
BRANCH  11  16
ATOM     16  O   UNL     1       4.099   3.044  18.535  0.00  0.00    +0.000 OA
ATOM     17  C   UNL     1       3.336   2.039  17.889  0.00  0.00    +0.000 C 
ENDBRANCH  11  16
ENDBRANCH   1   8
BRANCH   4  18
ATOM     18  S   UNL     1       0.280  11.373  19.199  0.00  0.00    +0.000 S 
BRANCH  18  19
ATOM     19  C   UNL     1      -1.485  11.397  19.606  0.00  0.00    +0.000 C 
BRANCH  19  20
ATOM     20  C   UNL     1      -2.346  11.210  18.374  0.00  0.00    +0.000 A 
ATOM     21  C   UNL     1      -1.798  10.580  17.241  0.00  0.00    +0.000 A 
ATOM     22  C   UNL     1      -2.564  10.379  16.086  0.00  0.00    +0.000 A 
ATOM     23  C   UNL     1      -3.887  10.801  16.041  0.00  0.00    +0.000 A 
ATOM     24  C   UNL     1      -4.452  11.416  17.156  0.00  0.00    +0.000 A 
ATOM     25  C   UNL     1      -3.689  11.615  18.316  0.00  0.00    +0.000 A 
ATOM     26 CL   UNL     1      -4.474  12.376  19.656  0.00  0.00    +0.000 Cl
ENDBRANCH  19  20
ENDBRANCH  18  19
ENDBRANCH   4  18
TORSDOF 7
ENDMDL
MODEL 6
REMARK VINA RESULT:      -7.2      6.945      9.494
REMARK  Name = 
REMARK  10 active torsions:
REMARK  status: ('A' for Active; 'I' for Inactive)
REMARK    1  A    between atoms: C_1  and  O_2
REMARK    2  A    between atoms: O_2  and  C_3
REMARK    3  A    between atoms: C_5  and  C_6
REMARK    4  A    between atoms: C_9  and  S_10
REMARK    5  A    between atoms: S_10  and  C_11
REMARK    6  A    between atoms: C_11  and  C_12
REMARK    7  A    between atoms: C_21  and  O_22
REMARK    8  A    between atoms: O_22  and  C_23
REMARK    9  A    between atoms: C_24  and  O_25
REMARK   10  A    between atoms: O_25  and  C_26
REMARK                            x       y       z     vdW  Elec       q    Type
REMARK                         _______ _______ _______ _____ _____    ______ ____
ROOT
ATOM      1  C   UNL     1       8.529   9.151  18.207  0.00  0.00    +0.000 A 
ATOM      2  N   UNL     1       7.632   9.074  17.247  0.00  0.00    +0.000 NA
ATOM      3  N   UNL     1       7.152   7.784  17.256  0.00  0.00    +0.000 NA
ATOM      4  C   UNL     1       7.777   7.149  18.228  0.00  0.00    +0.000 A 
ATOM      5  O   UNL     1       8.668   7.961  18.886  0.00  0.00    +0.000 OA
ENDROOT
BRANCH   1   8
ATOM      6  C   UNL     1       9.928  11.743  20.556  0.00  0.00    +0.000 A 
ATOM      7  C   UNL     1       9.108  10.745  19.999  0.00  0.00    +0.000 A 
ATOM      8  C   UNL     1       9.273  10.311  18.680  0.00  0.00    +0.000 A 
ATOM      9  C   UNL     1      10.196  10.988  17.884  0.00  0.00    +0.000 A 
ATOM     10  C   UNL     1      10.968  12.051  18.390  0.00  0.00    +0.000 A 
ATOM     11  C   UNL     1      10.853  12.435  19.745  0.00  0.00    +0.000 A 
BRANCH   6  13
ATOM     12  C   UNL     1       8.540  12.627  22.272  0.00  0.00    +0.000 C 
ATOM     13  O   UNL     1       9.799  12.073  21.882  0.00  0.00    +0.000 OA
ENDBRANCH   6  13
BRANCH  10  14
ATOM     14  O   UNL     1      11.794  12.563  17.418  0.00  0.00    +0.000 OA
ATOM     15  C   UNL     1      11.355  13.650  16.619  0.00  0.00    +0.000 C 
ENDBRANCH  10  14
BRANCH  11  16
ATOM     16  O   UNL     1      11.666  13.460  20.148  0.00  0.00    +0.000 OA
ATOM     17  C   UNL     1      11.201  14.798  20.203  0.00  0.00    +0.000 C 
ENDBRANCH  11  16
ENDBRANCH   1   8
BRANCH   4  18
ATOM     18  S   UNL     1       7.503   5.468  18.575  0.00  0.00    +0.000 S 
BRANCH  18  19
ATOM     19  C   UNL     1       6.085   5.085  17.516  0.00  0.00    +0.000 C 
BRANCH  19  20
ATOM     20  C   UNL     1       4.831   4.837  18.328  0.00  0.00    +0.000 A 
ATOM     21  C   UNL     1       4.726   3.658  19.089  0.00  0.00    +0.000 A 
ATOM     22  C   UNL     1       3.587   3.397  19.862  0.00  0.00    +0.000 A 
ATOM     23  C   UNL     1       2.536   4.306  19.889  0.00  0.00    +0.000 A 
ATOM     24  C   UNL     1       2.626   5.484  19.152  0.00  0.00    +0.000 A 
ATOM     25  C   UNL     1       3.766   5.751  18.381  0.00  0.00    +0.000 A 
ATOM     26 CL   UNL     1       3.797   7.243  17.508  0.00  0.00    +0.000 Cl
ENDBRANCH  19  20
ENDBRANCH  18  19
ENDBRANCH   4  18
TORSDOF 7
ENDMDL
MODEL 7
REMARK VINA RESULT:      -7.2      2.059      3.365
REMARK  Name = 
REMARK  10 active torsions:
REMARK  status: ('A' for Active; 'I' for Inactive)
REMARK    1  A    between atoms: C_1  and  O_2
REMARK    2  A    between atoms: O_2  and  C_3
REMARK    3  A    between atoms: C_5  and  C_6
REMARK    4  A    between atoms: C_9  and  S_10
REMARK    5  A    between atoms: S_10  and  C_11
REMARK    6  A    between atoms: C_11  and  C_12
REMARK    7  A    between atoms: C_21  and  O_22
REMARK    8  A    between atoms: O_22  and  C_23
REMARK    9  A    between atoms: C_24  and  O_25
REMARK   10  A    between atoms: O_25  and  C_26
REMARK                            x       y       z     vdW  Elec       q    Type
REMARK                         _______ _______ _______ _____ _____    ______ ____
ROOT
ATOM      1  C   UNL     1       2.573   6.724  19.413  0.00  0.00    +0.000 A 
ATOM      2  N   UNL     1       1.942   6.250  20.467  0.00  0.00    +0.000 NA
ATOM      3  N   UNL     1       1.179   7.281  20.967  0.00  0.00    +0.000 NA
ATOM      4  C   UNL     1       1.381   8.323  20.185  0.00  0.00    +0.000 A 
ATOM      5  O   UNL     1       2.256   8.040  19.164  0.00  0.00    +0.000 OA
ENDROOT
BRANCH   1   8
ATOM      6  C   UNL     1       5.408   6.084  17.015  0.00  0.00    +0.000 A 
ATOM      7  C   UNL     1       4.438   6.736  17.798  0.00  0.00    +0.000 A 
ATOM      8  C   UNL     1       3.437   6.027  18.469  0.00  0.00    +0.000 A 
ATOM      9  C   UNL     1       3.347   4.655  18.237  0.00  0.00    +0.000 A 
ATOM     10  C   UNL     1       4.250   3.989  17.388  0.00  0.00    +0.000 A 
ATOM     11  C   UNL     1       5.307   4.696  16.773  0.00  0.00    +0.000 A 
BRANCH   6  13
ATOM     12  C   UNL     1       7.389   7.352  17.361  0.00  0.00    +0.000 C 
ATOM     13  O   UNL     1       6.430   6.805  16.452  0.00  0.00    +0.000 OA
ENDBRANCH   6  13
BRANCH  10  14
ATOM     14  O   UNL     1       3.953   2.649  17.312  0.00  0.00    +0.000 OA
ATOM     15  C   UNL     1       2.980   2.090  18.181  0.00  0.00    +0.000 C 
ENDBRANCH  10  14
BRANCH  11  16
ATOM     16  O   UNL     1       6.148   3.955  15.989  0.00  0.00    +0.000 OA
ATOM     17  C   UNL     1       6.022   3.938  14.577  0.00  0.00    +0.000 C 
ENDBRANCH  11  16
ENDBRANCH   1   8
BRANCH   4  18
ATOM     18  S   UNL     1       0.638   9.867  20.472  0.00  0.00    +0.000 S 
BRANCH  18  19
ATOM     19  C   UNL     1       0.483  10.535  18.796  0.00  0.00    +0.000 C 
BRANCH  19  20
ATOM     20  C   UNL     1      -0.968  10.662  18.377  0.00  0.00    +0.000 A 
ATOM     21  C   UNL     1      -1.486   9.775  17.414  0.00  0.00    +0.000 A 
ATOM     22  C   UNL     1      -2.824   9.854  17.007  0.00  0.00    +0.000 A 
ATOM     23  C   UNL     1      -3.667  10.815  17.553  0.00  0.00    +0.000 A 
ATOM     24  C   UNL     1      -3.176  11.694  18.516  0.00  0.00    +0.000 A 
ATOM     25  C   UNL     1      -1.838  11.615  18.928  0.00  0.00    +0.000 A 
ATOM     26 CL   UNL     1      -1.318  12.738  20.137  0.00  0.00    +0.000 Cl
ENDBRANCH  19  20
ENDBRANCH  18  19
ENDBRANCH   4  18
TORSDOF 7
ENDMDL
MODEL 8
REMARK VINA RESULT:      -7.1      3.755      5.899
REMARK  Name = 
REMARK  10 active torsions:
REMARK  status: ('A' for Active; 'I' for Inactive)
REMARK    1  A    between atoms: C_1  and  O_2
REMARK    2  A    between atoms: O_2  and  C_3
REMARK    3  A    between atoms: C_5  and  C_6
REMARK    4  A    between atoms: C_9  and  S_10
REMARK    5  A    between atoms: S_10  and  C_11
REMARK    6  A    between atoms: C_11  and  C_12
REMARK    7  A    between atoms: C_21  and  O_22
REMARK    8  A    between atoms: O_22  and  C_23
REMARK    9  A    between atoms: C_24  and  O_25
REMARK   10  A    between atoms: O_25  and  C_26
REMARK                            x       y       z     vdW  Elec       q    Type
REMARK                         _______ _______ _______ _____ _____    ______ ____
ROOT
ATOM      1  C   UNL     1       3.593   4.183  17.129  0.00  0.00    +0.000 A 
ATOM      2  N   UNL     1       2.539   3.458  16.816  0.00  0.00    +0.000 NA
ATOM      3  N   UNL     1       1.618   3.646  17.822  0.00  0.00    +0.000 NA
ATOM      4  C   UNL     1       2.159   4.481  18.687  0.00  0.00    +0.000 A 
ATOM      5  O   UNL     1       3.419   4.874  18.307  0.00  0.00    +0.000 OA
ENDROOT
BRANCH   1   8
ATOM      6  C   UNL     1       6.102   3.984  14.326  0.00  0.00    +0.000 A 
ATOM      7  C   UNL     1       5.036   3.681  15.192  0.00  0.00    +0.000 A 
ATOM      8  C   UNL     1       4.812   4.411  16.364  0.00  0.00    +0.000 A 
ATOM      9  C   UNL     1       5.756   5.372  16.721  0.00  0.00    +0.000 A 
ATOM     10  C   UNL     1       6.881   5.636  15.918  0.00  0.00    +0.000 A 
ATOM     11  C   UNL     1       7.063   4.951  14.695  0.00  0.00    +0.000 A 
BRANCH   6  13
ATOM     12  C   UNL     1       5.126   3.406  12.237  0.00  0.00    +0.000 C 
ATOM     13  O   UNL     1       6.232   3.310  13.138  0.00  0.00    +0.000 OA
ENDBRANCH   6  13
BRANCH  10  14
ATOM     14  O   UNL     1       7.667   6.613  16.481  0.00  0.00    +0.000 OA
ATOM     15  C   UNL     1       7.137   7.444  17.502  0.00  0.00    +0.000 C 
ENDBRANCH  10  14
BRANCH  11  16
ATOM     16  O   UNL     1       8.173   5.298  13.973  0.00  0.00    +0.000 OA
ATOM     17  C   UNL     1       8.075   5.736  12.628  0.00  0.00    +0.000 C 
ENDBRANCH  11  16
ENDBRANCH   1   8
BRANCH   4  18
ATOM     18  S   UNL     1       1.351   4.970  20.146  0.00  0.00    +0.000 S 
BRANCH  18  19
ATOM     19  C   UNL     1       2.301   6.431  20.638  0.00  0.00    +0.000 C 
BRANCH  19  20
ATOM     20  C   UNL     1       1.542   7.712  20.359  0.00  0.00    +0.000 A 
ATOM     21  C   UNL     1       0.620   8.186  21.311  0.00  0.00    +0.000 A 
ATOM     22  C   UNL     1      -0.094   9.372  21.095  0.00  0.00    +0.000 A 
ATOM     23  C   UNL     1       0.099  10.103  19.929  0.00  0.00    +0.000 A 
ATOM     24  C   UNL     1       1.015   9.656  18.980  0.00  0.00    +0.000 A 
ATOM     25  C   UNL     1       1.735   8.472  19.195  0.00  0.00    +0.000 A 
ATOM     26 CL   UNL     1       2.860   8.000  17.969  0.00  0.00    +0.000 Cl
ENDBRANCH  19  20
ENDBRANCH  18  19
ENDBRANCH   4  18
TORSDOF 7
ENDMDL
MODEL 9
REMARK VINA RESULT:      -7.1      0.990      2.622
REMARK  Name = 
REMARK  10 active torsions:
REMARK  status: ('A' for Active; 'I' for Inactive)
REMARK    1  A    between atoms: C_1  and  O_2
REMARK    2  A    between atoms: O_2  and  C_3
REMARK    3  A    between atoms: C_5  and  C_6
REMARK    4  A    between atoms: C_9  and  S_10
REMARK    5  A    between atoms: S_10  and  C_11
REMARK    6  A    between atoms: C_11  and  C_12
REMARK    7  A    between atoms: C_21  and  O_22
REMARK    8  A    between atoms: O_22  and  C_23
REMARK    9  A    between atoms: C_24  and  O_25
REMARK   10  A    between atoms: O_25  and  C_26
REMARK                            x       y       z     vdW  Elec       q    Type
REMARK                         _______ _______ _______ _____ _____    ______ ____
ROOT
ATOM      1  C   UNL     1       2.265   7.817  18.322  0.00  0.00    +0.000 A 
ATOM      2  N   UNL     1       2.474   8.700  17.369  0.00  0.00    +0.000 NA
ATOM      3  N   UNL     1       1.926   9.886  17.803  0.00  0.00    +0.000 NA
ATOM      4  C   UNL     1       1.421   9.661  18.999  0.00  0.00    +0.000 A 
ATOM      5  O   UNL     1       1.607   8.361  19.401  0.00  0.00    +0.000 OA
ENDROOT
BRANCH   1   8
ATOM      6  C   UNL     1       4.407   4.755  17.837  0.00  0.00    +0.000 A 
ATOM      7  C   UNL     1       3.823   6.022  17.658  0.00  0.00    +0.000 A 
ATOM      8  C   UNL     1       2.718   6.434  18.409  0.00  0.00    +0.000 A 
ATOM      9  C   UNL     1       2.126   5.501  19.259  0.00  0.00    +0.000 A 
ATOM     10  C   UNL     1       2.636   4.196  19.392  0.00  0.00    +0.000 A 
ATOM     11  C   UNL     1       3.799   3.808  18.690  0.00  0.00    +0.000 A 
BRANCH   6  13
ATOM     12  C   UNL     1       5.511   4.626  15.735  0.00  0.00    +0.000 C 
ATOM     13  O   UNL     1       5.548   4.425  17.151  0.00  0.00    +0.000 OA
ENDBRANCH   6  13
BRANCH  10  14
ATOM     14  O   UNL     1       1.880   3.462  20.275  0.00  0.00    +0.000 OA
ATOM     15  C   UNL     1       2.175   3.506  21.663  0.00  0.00    +0.000 C 
ENDBRANCH  10  14
BRANCH  11  16
ATOM     16  O   UNL     1       4.232   2.528  18.908  0.00  0.00    +0.000 OA
ATOM     17  C   UNL     1       3.591   1.416  18.306  0.00  0.00    +0.000 C 
ENDBRANCH  11  16
ENDBRANCH   1   8
BRANCH   4  18
ATOM     18  S   UNL     1       0.590  10.886  19.910  0.00  0.00    +0.000 S 
BRANCH  18  19
ATOM     19  C   UNL     1      -0.174  11.881  18.605  0.00  0.00    +0.000 C 
BRANCH  19  20
ATOM     20  C   UNL     1      -1.590  11.428  18.313  0.00  0.00    +0.000 A 
ATOM     21  C   UNL     1      -1.805  10.414  17.360  0.00  0.00    +0.000 A 
ATOM     22  C   UNL     1      -3.098   9.960  17.070  0.00  0.00    +0.000 A 
ATOM     23  C   UNL     1      -4.196  10.507  17.723  0.00  0.00    +0.000 A 
ATOM     24  C   UNL     1      -4.003  11.503  18.678  0.00  0.00    +0.000 A 
ATOM     25  C   UNL     1      -2.710  11.957  18.974  0.00  0.00    +0.000 A 
ATOM     26 CL   UNL     1      -2.563  13.186  20.181  0.00  0.00    +0.000 Cl
ENDBRANCH  19  20
ENDBRANCH  18  19
ENDBRANCH   4  18
TORSDOF 7
ENDMDL
