MODEL 1
REMARK VINA RESULT:      -8.6      0.000      0.000
REMARK  Name = 
REMARK  5 active torsions:
REMARK  status: ('A' for Active; 'I' for Inactive)
REMARK    1  A    between atoms: C_1  and  C_2
REMARK    2  A    between atoms: C_13  and  C_14
REMARK    3  A    between atoms: C_17  and  O_18
REMARK    4  A    between atoms: O_18  and  S_19
REMARK    5  A    between atoms: S_19  and  C_22
REMARK                            x       y       z     vdW  Elec       q    Type
REMARK                         _______ _______ _______ _____ _____    ______ ____
ROOT
ATOM      1  C   UNL     1       1.125  18.379  19.050  0.00  0.00    +0.000 C 
ATOM      2  C   UNL     1       1.676  17.102  18.477  0.00  0.00    +0.000 C 
ATOM      3  O   UNL     1       2.591  17.139  17.654  0.00  0.00    +0.000 OA
ATOM      4  N   UNL     1       1.149  15.915  18.947  0.00  0.00    +0.000 N 
ATOM      5  C   UNL     1       1.743  14.650  18.509  0.00  0.00    +0.000 C 
ATOM      6  C   UNL     1       2.138  13.804  19.724  0.00  0.00    +0.000 C 
ATOM      7  N   UNL     1       0.957  13.593  20.582  0.00  0.00    +0.000 N 
ATOM      8  C   UNL     1       0.600  12.377  21.114  0.00  0.00    +0.000 C 
ATOM      9  N   UNL     1      -0.121  12.192  22.170  0.00  0.00    +0.000 NA
ATOM     10  C   UNL     1      -0.294  10.860  22.493  0.00  0.00    +0.000 C 
ATOM     11  O   UNL     1      -0.924  10.448  23.459  0.00  0.00    +0.000 OA
ATOM     12  C   UNL     1       0.406   9.963  21.528  0.00  0.00    +0.000 C 
ATOM     13  C   UNL     1       0.482   8.634  21.661  0.00  0.00    +0.000 C 
ATOM     14  S   UNL     1       1.116  10.911  20.297  0.00  0.00    +0.000 S 
ATOM     15  C   UNL     1       0.358  14.849  21.068  0.00  0.00    +0.000 C 
ATOM     16  C   UNL     1       0.014  15.765  19.873  0.00  0.00    +0.000 C 
ENDROOT
BRANCH  13  17
ATOM     17  C   UNL     1       1.216   7.761  20.736  0.00  0.00    +0.000 A 
ATOM     18  C   UNL     1       1.754   8.282  19.555  0.00  0.00    +0.000 A 
ATOM     19  C   UNL     1       2.443   7.452  18.666  0.00  0.00    +0.000 A 
ATOM     20  C   UNL     1       2.612   6.095  18.956  0.00  0.00    +0.000 A 
ATOM     21  C   UNL     1       2.040   5.566  20.113  0.00  0.00    +0.000 A 
ATOM     22  C   UNL     1       1.349   6.396  21.003  0.00  0.00    +0.000 A 
BRANCH  20  23
ATOM     23  O   UNL     1       3.320   5.357  18.038  0.00  0.00    +0.000 OA
BRANCH  23  24
ATOM     24  S   UNL     1       4.764   4.697  18.431  0.00  0.00    +0.000 S 
ATOM     25  O   UNL     1       5.495   5.629  19.271  0.00  0.00    +0.000 OA
ATOM     26  O   UNL     1       4.555   3.326  18.859  0.00  0.00    +0.000 OA
BRANCH  24  27
ATOM     27  C   UNL     1       5.637   4.615  16.878  0.00  0.00    +0.000 A 
ATOM     28  C   UNL     1       4.974   4.158  15.732  0.00  0.00    +0.000 A 
ATOM     29  C   UNL     1       5.631   4.189  14.502  0.00  0.00    +0.000 A 
ATOM     30  C   UNL     1       6.935   4.680  14.415  0.00  0.00    +0.000 A 
ATOM     31  C   UNL     1       7.590   5.142  15.558  0.00  0.00    +0.000 A 
ATOM     32  C   UNL     1       6.942   5.114  16.794  0.00  0.00    +0.000 A 
ENDBRANCH  24  27
ENDBRANCH  23  24
ENDBRANCH  20  23
ENDBRANCH  13  17
TORSDOF 4
ENDMDL
MODEL 2
REMARK VINA RESULT:      -8.5      1.333      1.979
REMARK  Name = 
REMARK  5 active torsions:
REMARK  status: ('A' for Active; 'I' for Inactive)
REMARK    1  A    between atoms: C_1  and  C_2
REMARK    2  A    between atoms: C_13  and  C_14
REMARK    3  A    between atoms: C_17  and  O_18
REMARK    4  A    between atoms: O_18  and  S_19
REMARK    5  A    between atoms: S_19  and  C_22
REMARK                            x       y       z     vdW  Elec       q    Type
REMARK                         _______ _______ _______ _____ _____    ______ ____
ROOT
ATOM      1  C   UNL     1       0.798  18.003  19.280  0.00  0.00    +0.000 C 
ATOM      2  C   UNL     1       1.324  16.784  18.574  0.00  0.00    +0.000 C 
ATOM      3  O   UNL     1       2.128  16.904  17.649  0.00  0.00    +0.000 OA
ATOM      4  N   UNL     1       0.909  15.551  19.038  0.00  0.00    +0.000 N 
ATOM      5  C   UNL     1       1.494  14.339  18.462  0.00  0.00    +0.000 C 
ATOM      6  C   UNL     1       2.071  13.453  19.570  0.00  0.00    +0.000 C 
ATOM      7  N   UNL     1       1.015  13.144  20.554  0.00  0.00    +0.000 N 
ATOM      8  C   UNL     1       0.776  11.887  21.057  0.00  0.00    +0.000 C 
ATOM      9  N   UNL     1       0.201  11.616  22.182  0.00  0.00    +0.000 NA
ATOM     10  C   UNL     1       0.123  10.263  22.449  0.00  0.00    +0.000 C 
ATOM     11  O   UNL     1      -0.364   9.773  23.460  0.00  0.00    +0.000 OA
ATOM     12  C   UNL     1       0.734   9.449  21.357  0.00  0.00    +0.000 C 
ATOM     13  C   UNL     1       0.879   8.120  21.406  0.00  0.00    +0.000 C 
ATOM     14  S   UNL     1       1.245  10.490  20.103  0.00  0.00    +0.000 S 
ATOM     15  C   UNL     1       0.431  14.344  21.178  0.00  0.00    +0.000 C 
ATOM     16  C   UNL     1      -0.096  15.302  20.087  0.00  0.00    +0.000 C 
ENDROOT
BRANCH  13  17
ATOM     17  C   UNL     1       1.527   7.330  20.352  0.00  0.00    +0.000 A 
ATOM     18  C   UNL     1       1.694   5.951  20.509  0.00  0.00    +0.000 A 
ATOM     19  C   UNL     1       2.322   5.196  19.513  0.00  0.00    +0.000 A 
ATOM     20  C   UNL     1       2.778   5.813  18.344  0.00  0.00    +0.000 A 
ATOM     21  C   UNL     1       2.649   7.195  18.205  0.00  0.00    +0.000 A 
ATOM     22  C   UNL     1       2.022   7.951  19.201  0.00  0.00    +0.000 A 
BRANCH  20  23
ATOM     23  O   UNL     1       3.364   4.993  17.409  0.00  0.00    +0.000 OA
BRANCH  23  24
ATOM     24  S   UNL     1       4.727   4.163  17.763  0.00  0.00    +0.000 S 
ATOM     25  O   UNL     1       4.561   3.509  19.049  0.00  0.00    +0.000 OA
ATOM     26  O   UNL     1       5.132   3.402  16.596  0.00  0.00    +0.000 OA
BRANCH  24  27
ATOM     27  C   UNL     1       5.958   5.434  17.991  0.00  0.00    +0.000 A 
ATOM     28  C   UNL     1       6.922   5.295  18.997  0.00  0.00    +0.000 A 
ATOM     29  C   UNL     1       7.940   6.241  19.107  0.00  0.00    +0.000 A 
ATOM     30  C   UNL     1       8.002   7.313  18.213  0.00  0.00    +0.000 A 
ATOM     31  C   UNL     1       7.044   7.444  17.206  0.00  0.00    +0.000 A 
ATOM     32  C   UNL     1       6.020   6.502  17.089  0.00  0.00    +0.000 A 
ENDBRANCH  24  27
ENDBRANCH  23  24
ENDBRANCH  20  23
ENDBRANCH  13  17
TORSDOF 4
ENDMDL
MODEL 3
REMARK VINA RESULT:      -8.3      1.795      2.594
REMARK  Name = 
REMARK  5 active torsions:
REMARK  status: ('A' for Active; 'I' for Inactive)
REMARK    1  A    between atoms: C_1  and  C_2
REMARK    2  A    between atoms: C_13  and  C_14
REMARK    3  A    between atoms: C_17  and  O_18
REMARK    4  A    between atoms: O_18  and  S_19
REMARK    5  A    between atoms: S_19  and  C_22
REMARK                            x       y       z     vdW  Elec       q    Type
REMARK                         _______ _______ _______ _____ _____    ______ ____
ROOT
ATOM      1  C   UNL     1       0.515  17.486  19.478  0.00  0.00    +0.000 C 
ATOM      2  C   UNL     1       1.175  16.375  18.709  0.00  0.00    +0.000 C 
ATOM      3  O   UNL     1       2.006  16.635  17.837  0.00  0.00    +0.000 OA
ATOM      4  N   UNL     1       0.848  15.078  19.056  0.00  0.00    +0.000 N 
ATOM      5  C   UNL     1       1.561  13.969  18.419  0.00  0.00    +0.000 C 
ATOM      6  C   UNL     1       2.163  13.048  19.485  0.00  0.00    +0.000 C 
ATOM      7  N   UNL     1       1.095  12.575  20.388  0.00  0.00    +0.000 N 
ATOM      8  C   UNL     1       0.944  11.266  20.781  0.00  0.00    +0.000 C 
ATOM      9  N   UNL     1       0.346  10.860  21.851  0.00  0.00    +0.000 NA
ATOM     10  C   UNL     1       0.374   9.487  22.010  0.00  0.00    +0.000 C 
ATOM     11  O   UNL     1      -0.114   8.880  22.955  0.00  0.00    +0.000 OA
ATOM     12  C   UNL     1       1.100   8.817  20.892  0.00  0.00    +0.000 C 
ATOM     13  C   UNL     1       1.357   7.505  20.846  0.00  0.00    +0.000 C 
ATOM     14  S   UNL     1       1.574   9.994  19.749  0.00  0.00    +0.000 S 
ATOM     15  C   UNL     1       0.383  13.669  21.071  0.00  0.00    +0.000 C 
ATOM     16  C   UNL     1      -0.176  14.664  20.031  0.00  0.00    +0.000 C 
ENDROOT
BRANCH  13  17
ATOM     17  C   UNL     1       2.117   6.858  19.770  0.00  0.00    +0.000 A 
ATOM     18  C   UNL     1       2.513   5.523  19.893  0.00  0.00    +0.000 A 
ATOM     19  C   UNL     1       3.248   4.907  18.875  0.00  0.00    +0.000 A 
ATOM     20  C   UNL     1       3.582   5.617  17.719  0.00  0.00    +0.000 A 
ATOM     21  C   UNL     1       3.223   6.962  17.613  0.00  0.00    +0.000 A 
ATOM     22  C   UNL     1       2.490   7.579  18.632  0.00  0.00    +0.000 A 
BRANCH  20  23
ATOM     23  O   UNL     1       4.287   4.929  16.760  0.00  0.00    +0.000 OA
BRANCH  23  24
ATOM     24  S   UNL     1       5.445   5.675  15.878  0.00  0.00    +0.000 S 
ATOM     25  O   UNL     1       6.080   4.698  15.010  0.00  0.00    +0.000 OA
ATOM     26  O   UNL     1       4.903   6.905  15.333  0.00  0.00    +0.000 OA
BRANCH  24  27
ATOM     27  C   UNL     1       6.666   6.152  17.088  0.00  0.00    +0.000 A 
ATOM     28  C   UNL     1       7.116   7.477  17.135  0.00  0.00    +0.000 A 
ATOM     29  C   UNL     1       7.996   7.867  18.144  0.00  0.00    +0.000 A 
ATOM     30  C   UNL     1       8.415   6.944  19.105  0.00  0.00    +0.000 A 
ATOM     31  C   UNL     1       7.958   5.626  19.060  0.00  0.00    +0.000 A 
ATOM     32  C   UNL     1       7.079   5.226  18.052  0.00  0.00    +0.000 A 
ENDBRANCH  24  27
ENDBRANCH  23  24
ENDBRANCH  20  23
ENDBRANCH  13  17
TORSDOF 4
ENDMDL
MODEL 4
REMARK VINA RESULT:      -8.1      3.454      3.939
REMARK  Name = 
REMARK  5 active torsions:
REMARK  status: ('A' for Active; 'I' for Inactive)
REMARK    1  A    between atoms: C_1  and  C_2
REMARK    2  A    between atoms: C_13  and  C_14
REMARK    3  A    between atoms: C_17  and  O_18
REMARK    4  A    between atoms: O_18  and  S_19
REMARK    5  A    between atoms: S_19  and  C_22
REMARK                            x       y       z     vdW  Elec       q    Type
REMARK                         _______ _______ _______ _____ _____    ______ ____
ROOT
ATOM      1  C   UNL     1      -7.031  14.168  18.087  0.00  0.00    +0.000 C 
ATOM      2  C   UNL     1      -6.151  13.097  17.506  0.00  0.00    +0.000 C 
ATOM      3  O   UNL     1      -6.177  12.866  16.296  0.00  0.00    +0.000 OA
ATOM      4  N   UNL     1      -5.295  12.438  18.367  0.00  0.00    +0.000 N 
ATOM      5  C   UNL     1      -4.334  11.479  17.821  0.00  0.00    +0.000 C 
ATOM      6  C   UNL     1      -2.915  11.838  18.274  0.00  0.00    +0.000 C 
ATOM      7  N   UNL     1      -2.868  11.891  19.748  0.00  0.00    +0.000 N 
ATOM      8  C   UNL     1      -1.882  11.306  20.508  0.00  0.00    +0.000 C 
ATOM      9  N   UNL     1      -1.538  11.655  21.704  0.00  0.00    +0.000 NA
ATOM     10  C   UNL     1      -0.492  10.912  22.214  0.00  0.00    +0.000 C 
ATOM     11  O   UNL     1       0.012  11.074  23.319  0.00  0.00    +0.000 OA
ATOM     12  C   UNL     1      -0.017   9.885  21.241  0.00  0.00    +0.000 C 
ATOM     13  C   UNL     1       1.045   9.097  21.442  0.00  0.00    +0.000 C 
ATOM     14  S   UNL     1      -1.006   9.935  19.850  0.00  0.00    +0.000 S 
ATOM     15  C   UNL     1      -3.801  12.873  20.326  0.00  0.00    +0.000 C 
ATOM     16  C   UNL     1      -5.236  12.592  19.831  0.00  0.00    +0.000 C 
ENDROOT
BRANCH  13  17
ATOM     17  C   UNL     1       1.538   8.124  20.459  0.00  0.00    +0.000 A 
ATOM     18  C   UNL     1       1.931   8.549  19.186  0.00  0.00    +0.000 A 
ATOM     19  C   UNL     1       2.390   7.625  18.242  0.00  0.00    +0.000 A 
ATOM     20  C   UNL     1       2.472   6.268  18.568  0.00  0.00    +0.000 A 
ATOM     21  C   UNL     1       2.041   5.837  19.823  0.00  0.00    +0.000 A 
ATOM     22  C   UNL     1       1.581   6.762  20.767  0.00  0.00    +0.000 A 
BRANCH  20  23
ATOM     23  O   UNL     1       2.953   5.432  17.589  0.00  0.00    +0.000 OA
BRANCH  23  24
ATOM     24  S   UNL     1       4.057   4.278  17.944  0.00  0.00    +0.000 S 
ATOM     25  O   UNL     1       4.737   4.639  19.176  0.00  0.00    +0.000 OA
ATOM     26  O   UNL     1       3.439   2.974  17.796  0.00  0.00    +0.000 OA
BRANCH  24  27
ATOM     27  C   UNL     1       5.262   4.419  16.636  0.00  0.00    +0.000 A 
ATOM     28  C   UNL     1       4.926   4.019  15.337  0.00  0.00    +0.000 A 
ATOM     29  C   UNL     1       5.837   4.223  14.300  0.00  0.00    +0.000 A 
ATOM     30  C   UNL     1       7.069   4.829  14.557  0.00  0.00    +0.000 A 
ATOM     31  C   UNL     1       7.397   5.233  15.852  0.00  0.00    +0.000 A 
ATOM     32  C   UNL     1       6.493   5.032  16.896  0.00  0.00    +0.000 A 
ENDBRANCH  24  27
ENDBRANCH  23  24
ENDBRANCH  20  23
ENDBRANCH  13  17
TORSDOF 4
ENDMDL
MODEL 5
REMARK VINA RESULT:      -8.0      3.407      5.483
REMARK  Name = 
REMARK  5 active torsions:
REMARK  status: ('A' for Active; 'I' for Inactive)
REMARK    1  A    between atoms: C_1  and  C_2
REMARK    2  A    between atoms: C_13  and  C_14
REMARK    3  A    between atoms: C_17  and  O_18
REMARK    4  A    between atoms: O_18  and  S_19
REMARK    5  A    between atoms: S_19  and  C_22
REMARK                            x       y       z     vdW  Elec       q    Type
REMARK                         _______ _______ _______ _____ _____    ______ ____
ROOT
ATOM      1  C   UNL     1      -2.020  12.475  19.597  0.00  0.00    +0.000 C 
ATOM      2  C   UNL     1      -0.911  12.012  18.694  0.00  0.00    +0.000 C 
ATOM      3  O   UNL     1      -0.395  12.796  17.896  0.00  0.00    +0.000 OA
ATOM      4  N   UNL     1      -0.477  10.708  18.836  0.00  0.00    +0.000 N 
ATOM      5  C   UNL     1       0.683  10.256  18.065  0.00  0.00    +0.000 C 
ATOM      6  C   UNL     1       1.739   9.661  19.002  0.00  0.00    +0.000 C 
ATOM      7  N   UNL     1       1.138   8.568  19.791  0.00  0.00    +0.000 N 
ATOM      8  C   UNL     1       1.730   7.342  19.983  0.00  0.00    +0.000 C 
ATOM      9  N   UNL     1       1.498   6.532  20.962  0.00  0.00    +0.000 NA
ATOM     10  C   UNL     1       2.263   5.382  20.918  0.00  0.00    +0.000 C 
ATOM     11  O   UNL     1       2.226   4.482  21.749  0.00  0.00    +0.000 OA
ATOM     12  C   UNL     1       3.174   5.370  19.737  0.00  0.00    +0.000 C 
ATOM     13  C   UNL     1       4.089   4.422  19.507  0.00  0.00    +0.000 C 
ATOM     14  S   UNL     1       2.886   6.765  18.795  0.00  0.00    +0.000 S 
ATOM     15  C   UNL     1      -0.011   9.001  20.605  0.00  0.00    +0.000 C 
ATOM     16  C   UNL     1      -1.069   9.678  19.706  0.00  0.00    +0.000 C 
ENDROOT
BRANCH  13  17
ATOM     17  C   UNL     1       5.018   4.442  18.371  0.00  0.00    +0.000 A 
ATOM     18  C   UNL     1       4.721   3.726  17.207  0.00  0.00    +0.000 A 
ATOM     19  C   UNL     1       5.609   3.732  16.127  0.00  0.00    +0.000 A 
ATOM     20  C   UNL     1       6.798   4.464  16.196  0.00  0.00    +0.000 A 
ATOM     21  C   UNL     1       7.115   5.144  17.373  0.00  0.00    +0.000 A 
ATOM     22  C   UNL     1       6.228   5.137  18.454  0.00  0.00    +0.000 A 
BRANCH  20  23
ATOM     23  O   UNL     1       7.602   4.432  15.082  0.00  0.00    +0.000 OA
BRANCH  23  24
ATOM     24  S   UNL     1       7.135   5.158  13.693  0.00  0.00    +0.000 S 
ATOM     25  O   UNL     1       6.002   6.023  13.971  0.00  0.00    +0.000 OA
ATOM     26  O   UNL     1       8.309   5.675  13.014  0.00  0.00    +0.000 OA
BRANCH  24  27
ATOM     27  C   UNL     1       6.521   3.816  12.691  0.00  0.00    +0.000 A 
ATOM     28  C   UNL     1       5.146   3.697  12.459  0.00  0.00    +0.000 A 
ATOM     29  C   UNL     1       4.679   2.706  11.595  0.00  0.00    +0.000 A 
ATOM     30  C   UNL     1       5.581   1.847  10.961  0.00  0.00    +0.000 A 
ATOM     31  C   UNL     1       6.952   1.974  11.189  0.00  0.00    +0.000 A 
ATOM     32  C   UNL     1       7.428   2.962  12.053  0.00  0.00    +0.000 A 
ENDBRANCH  24  27
ENDBRANCH  23  24
ENDBRANCH  20  23
ENDBRANCH  13  17
TORSDOF 4
ENDMDL
MODEL 6
REMARK VINA RESULT:      -8.0      3.382      4.007
REMARK  Name = 
REMARK  5 active torsions:
REMARK  status: ('A' for Active; 'I' for Inactive)
REMARK    1  A    between atoms: C_1  and  C_2
REMARK    2  A    between atoms: C_13  and  C_14
REMARK    3  A    between atoms: C_17  and  O_18
REMARK    4  A    between atoms: O_18  and  S_19
REMARK    5  A    between atoms: S_19  and  C_22
REMARK                            x       y       z     vdW  Elec       q    Type
REMARK                         _______ _______ _______ _____ _____    ______ ____
ROOT
ATOM      1  C   UNL     1      -6.592  14.006  17.969  0.00  0.00    +0.000 C 
ATOM      2  C   UNL     1      -5.864  12.790  17.466  0.00  0.00    +0.000 C 
ATOM      3  O   UNL     1      -6.040  12.398  16.312  0.00  0.00    +0.000 OA
ATOM      4  N   UNL     1      -4.971  12.181  18.327  0.00  0.00    +0.000 N 
ATOM      5  C   UNL     1      -4.151  11.073  17.835  0.00  0.00    +0.000 C 
ATOM      6  C   UNL     1      -2.668  11.361  18.090  0.00  0.00    +0.000 C 
ATOM      7  N   UNL     1      -2.455  11.611  19.529  0.00  0.00    +0.000 N 
ATOM      8  C   UNL     1      -1.438  11.050  20.265  0.00  0.00    +0.000 C 
ATOM      9  N   UNL     1      -0.941  11.527  21.358  0.00  0.00    +0.000 NA
ATOM     10  C   UNL     1       0.097  10.769  21.866  0.00  0.00    +0.000 C 
ATOM     11  O   UNL     1       0.730  11.036  22.881  0.00  0.00    +0.000 OA
ATOM     12  C   UNL     1       0.383   9.580  21.012  0.00  0.00    +0.000 C 
ATOM     13  C   UNL     1       1.398   8.734  21.221  0.00  0.00    +0.000 C 
ATOM     14  S   UNL     1      -0.747   9.528  19.732  0.00  0.00    +0.000 S 
ATOM     15  C   UNL     1      -3.242  12.745  20.046  0.00  0.00    +0.000 C 
ATOM     16  C   UNL     1      -4.740  12.529  19.740  0.00  0.00    +0.000 C 
ENDROOT
BRANCH  13  17
ATOM     17  C   UNL     1       1.705   7.596  20.347  0.00  0.00    +0.000 A 
ATOM     18  C   UNL     1       2.330   7.805  19.114  0.00  0.00    +0.000 A 
ATOM     19  C   UNL     1       2.614   6.724  18.272  0.00  0.00    +0.000 A 
ATOM     20  C   UNL     1       2.286   5.423  18.663  0.00  0.00    +0.000 A 
ATOM     21  C   UNL     1       1.624   5.217  19.874  0.00  0.00    +0.000 A 
ATOM     22  C   UNL     1       1.339   6.298  20.715  0.00  0.00    +0.000 A 
BRANCH  20  23
ATOM     23  O   UNL     1       2.619   4.418  17.785  0.00  0.00    +0.000 OA
BRANCH  23  24
ATOM     24  S   UNL     1       3.932   3.480  18.050  0.00  0.00    +0.000 S 
ATOM     25  O   UNL     1       4.439   3.743  19.385  0.00  0.00    +0.000 OA
ATOM     26  O   UNL     1       3.634   2.124  17.628  0.00  0.00    +0.000 OA
BRANCH  24  27
ATOM     27  C   UNL     1       5.149   4.109  16.908  0.00  0.00    +0.000 A 
ATOM     28  C   UNL     1       6.441   4.402  17.361  0.00  0.00    +0.000 A 
ATOM     29  C   UNL     1       7.415   4.800  16.446  0.00  0.00    +0.000 A 
ATOM     30  C   UNL     1       7.104   4.895  15.088  0.00  0.00    +0.000 A 
ATOM     31  C   UNL     1       5.817   4.595  14.638  0.00  0.00    +0.000 A 
ATOM     32  C   UNL     1       4.835   4.198  15.547  0.00  0.00    +0.000 A 
ENDBRANCH  24  27
ENDBRANCH  23  24
ENDBRANCH  20  23
ENDBRANCH  13  17
TORSDOF 4
ENDMDL
MODEL 7
REMARK VINA RESULT:      -7.9      4.634     11.713
REMARK  Name = 
REMARK  5 active torsions:
REMARK  status: ('A' for Active; 'I' for Inactive)
REMARK    1  A    between atoms: C_1  and  C_2
REMARK    2  A    between atoms: C_13  and  C_14
REMARK    3  A    between atoms: C_17  and  O_18
REMARK    4  A    between atoms: O_18  and  S_19
REMARK    5  A    between atoms: S_19  and  C_22
REMARK                            x       y       z     vdW  Elec       q    Type
REMARK                         _______ _______ _______ _____ _____    ______ ____
ROOT
ATOM      1  C   UNL     1       2.916   2.065  18.933  0.00  0.00    +0.000 C 
ATOM      2  C   UNL     1       2.098   2.911  19.869  0.00  0.00    +0.000 C 
ATOM      3  O   UNL     1       1.761   2.467  20.968  0.00  0.00    +0.000 OA
ATOM      4  N   UNL     1       1.794   4.197  19.465  0.00  0.00    +0.000 N 
ATOM      5  C   UNL     1       1.109   5.093  20.398  0.00  0.00    +0.000 C 
ATOM      6  C   UNL     1       1.901   6.394  20.557  0.00  0.00    +0.000 C 
ATOM      7  N   UNL     1       2.098   7.017  19.233  0.00  0.00    +0.000 N 
ATOM      8  C   UNL     1       1.894   8.352  18.973  0.00  0.00    +0.000 C 
ATOM      9  N   UNL     1       2.433   9.028  18.013  0.00  0.00    +0.000 NA
ATOM     10  C   UNL     1       2.073  10.362  18.011  0.00  0.00    +0.000 C 
ATOM     11  O   UNL     1       2.472  11.196  17.207  0.00  0.00    +0.000 OA
ATOM     12  C   UNL     1       1.144  10.685  19.133  0.00  0.00    +0.000 C 
ATOM     13  C   UNL     1       0.718  11.920  19.421  0.00  0.00    +0.000 C 
ATOM     14  S   UNL     1       0.781   9.252  19.988  0.00  0.00    +0.000 S 
ATOM     15  C   UNL     1       2.816   6.151  18.283  0.00  0.00    +0.000 C 
ATOM     16  C   UNL     1       2.089   4.795  18.151  0.00  0.00    +0.000 C 
ENDROOT
BRANCH  13  17
ATOM     17  C   UNL     1      -0.154  12.240  20.557  0.00  0.00    +0.000 A 
ATOM     18  C   UNL     1      -1.482  11.803  20.569  0.00  0.00    +0.000 A 
ATOM     19  C   UNL     1      -2.321  12.116  21.644  0.00  0.00    +0.000 A 
ATOM     20  C   UNL     1      -1.834  12.858  22.723  0.00  0.00    +0.000 A 
ATOM     21  C   UNL     1      -0.521  13.330  22.694  0.00  0.00    +0.000 A 
ATOM     22  C   UNL     1       0.317  13.019  21.618  0.00  0.00    +0.000 A 
BRANCH  20  23
ATOM     23  O   UNL     1      -2.719  13.102  23.746  0.00  0.00    +0.000 OA
BRANCH  23  24
ATOM     24  S   UNL     1      -3.430  14.566  23.904  0.00  0.00    +0.000 S 
ATOM     25  O   UNL     1      -3.165  15.079  25.237  0.00  0.00    +0.000 OA
ATOM     26  O   UNL     1      -3.127  15.366  22.732  0.00  0.00    +0.000 OA
BRANCH  24  27
ATOM     27  C   UNL     1      -5.176  14.207  23.833  0.00  0.00    +0.000 A 
ATOM     28  C   UNL     1      -5.620  12.889  23.995  0.00  0.00    +0.000 A 
ATOM     29  C   UNL     1      -6.990  12.627  24.037  0.00  0.00    +0.000 A 
ATOM     30  C   UNL     1      -7.908  13.674  23.929  0.00  0.00    +0.000 A 
ATOM     31  C   UNL     1      -7.461  14.987  23.775  0.00  0.00    +0.000 A 
ATOM     32  C   UNL     1      -6.092  15.259  23.730  0.00  0.00    +0.000 A 
ENDBRANCH  24  27
ENDBRANCH  23  24
ENDBRANCH  20  23
ENDBRANCH  13  17
TORSDOF 4
ENDMDL
MODEL 8
REMARK VINA RESULT:      -7.9      1.653      2.256
REMARK  Name = 
REMARK  5 active torsions:
REMARK  status: ('A' for Active; 'I' for Inactive)
REMARK    1  A    between atoms: C_1  and  C_2
REMARK    2  A    between atoms: C_13  and  C_14
REMARK    3  A    between atoms: C_17  and  O_18
REMARK    4  A    between atoms: O_18  and  S_19
REMARK    5  A    between atoms: S_19  and  C_22
REMARK                            x       y       z     vdW  Elec       q    Type
REMARK                         _______ _______ _______ _____ _____    ______ ____
ROOT
ATOM      1  C   UNL     1       0.739  17.256  19.036  0.00  0.00    +0.000 C 
ATOM      2  C   UNL     1       1.533  16.160  18.382  0.00  0.00    +0.000 C 
ATOM      3  O   UNL     1       2.498  16.438  17.669  0.00  0.00    +0.000 OA
ATOM      4  N   UNL     1       1.165  14.857  18.656  0.00  0.00    +0.000 N 
ATOM      5  C   UNL     1       1.989  13.761  18.141  0.00  0.00    +0.000 C 
ATOM      6  C   UNL     1       2.408  12.834  19.285  0.00  0.00    +0.000 C 
ATOM      7  N   UNL     1       1.207  12.341  19.986  0.00  0.00    +0.000 N 
ATOM      8  C   UNL     1       1.004  11.026  20.336  0.00  0.00    +0.000 C 
ATOM      9  N   UNL     1       0.235  10.603  21.283  0.00  0.00    +0.000 NA
ATOM     10  C   UNL     1       0.250   9.229  21.431  0.00  0.00    +0.000 C 
ATOM     11  O   UNL     1      -0.386   8.607  22.273  0.00  0.00    +0.000 OA
ATOM     12  C   UNL     1       1.164   8.578  20.448  0.00  0.00    +0.000 C 
ATOM     13  C   UNL     1       1.440   7.269  20.435  0.00  0.00    +0.000 C 
ATOM     14  S   UNL     1       1.816   9.771  19.415  0.00  0.00    +0.000 S 
ATOM     15  C   UNL     1       0.376  13.421  20.547  0.00  0.00    +0.000 C 
ATOM     16  C   UNL     1      -0.007  14.423  19.436  0.00  0.00    +0.000 C 
ENDROOT
BRANCH  13  17
ATOM     17  C   UNL     1       2.380   6.641  19.499  0.00  0.00    +0.000 A 
ATOM     18  C   UNL     1       2.835   5.339  19.727  0.00  0.00    +0.000 A 
ATOM     19  C   UNL     1       3.740   4.741  18.844  0.00  0.00    +0.000 A 
ATOM     20  C   UNL     1       4.189   5.437  17.719  0.00  0.00    +0.000 A 
ATOM     21  C   UNL     1       3.769   6.751  17.513  0.00  0.00    +0.000 A 
ATOM     22  C   UNL     1       2.864   7.350  18.396  0.00  0.00    +0.000 A 
BRANCH  20  23
ATOM     23  O   UNL     1       5.061   4.767  16.893  0.00  0.00    +0.000 OA
BRANCH  23  24
ATOM     24  S   UNL     1       6.399   5.509  16.314  0.00  0.00    +0.000 S 
ATOM     25  O   UNL     1       6.120   6.925  16.150  0.00  0.00    +0.000 OA
ATOM     26  O   UNL     1       7.551   5.067  17.077  0.00  0.00    +0.000 OA
BRANCH  24  27
ATOM     27  C   UNL     1       6.589   4.832  14.674  0.00  0.00    +0.000 A 
ATOM     28  C   UNL     1       5.636   3.935  14.178  0.00  0.00    +0.000 A 
ATOM     29  C   UNL     1       5.736   3.486  12.861  0.00  0.00    +0.000 A 
ATOM     30  C   UNL     1       6.775   3.937  12.043  0.00  0.00    +0.000 A 
ATOM     31  C   UNL     1       7.719   4.839  12.539  0.00  0.00    +0.000 A 
ATOM     32  C   UNL     1       7.628   5.292  13.856  0.00  0.00    +0.000 A 
ENDBRANCH  24  27
ENDBRANCH  23  24
ENDBRANCH  20  23
ENDBRANCH  13  17
TORSDOF 4
ENDMDL
MODEL 9
REMARK VINA RESULT:      -7.8      3.186      5.324
REMARK  Name = 
REMARK  5 active torsions:
REMARK  status: ('A' for Active; 'I' for Inactive)
REMARK    1  A    between atoms: C_1  and  C_2
REMARK    2  A    between atoms: C_13  and  C_14
REMARK    3  A    between atoms: C_17  and  O_18
REMARK    4  A    between atoms: O_18  and  S_19
REMARK    5  A    between atoms: S_19  and  C_22
REMARK                            x       y       z     vdW  Elec       q    Type
REMARK                         _______ _______ _______ _____ _____    ______ ____
ROOT
ATOM      1  C   UNL     1      -1.176  13.087  20.469  0.00  0.00    +0.000 C 
ATOM      2  C   UNL     1      -0.085  12.601  19.556  0.00  0.00    +0.000 C 
ATOM      3  O   UNL     1       0.603  13.409  18.931  0.00  0.00    +0.000 OA
ATOM      4  N   UNL     1       0.133  11.238  19.495  0.00  0.00    +0.000 N 
ATOM      5  C   UNL     1       1.266  10.733  18.717  0.00  0.00    +0.000 C 
ATOM      6  C   UNL     1       2.145   9.831  19.589  0.00  0.00    +0.000 C 
ATOM      7  N   UNL     1       1.327   8.739  20.149  0.00  0.00    +0.000 N 
ATOM      8  C   UNL     1       1.709   7.417  20.157  0.00  0.00    +0.000 C 
ATOM      9  N   UNL     1       1.283   6.510  20.971  0.00  0.00    +0.000 NA
ATOM     10  C   UNL     1       1.865   5.273  20.769  0.00  0.00    +0.000 C 
ATOM     11  O   UNL     1       1.629   4.269  21.430  0.00  0.00    +0.000 OA
ATOM     12  C   UNL     1       2.851   5.303  19.649  0.00  0.00    +0.000 C 
ATOM     13  C   UNL     1       3.626   4.268  19.306  0.00  0.00    +0.000 C 
ATOM     14  S   UNL     1       2.851   6.859  18.946  0.00  0.00    +0.000 S 
ATOM     15  C   UNL     1       0.199   9.216  20.967  0.00  0.00    +0.000 C 
ATOM     16  C   UNL     1      -0.673  10.191  20.146  0.00  0.00    +0.000 C 
ENDROOT
BRANCH  13  17
ATOM     17  C   UNL     1       4.631   4.319  18.237  0.00  0.00    +0.000 A 
ATOM     18  C   UNL     1       4.489   3.517  17.101  0.00  0.00    +0.000 A 
ATOM     19  C   UNL     1       5.451   3.553  16.085  0.00  0.00    +0.000 A 
ATOM     20  C   UNL     1       6.557   4.401  16.193  0.00  0.00    +0.000 A 
ATOM     21  C   UNL     1       6.721   5.170  17.346  0.00  0.00    +0.000 A 
ATOM     22  C   UNL     1       5.760   5.133  18.362  0.00  0.00    +0.000 A 
BRANCH  20  23
ATOM     23  O   UNL     1       7.441   4.389  15.141  0.00  0.00    +0.000 OA
BRANCH  23  24
ATOM     24  S   UNL     1       7.100   5.186  13.754  0.00  0.00    +0.000 S 
ATOM     25  O   UNL     1       5.933   6.024  13.965  0.00  0.00    +0.000 OA
ATOM     26  O   UNL     1       8.326   5.750  13.221  0.00  0.00    +0.000 OA
BRANCH  24  27
ATOM     27  C   UNL     1       6.605   3.895  12.627  0.00  0.00    +0.000 A 
ATOM     28  C   UNL     1       7.578   3.083  12.031  0.00  0.00    +0.000 A 
ATOM     29  C   UNL     1       7.181   2.013  11.228  0.00  0.00    +0.000 A 
ATOM     30  C   UNL     1       5.823   1.751  11.031  0.00  0.00    +0.000 A 
ATOM     31  C   UNL     1       4.857   2.558  11.633  0.00  0.00    +0.000 A 
ATOM     32  C   UNL     1       5.244   3.632  12.436  0.00  0.00    +0.000 A 
ENDBRANCH  24  27
ENDBRANCH  23  24
ENDBRANCH  20  23
ENDBRANCH  13  17
TORSDOF 4
ENDMDL
