MODEL 1
REMARK VINA RESULT:      -8.0      0.000      0.000
REMARK  Name = 
REMARK  8 active torsions:
REMARK  status: ('A' for Active; 'I' for Inactive)
REMARK    1  A    between atoms: C_1  and  O_2
REMARK    2  A    between atoms: O_2  and  C_3
REMARK    3  A    between atoms: C_6  and  C_7
REMARK    4  A    between atoms: C_10  and  C_11
REMARK    5  A    between atoms: C_11  and  O_12
REMARK    6  A    between atoms: O_12  and  C_13
REMARK    7  A    between atoms: C_13  and  C_14
REMARK    8  A    between atoms: N_18  and  C_19
REMARK                            x       y       z     vdW  Elec       q    Type
REMARK                         _______ _______ _______ _____ _____    ______ ____
ROOT
ATOM      1  C   UNL     1       1.631   7.916  19.970  0.00  0.00    +0.000 A 
ATOM      2  C   UNL     1       1.822   6.581  20.376  0.00  0.00    +0.000 A 
ATOM      3  C   UNL     1       2.579   5.687  19.617  0.00  0.00    +0.000 A 
ATOM      4  C   UNL     1       3.154   6.098  18.412  0.00  0.00    +0.000 A 
ATOM      5  C   UNL     1       2.941   7.404  17.985  0.00  0.00    +0.000 A 
ATOM      6  F   UNL     1       3.482   7.831  16.833  0.00  0.00    +0.000 F 
ATOM      7  C   UNL     1       2.198   8.306  18.745  0.00  0.00    +0.000 A 
ENDROOT
BRANCH   1  11
ATOM      8  C   UNL     1      -0.434  10.729  22.516  0.00  0.00    +0.000 A 
ATOM      9  C   UNL     1      -0.395  10.924  21.134  0.00  0.00    +0.000 A 
ATOM     10  C   UNL     1       0.257  10.008  20.299  0.00  0.00    +0.000 A 
ATOM     11  C   UNL     1       0.904   8.875  20.823  0.00  0.00    +0.000 A 
ATOM     12  C   UNL     1       0.854   8.696  22.215  0.00  0.00    +0.000 A 
ATOM     13  C   UNL     1       0.189   9.600  23.041  0.00  0.00    +0.000 A 
ATOM     14  F   UNL     1       0.184   9.335  24.357  0.00  0.00    +0.000 F 
BRANCH   8  16
ATOM     15  C   UNL     1      -2.291  12.201  22.623  0.00  0.00    +0.000 C 
ATOM     16  O   UNL     1      -1.095  11.703  23.212  0.00  0.00    +0.000 OA
ENDBRANCH   8  16
ENDBRANCH   1  11
BRANCH   4  17
ATOM     17  C   UNL     1       4.022   5.168  17.626  0.00  0.00    +0.000 C 
BRANCH  17  18
ATOM     18  O   UNL     1       5.390   5.431  17.935  0.00  0.00    +0.000 OA
BRANCH  18  19
ATOM     19  C   UNL     1       6.283   5.528  16.786  0.00  0.00    +0.000 C 
ATOM     20  C   UNL     1       6.658   4.114  16.165  0.00  0.00    +0.000 C 
ATOM     21  N   UNL     1       6.481   4.710  14.798  0.00  0.00    +0.000 N 
ATOM     22  C   UNL     1       5.522   5.683  15.406  0.00  0.00    +0.000 C 
BRANCH  19  23
ATOM     23  C   UNL     1       7.494   6.438  17.074  0.00  0.00    +0.000 C 
ATOM     24  C   UNL     1       7.434   7.883  17.484  0.00  0.00    +0.000 C 
ATOM     25  C   UNL     1       7.924   6.850  18.458  0.00  0.00    +0.000 C 
ENDBRANCH  19  23
BRANCH  21  26
ATOM     26  C   UNL     1       6.349   4.069  13.644  0.00  0.00    +0.000 C 
ATOM     27  N   UNL     1       6.195   3.505  12.645  0.00  0.00    +0.000 NA
ENDBRANCH  21  26
ENDBRANCH  18  19
ENDBRANCH  17  18
ENDBRANCH   4  17
TORSDOF 7
ENDMDL
MODEL 2
REMARK VINA RESULT:      -8.0      1.474      1.966
REMARK  Name = 
REMARK  8 active torsions:
REMARK  status: ('A' for Active; 'I' for Inactive)
REMARK    1  A    between atoms: C_1  and  O_2
REMARK    2  A    between atoms: O_2  and  C_3
REMARK    3  A    between atoms: C_6  and  C_7
REMARK    4  A    between atoms: C_10  and  C_11
REMARK    5  A    between atoms: C_11  and  O_12
REMARK    6  A    between atoms: O_12  and  C_13
REMARK    7  A    between atoms: C_13  and  C_14
REMARK    8  A    between atoms: N_18  and  C_19
REMARK                            x       y       z     vdW  Elec       q    Type
REMARK                         _______ _______ _______ _____ _____    ______ ____
ROOT
ATOM      1  C   UNL     1       1.461   8.561  19.944  0.00  0.00    +0.000 A 
ATOM      2  C   UNL     1       1.841   8.884  18.628  0.00  0.00    +0.000 A 
ATOM      3  C   UNL     1       2.579   7.998  17.842  0.00  0.00    +0.000 A 
ATOM      4  C   UNL     1       2.980   6.764  18.360  0.00  0.00    +0.000 A 
ATOM      5  C   UNL     1       2.640   6.452  19.671  0.00  0.00    +0.000 A 
ATOM      6  F   UNL     1       3.008   5.273  20.197  0.00  0.00    +0.000 F 
ATOM      7  C   UNL     1       1.891   7.326  20.456  0.00  0.00    +0.000 A 
ENDROOT
BRANCH   1  11
ATOM      8  C   UNL     1      -1.102  11.204  22.205  0.00  0.00    +0.000 A 
ATOM      9  C   UNL     1      -0.403  10.180  22.845  0.00  0.00    +0.000 A 
ATOM     10  C   UNL     1       0.444   9.329  22.124  0.00  0.00    +0.000 A 
ATOM     11  C   UNL     1       0.607   9.468  20.734  0.00  0.00    +0.000 A 
ATOM     12  C   UNL     1      -0.106  10.504  20.108  0.00  0.00    +0.000 A 
ATOM     13  C   UNL     1      -0.933  11.359  20.832  0.00  0.00    +0.000 A 
ATOM     14  F   UNL     1      -1.560  12.328  20.145  0.00  0.00    +0.000 F 
BRANCH   8  16
ATOM     15  C   UNL     1      -1.446  13.270  23.317  0.00  0.00    +0.000 C 
ATOM     16  O   UNL     1      -1.899  11.953  23.026  0.00  0.00    +0.000 OA
ENDBRANCH   8  16
ENDBRANCH   1  11
BRANCH   4  17
ATOM     17  C   UNL     1       3.713   5.781  17.504  0.00  0.00    +0.000 C 
BRANCH  17  18
ATOM     18  O   UNL     1       5.080   5.737  17.909  0.00  0.00    +0.000 OA
BRANCH  18  19
ATOM     19  C   UNL     1       6.049   5.602  16.827  0.00  0.00    +0.000 C 
ATOM     20  C   UNL     1       6.187   4.111  16.293  0.00  0.00    +0.000 C 
ATOM     21  N   UNL     1       6.217   4.655  14.894  0.00  0.00    +0.000 N 
ATOM     22  C   UNL     1       5.424   5.822  15.388  0.00  0.00    +0.000 C 
BRANCH  19  23
ATOM     23  C   UNL     1       7.389   6.283  17.167  0.00  0.00    +0.000 C 
ATOM     24  C   UNL     1       7.567   7.707  17.615  0.00  0.00    +0.000 C 
ATOM     25  C   UNL     1       7.847   6.583  18.571  0.00  0.00    +0.000 C 
ENDBRANCH  19  23
BRANCH  21  26
ATOM     26  C   UNL     1       6.041   3.988  13.760  0.00  0.00    +0.000 C 
ATOM     27  N   UNL     1       5.903   3.438  12.752  0.00  0.00    +0.000 NA
ENDBRANCH  21  26
ENDBRANCH  18  19
ENDBRANCH  17  18
ENDBRANCH   4  17
TORSDOF 7
ENDMDL
MODEL 3
REMARK VINA RESULT:      -7.8      0.998      1.355
REMARK  Name = 
REMARK  8 active torsions:
REMARK  status: ('A' for Active; 'I' for Inactive)
REMARK    1  A    between atoms: C_1  and  O_2
REMARK    2  A    between atoms: O_2  and  C_3
REMARK    3  A    between atoms: C_6  and  C_7
REMARK    4  A    between atoms: C_10  and  C_11
REMARK    5  A    between atoms: C_11  and  O_12
REMARK    6  A    between atoms: O_12  and  C_13
REMARK    7  A    between atoms: C_13  and  C_14
REMARK    8  A    between atoms: N_18  and  C_19
REMARK                            x       y       z     vdW  Elec       q    Type
REMARK                         _______ _______ _______ _____ _____    ______ ____
ROOT
ATOM      1  C   UNL     1       1.700   8.345  19.856  0.00  0.00    +0.000 A 
ATOM      2  C   UNL     1       2.137   8.614  18.545  0.00  0.00    +0.000 A 
ATOM      3  C   UNL     1       2.829   7.662  17.796  0.00  0.00    +0.000 A 
ATOM      4  C   UNL     1       3.125   6.412  18.345  0.00  0.00    +0.000 A 
ATOM      5  C   UNL     1       2.729   6.150  19.652  0.00  0.00    +0.000 A 
ATOM      6  F   UNL     1       2.996   4.958  20.208  0.00  0.00    +0.000 F 
ATOM      7  C   UNL     1       2.025   7.092  20.401  0.00  0.00    +0.000 A 
ENDROOT
BRANCH   1  11
ATOM      8  C   UNL     1      -0.608  11.215  22.113  0.00  0.00    +0.000 A 
ATOM      9  C   UNL     1      -0.259  11.476  20.787  0.00  0.00    +0.000 A 
ATOM     10  C   UNL     1       0.475  10.544  20.042  0.00  0.00    +0.000 A 
ATOM     11  C   UNL     1       0.893   9.326  20.606  0.00  0.00    +0.000 A 
ATOM     12  C   UNL     1       0.532   9.082  21.941  0.00  0.00    +0.000 A 
ATOM     13  C   UNL     1      -0.213  10.004  22.673  0.00  0.00    +0.000 A 
ATOM     14  F   UNL     1      -0.521   9.672  23.938  0.00  0.00    +0.000 F 
BRANCH   8  16
ATOM     15  C   UNL     1      -1.900  13.190  21.871  0.00  0.00    +0.000 C 
ATOM     16  O   UNL     1      -1.316  12.213  22.725  0.00  0.00    +0.000 OA
ENDBRANCH   8  16
ENDBRANCH   1  11
BRANCH   4  17
ATOM     17  C   UNL     1       3.807   5.362  17.527  0.00  0.00    +0.000 C 
BRANCH  17  18
ATOM     18  O   UNL     1       5.191   5.328  17.870  0.00  0.00    +0.000 OA
BRANCH  18  19
ATOM     19  C   UNL     1       6.117   5.399  16.744  0.00  0.00    +0.000 C 
ATOM     20  C   UNL     1       6.435   3.978  16.107  0.00  0.00    +0.000 C 
ATOM     21  N   UNL     1       6.322   4.605  14.747  0.00  0.00    +0.000 N 
ATOM     22  C   UNL     1       5.399   5.615  15.350  0.00  0.00    +0.000 C 
BRANCH  19  23
ATOM     23  C   UNL     1       7.364   6.241  17.077  0.00  0.00    +0.000 C 
ATOM     24  C   UNL     1       7.367   7.682  17.506  0.00  0.00    +0.000 C 
ATOM     25  C   UNL     1       7.778   6.612  18.478  0.00  0.00    +0.000 C 
ENDBRANCH  19  23
BRANCH  21  26
ATOM     26  C   UNL     1       6.185   3.990  13.579  0.00  0.00    +0.000 C 
ATOM     27  N   UNL     1       6.063   3.420  12.580  0.00  0.00    +0.000 NA
ENDBRANCH  21  26
ENDBRANCH  18  19
ENDBRANCH  17  18
ENDBRANCH   4  17
TORSDOF 7
ENDMDL
MODEL 4
REMARK VINA RESULT:      -7.8      1.117      1.398
REMARK  Name = 
REMARK  8 active torsions:
REMARK  status: ('A' for Active; 'I' for Inactive)
REMARK    1  A    between atoms: C_1  and  O_2
REMARK    2  A    between atoms: O_2  and  C_3
REMARK    3  A    between atoms: C_6  and  C_7
REMARK    4  A    between atoms: C_10  and  C_11
REMARK    5  A    between atoms: C_11  and  O_12
REMARK    6  A    between atoms: O_12  and  C_13
REMARK    7  A    between atoms: C_13  and  C_14
REMARK    8  A    between atoms: N_18  and  C_19
REMARK                            x       y       z     vdW  Elec       q    Type
REMARK                         _______ _______ _______ _____ _____    ______ ____
ROOT
ATOM      1  C   UNL     1       1.525   8.336  20.044  0.00  0.00    +0.000 A 
ATOM      2  C   UNL     1       1.736   7.037  20.545  0.00  0.00    +0.000 A 
ATOM      3  C   UNL     1       2.471   6.089  19.832  0.00  0.00    +0.000 A 
ATOM      4  C   UNL     1       3.003   6.407  18.580  0.00  0.00    +0.000 A 
ATOM      5  C   UNL     1       2.769   7.676  18.061  0.00  0.00    +0.000 A 
ATOM      6  F   UNL     1       3.268   8.014  16.862  0.00  0.00    +0.000 F 
ATOM      7  C   UNL     1       2.047   8.631  18.774  0.00  0.00    +0.000 A 
ENDROOT
BRANCH   1  11
ATOM      8  C   UNL     1      -0.572  11.349  22.322  0.00  0.00    +0.000 A 
ATOM      9  C   UNL     1      -0.579  10.016  22.738  0.00  0.00    +0.000 A 
ATOM     10  C   UNL     1       0.112   9.035  22.016  0.00  0.00    +0.000 A 
ATOM     11  C   UNL     1       0.822   9.356  20.845  0.00  0.00    +0.000 A 
ATOM     12  C   UNL     1       0.818  10.702  20.443  0.00  0.00    +0.000 A 
ATOM     13  C   UNL     1       0.144  11.677  21.174  0.00  0.00    +0.000 A 
ATOM     14  F   UNL     1       0.211  12.938  20.717  0.00  0.00    +0.000 F 
BRANCH   8  16
ATOM     15  C   UNL     1      -2.616  11.789  23.441  0.00  0.00    +0.000 C 
ATOM     16  O   UNL     1      -1.293  12.199  23.114  0.00  0.00    +0.000 OA
ENDBRANCH   8  16
ENDBRANCH   1  11
BRANCH   4  17
ATOM     17  C   UNL     1       3.848   5.421  17.839  0.00  0.00    +0.000 C 
BRANCH  17  18
ATOM     18  O   UNL     1       5.224   5.703  18.090  0.00  0.00    +0.000 OA
BRANCH  18  19
ATOM     19  C   UNL     1       6.092   5.679  16.917  0.00  0.00    +0.000 C 
ATOM     20  C   UNL     1       6.346   4.214  16.357  0.00  0.00    +0.000 C 
ATOM     21  N   UNL     1       6.177   4.756  14.968  0.00  0.00    +0.000 N 
ATOM     22  C   UNL     1       5.308   5.825  15.549  0.00  0.00    +0.000 C 
BRANCH  19  23
ATOM     23  C   UNL     1       7.372   6.510  17.132  0.00  0.00    +0.000 C 
ATOM     24  C   UNL     1       7.430   7.938  17.597  0.00  0.00    +0.000 C 
ATOM     25  C   UNL     1       7.940   6.842  18.488  0.00  0.00    +0.000 C 
ENDBRANCH  19  23
BRANCH  21  26
ATOM     26  C   UNL     1       5.967   4.073  13.849  0.00  0.00    +0.000 C 
ATOM     27  N   UNL     1       5.783   3.444  12.896  0.00  0.00    +0.000 NA
ENDBRANCH  21  26
ENDBRANCH  18  19
ENDBRANCH  17  18
ENDBRANCH   4  17
TORSDOF 7
ENDMDL
MODEL 5
REMARK VINA RESULT:      -7.8      4.475      9.554
REMARK  Name = 
REMARK  8 active torsions:
REMARK  status: ('A' for Active; 'I' for Inactive)
REMARK    1  A    between atoms: C_1  and  O_2
REMARK    2  A    between atoms: O_2  and  C_3
REMARK    3  A    between atoms: C_6  and  C_7
REMARK    4  A    between atoms: C_10  and  C_11
REMARK    5  A    between atoms: C_11  and  O_12
REMARK    6  A    between atoms: O_12  and  C_13
REMARK    7  A    between atoms: C_13  and  C_14
REMARK    8  A    between atoms: N_18  and  C_19
REMARK                            x       y       z     vdW  Elec       q    Type
REMARK                         _______ _______ _______ _____ _____    ______ ____
ROOT
ATOM      1  C   UNL     1       2.770   7.230  18.296  0.00  0.00    +0.000 A 
ATOM      2  C   UNL     1       2.319   8.402  17.659  0.00  0.00    +0.000 A 
ATOM      3  C   UNL     1       1.571   9.363  18.341  0.00  0.00    +0.000 A 
ATOM      4  C   UNL     1       1.231   9.170  19.682  0.00  0.00    +0.000 A 
ATOM      5  C   UNL     1       1.641   7.998  20.309  0.00  0.00    +0.000 A 
ATOM      6  F   UNL     1       1.333   7.783  21.597  0.00  0.00    +0.000 F 
ATOM      7  C   UNL     1       2.400   7.041  19.637  0.00  0.00    +0.000 A 
ENDROOT
BRANCH   1  11
ATOM      8  C   UNL     1       5.232   4.364  16.202  0.00  0.00    +0.000 A 
ATOM      9  C   UNL     1       5.454   5.733  16.047  0.00  0.00    +0.000 A 
ATOM     10  C   UNL     1       4.673   6.670  16.735  0.00  0.00    +0.000 A 
ATOM     11  C   UNL     1       3.633   6.264  17.590  0.00  0.00    +0.000 A 
ATOM     12  C   UNL     1       3.425   4.883  17.733  0.00  0.00    +0.000 A 
ATOM     13  C   UNL     1       4.216   3.955  17.061  0.00  0.00    +0.000 A 
ATOM     14  F   UNL     1       3.948   2.656  17.275  0.00  0.00    +0.000 F 
BRANCH   8  16
ATOM     15  C   UNL     1       6.290   3.959  14.119  0.00  0.00    +0.000 C 
ATOM     16  O   UNL     1       6.060   3.563  15.466  0.00  0.00    +0.000 OA
ENDBRANCH   8  16
ENDBRANCH   1  11
BRANCH   4  17
ATOM     17  C   UNL     1       0.488  10.224  20.439  0.00  0.00    +0.000 C 
BRANCH  17  18
ATOM     18  O   UNL     1      -0.860  10.270  19.975  0.00  0.00    +0.000 OA
BRANCH  18  19
ATOM     19  C   UNL     1      -1.270  11.532  19.368  0.00  0.00    +0.000 C 
ATOM     20  C   UNL     1      -2.204  12.405  20.312  0.00  0.00    +0.000 C 
ATOM     21  N   UNL     1      -1.428  13.620  19.892  0.00  0.00    +0.000 N 
ATOM     22  C   UNL     1      -0.260  12.721  19.641  0.00  0.00    +0.000 C 
BRANCH  19  23
ATOM     23  C   UNL     1      -1.814  11.333  17.940  0.00  0.00    +0.000 C 
ATOM     24  C   UNL     1      -1.878  10.030  17.193  0.00  0.00    +0.000 C 
ATOM     25  C   UNL     1      -3.148  10.704  17.629  0.00  0.00    +0.000 C 
ENDBRANCH  19  23
BRANCH  21  26
ATOM     26  C   UNL     1      -1.412  14.813  20.474  0.00  0.00    +0.000 C 
ATOM     27  N   UNL     1      -1.363  15.843  20.997  0.00  0.00    +0.000 NA
ENDBRANCH  21  26
ENDBRANCH  18  19
ENDBRANCH  17  18
ENDBRANCH   4  17
TORSDOF 7
ENDMDL
MODEL 6
REMARK VINA RESULT:      -7.5      2.388      3.843
REMARK  Name = 
REMARK  8 active torsions:
REMARK  status: ('A' for Active; 'I' for Inactive)
REMARK    1  A    between atoms: C_1  and  O_2
REMARK    2  A    between atoms: O_2  and  C_3
REMARK    3  A    between atoms: C_6  and  C_7
REMARK    4  A    between atoms: C_10  and  C_11
REMARK    5  A    between atoms: C_11  and  O_12
REMARK    6  A    between atoms: O_12  and  C_13
REMARK    7  A    between atoms: C_13  and  C_14
REMARK    8  A    between atoms: N_18  and  C_19
REMARK                            x       y       z     vdW  Elec       q    Type
REMARK                         _______ _______ _______ _____ _____    ______ ____
ROOT
ATOM      1  C   UNL     1       0.206   9.887  20.464  0.00  0.00    +0.000 A 
ATOM      2  C   UNL     1       0.671   8.733  21.123  0.00  0.00    +0.000 A 
ATOM      3  C   UNL     1       1.566   7.853  20.513  0.00  0.00    +0.000 A 
ATOM      4  C   UNL     1       2.009   8.091  19.209  0.00  0.00    +0.000 A 
ATOM      5  C   UNL     1       1.527   9.209  18.537  0.00  0.00    +0.000 A 
ATOM      6  F   UNL     1       1.935   9.467  17.285  0.00  0.00    +0.000 F 
ATOM      7  C   UNL     1       0.644  10.098  19.146  0.00  0.00    +0.000 A 
ENDROOT
BRANCH   1  11
ATOM      8  C   UNL     1      -2.421  12.698  22.428  0.00  0.00    +0.000 A 
ATOM      9  C   UNL     1      -1.638  11.820  23.179  0.00  0.00    +0.000 A 
ATOM     10  C   UNL     1      -0.770  10.916  22.552  0.00  0.00    +0.000 A 
ATOM     11  C   UNL     1      -0.670  10.855  21.151  0.00  0.00    +0.000 A 
ATOM     12  C   UNL     1      -1.466  11.746  20.413  0.00  0.00    +0.000 A 
ATOM     13  C   UNL     1      -2.314  12.655  21.041  0.00  0.00    +0.000 A 
ATOM     14  F   UNL     1      -3.023  13.476  20.249  0.00  0.00    +0.000 F 
BRANCH   8  16
ATOM     15  C   UNL     1      -4.544  13.042  23.427  0.00  0.00    +0.000 C 
ATOM     16  O   UNL     1      -3.229  13.518  23.166  0.00  0.00    +0.000 OA
ENDBRANCH   8  16
ENDBRANCH   1  11
BRANCH   4  17
ATOM     17  C   UNL     1       3.019   7.191  18.572  0.00  0.00    +0.000 C 
BRANCH  17  18
ATOM     18  O   UNL     1       2.679   5.834  18.854  0.00  0.00    +0.000 OA
BRANCH  18  19
ATOM     19  C   UNL     1       3.417   4.832  18.091  0.00  0.00    +0.000 C 
ATOM     20  C   UNL     1       4.425   5.467  17.038  0.00  0.00    +0.000 C 
ATOM     21  N   UNL     1       5.438   4.436  17.445  0.00  0.00    +0.000 N 
ATOM     22  C   UNL     1       4.771   4.385  18.781  0.00  0.00    +0.000 C 
BRANCH  19  23
ATOM     23  C   UNL     1       2.486   3.751  17.510  0.00  0.00    +0.000 C 
ATOM     24  C   UNL     1       2.663   2.264  17.652  0.00  0.00    +0.000 C 
ATOM     25  C   UNL     1       1.513   2.947  18.335  0.00  0.00    +0.000 C 
ENDBRANCH  19  23
BRANCH  21  26
ATOM     26  C   UNL     1       6.743   4.440  17.199  0.00  0.00    +0.000 C 
ATOM     27  N   UNL     1       7.885   4.467  17.017  0.00  0.00    +0.000 NA
ENDBRANCH  21  26
ENDBRANCH  18  19
ENDBRANCH  17  18
ENDBRANCH   4  17
TORSDOF 7
ENDMDL
MODEL 7
REMARK VINA RESULT:      -7.4      3.883      9.091
REMARK  Name = 
REMARK  8 active torsions:
REMARK  status: ('A' for Active; 'I' for Inactive)
REMARK    1  A    between atoms: C_1  and  O_2
REMARK    2  A    between atoms: O_2  and  C_3
REMARK    3  A    between atoms: C_6  and  C_7
REMARK    4  A    between atoms: C_10  and  C_11
REMARK    5  A    between atoms: C_11  and  O_12
REMARK    6  A    between atoms: O_12  and  C_13
REMARK    7  A    between atoms: C_13  and  C_14
REMARK    8  A    between atoms: N_18  and  C_19
REMARK                            x       y       z     vdW  Elec       q    Type
REMARK                         _______ _______ _______ _____ _____    ______ ____
ROOT
ATOM      1  C   UNL     1       2.811   7.275  18.299  0.00  0.00    +0.000 A 
ATOM      2  C   UNL     1       2.330   8.447  17.684  0.00  0.00    +0.000 A 
ATOM      3  C   UNL     1       1.523   9.355  18.371  0.00  0.00    +0.000 A 
ATOM      4  C   UNL     1       1.152   9.106  19.695  0.00  0.00    +0.000 A 
ATOM      5  C   UNL     1       1.592   7.934  20.299  0.00  0.00    +0.000 A 
ATOM      6  F   UNL     1       1.255   7.667  21.570  0.00  0.00    +0.000 F 
ATOM      7  C   UNL     1       2.410   7.030  19.623  0.00  0.00    +0.000 A 
ENDROOT
BRANCH   1  11
ATOM      8  C   UNL     1       5.452   4.581  16.195  0.00  0.00    +0.000 A 
ATOM      9  C   UNL     1       5.651   5.961  16.129  0.00  0.00    +0.000 A 
ATOM     10  C   UNL     1       4.811   6.842  16.822  0.00  0.00    +0.000 A 
ATOM     11  C   UNL     1       3.734   6.368  17.592  0.00  0.00    +0.000 A 
ATOM     12  C   UNL     1       3.550   4.977  17.647  0.00  0.00    +0.000 A 
ATOM     13  C   UNL     1       4.399   4.104  16.971  0.00  0.00    +0.000 A 
ATOM     14  F   UNL     1       4.150   2.790  17.097  0.00  0.00    +0.000 F 
BRANCH   8  16
ATOM     15  C   UNL     1       6.188   3.885  14.051  0.00  0.00    +0.000 C 
ATOM     16  O   UNL     1       6.339   3.839  15.465  0.00  0.00    +0.000 OA
ENDBRANCH   8  16
ENDBRANCH   1  11
BRANCH   4  17
ATOM     17  C   UNL     1       0.343  10.105  20.459  0.00  0.00    +0.000 C 
BRANCH  17  18
ATOM     18  O   UNL     1       0.175  11.277  19.664  0.00  0.00    +0.000 OA
BRANCH  18  19
ATOM     19  C   UNL     1      -1.190  11.542  19.220  0.00  0.00    +0.000 C 
ATOM     20  C   UNL     1      -1.258  12.236  17.792  0.00  0.00    +0.000 C 
ATOM     21  N   UNL     1      -2.400  11.324  17.446  0.00  0.00    +0.000 N 
ATOM     22  C   UNL     1      -1.837  10.338  18.419  0.00  0.00    +0.000 C 
BRANCH  19  23
ATOM     23  C   UNL     1      -2.024  12.243  20.310  0.00  0.00    +0.000 C 
ATOM     24  C   UNL     1      -1.495  12.805  21.600  0.00  0.00    +0.000 C 
ATOM     25  C   UNL     1      -2.021  13.732  20.542  0.00  0.00    +0.000 C 
ENDBRANCH  19  23
BRANCH  21  26
ATOM     26  C   UNL     1      -2.898  11.067  16.243  0.00  0.00    +0.000 C 
ATOM     27  N   UNL     1      -3.296  10.830  15.183  0.00  0.00    +0.000 NA
ENDBRANCH  21  26
ENDBRANCH  18  19
ENDBRANCH  17  18
ENDBRANCH   4  17
TORSDOF 7
ENDMDL
MODEL 8
REMARK VINA RESULT:      -7.4      4.570      9.760
REMARK  Name = 
REMARK  8 active torsions:
REMARK  status: ('A' for Active; 'I' for Inactive)
REMARK    1  A    between atoms: C_1  and  O_2
REMARK    2  A    between atoms: O_2  and  C_3
REMARK    3  A    between atoms: C_6  and  C_7
REMARK    4  A    between atoms: C_10  and  C_11
REMARK    5  A    between atoms: C_11  and  O_12
REMARK    6  A    between atoms: O_12  and  C_13
REMARK    7  A    between atoms: C_13  and  C_14
REMARK    8  A    between atoms: N_18  and  C_19
REMARK                            x       y       z     vdW  Elec       q    Type
REMARK                         _______ _______ _______ _____ _____    ______ ____
ROOT
ATOM      1  C   UNL     1       2.740   7.318  18.371  0.00  0.00    +0.000 A 
ATOM      2  C   UNL     1       2.235   8.488  17.772  0.00  0.00    +0.000 A 
ATOM      3  C   UNL     1       1.448   9.393  18.484  0.00  0.00    +0.000 A 
ATOM      4  C   UNL     1       1.123   9.144  19.820  0.00  0.00    +0.000 A 
ATOM      5  C   UNL     1       1.586   7.974  20.410  0.00  0.00    +0.000 A 
ATOM      6  F   UNL     1       1.293   7.707  21.692  0.00  0.00    +0.000 F 
ATOM      7  C   UNL     1       2.384   7.072  19.708  0.00  0.00    +0.000 A 
ENDROOT
BRANCH   1  11
ATOM      8  C   UNL     1       5.319   4.630  16.184  0.00  0.00    +0.000 A 
ATOM      9  C   UNL     1       5.500   6.011  16.095  0.00  0.00    +0.000 A 
ATOM     10  C   UNL     1       4.680   6.890  16.815  0.00  0.00    +0.000 A 
ATOM     11  C   UNL     1       3.643   6.413  17.635  0.00  0.00    +0.000 A 
ATOM     12  C   UNL     1       3.476   5.021  17.711  0.00  0.00    +0.000 A 
ATOM     13  C   UNL     1       4.305   4.150  17.008  0.00  0.00    +0.000 A 
ATOM     14  F   UNL     1       4.075   2.835  17.157  0.00  0.00    +0.000 F 
BRANCH   8  16
ATOM     15  C   UNL     1       6.038   4.004  14.012  0.00  0.00    +0.000 C 
ATOM     16  O   UNL     1       6.182   3.890  15.423  0.00  0.00    +0.000 OA
ENDBRANCH   8  16
ENDBRANCH   1  11
BRANCH   4  17
ATOM     17  C   UNL     1       0.336  10.141  20.611  0.00  0.00    +0.000 C 
BRANCH  17  18
ATOM     18  O   UNL     1       0.640  11.454  20.142  0.00  0.00    +0.000 OA
BRANCH  18  19
ATOM     19  C   UNL     1      -0.316  12.489  20.519  0.00  0.00    +0.000 C 
ATOM     20  C   UNL     1      -1.005  12.221  21.926  0.00  0.00    +0.000 C 
ATOM     21  N   UNL     1      -0.839  13.680  22.242  0.00  0.00    +0.000 N 
ATOM     22  C   UNL     1       0.336  13.691  21.318  0.00  0.00    +0.000 C 
BRANCH  19  23
ATOM     23  C   UNL     1      -1.302  12.805  19.377  0.00  0.00    +0.000 C 
ATOM     24  C   UNL     1      -1.175  12.349  17.950  0.00  0.00    +0.000 C 
ATOM     25  C   UNL     1      -2.280  11.808  18.811  0.00  0.00    +0.000 C 
ENDBRANCH  19  23
BRANCH  21  26
ATOM     26  C   UNL     1      -0.932  14.269  23.428  0.00  0.00    +0.000 C 
ATOM     27  N   UNL     1      -1.028  14.814  24.443  0.00  0.00    +0.000 NA
ENDBRANCH  21  26
ENDBRANCH  18  19
ENDBRANCH  17  18
ENDBRANCH   4  17
TORSDOF 7
ENDMDL
MODEL 9
REMARK VINA RESULT:      -7.4      4.524      9.434
REMARK  Name = 
REMARK  8 active torsions:
REMARK  status: ('A' for Active; 'I' for Inactive)
REMARK    1  A    between atoms: C_1  and  O_2
REMARK    2  A    between atoms: O_2  and  C_3
REMARK    3  A    between atoms: C_6  and  C_7
REMARK    4  A    between atoms: C_10  and  C_11
REMARK    5  A    between atoms: C_11  and  O_12
REMARK    6  A    between atoms: O_12  and  C_13
REMARK    7  A    between atoms: C_13  and  C_14
REMARK    8  A    between atoms: N_18  and  C_19
REMARK                            x       y       z     vdW  Elec       q    Type
REMARK                         _______ _______ _______ _____ _____    ______ ____
ROOT
ATOM      1  C   UNL     1       2.662   7.333  18.381  0.00  0.00    +0.000 A 
ATOM      2  C   UNL     1       2.208   8.494  17.728  0.00  0.00    +0.000 A 
ATOM      3  C   UNL     1       1.447   9.458  18.393  0.00  0.00    +0.000 A 
ATOM      4  C   UNL     1       1.099   9.277  19.734  0.00  0.00    +0.000 A 
ATOM      5  C   UNL     1       1.513   8.116  20.377  0.00  0.00    +0.000 A 
ATOM      6  F   UNL     1       1.196   7.913  21.666  0.00  0.00    +0.000 F 
ATOM      7  C   UNL     1       2.284   7.157  19.722  0.00  0.00    +0.000 A 
ENDROOT
BRANCH   1  11
ATOM      8  C   UNL     1       5.161   4.464  16.336  0.00  0.00    +0.000 A 
ATOM      9  C   UNL     1       5.415   5.832  16.220  0.00  0.00    +0.000 A 
ATOM     10  C   UNL     1       4.621   6.769  16.893  0.00  0.00    +0.000 A 
ATOM     11  C   UNL     1       3.538   6.366  17.694  0.00  0.00    +0.000 A 
ATOM     12  C   UNL     1       3.298   4.986  17.798  0.00  0.00    +0.000 A 
ATOM     13  C   UNL     1       4.101   4.057  17.141  0.00  0.00    +0.000 A 
ATOM     14  F   UNL     1       3.801   2.759  17.315  0.00  0.00    +0.000 F 
BRANCH   8  16
ATOM     15  C   UNL     1       6.331   4.100  14.305  0.00  0.00    +0.000 C 
ATOM     16  O   UNL     1       6.007   3.663  15.620  0.00  0.00    +0.000 OA
ENDBRANCH   8  16
ENDBRANCH   1  11
BRANCH   4  17
ATOM     17  C   UNL     1       0.342  10.334  20.473  0.00  0.00    +0.000 C 
BRANCH  17  18
ATOM     18  O   UNL     1       0.757  11.617  20.008  0.00  0.00    +0.000 OA
BRANCH  18  19
ATOM     19  C   UNL     1      -0.321  12.528  19.638  0.00  0.00    +0.000 C 
ATOM     20  C   UNL     1      -1.656  11.776  19.215  0.00  0.00    +0.000 C 
ATOM     21  N   UNL     1      -2.432  12.791  20.004  0.00  0.00    +0.000 N 
ATOM     22  C   UNL     1      -1.222  12.969  20.864  0.00  0.00    +0.000 C 
BRANCH  19  23
ATOM     23  C   UNL     1       0.150  13.602  18.638  0.00  0.00    +0.000 C 
ATOM     24  C   UNL     1       0.274  15.074  18.916  0.00  0.00    +0.000 C 
ATOM     25  C   UNL     1       1.509  14.252  18.681  0.00  0.00    +0.000 C 
ENDBRANCH  19  23
BRANCH  21  26
ATOM     26  C   UNL     1      -3.696  12.715  20.403  0.00  0.00    +0.000 C 
ATOM     27  N   UNL     1      -4.787  12.668  20.785  0.00  0.00    +0.000 NA
ENDBRANCH  21  26
ENDBRANCH  18  19
ENDBRANCH  17  18
ENDBRANCH   4  17
TORSDOF 7
ENDMDL
