MODEL 1
REMARK VINA RESULT:      -8.5      0.000      0.000
REMARK  Name = 
REMARK  7 active torsions:
REMARK  status: ('A' for Active; 'I' for Inactive)
REMARK    1  A    between atoms: C_1  and  C_2
REMARK    2  A    between atoms: C_2  and  N_3
REMARK    3  A    between atoms: N_3  and  C_4
REMARK    4  A    between atoms: C_7  and  N_8
REMARK    5  A    between atoms: C_10  and  C_11
REMARK    6  A    between atoms: N_15  and  C_16
REMARK    7  A    between atoms: C_24  and  C_25
REMARK                            x       y       z     vdW  Elec       q    Type
REMARK                         _______ _______ _______ _____ _____    ______ ____
ROOT
ATOM      1  N   UNL     1       1.799   7.463  19.835  0.00  0.00    +0.000 N 
ATOM      2  C   UNL     1       1.415   6.579  20.801  0.00  0.00    +0.000 A 
ATOM      3  C   UNL     1       1.822   5.325  20.366  0.00  0.00    +0.000 A 
ATOM      4  C   UNL     1       2.440   5.573  19.108  0.00  0.00    +0.000 A 
ATOM      5  N   UNL     1       2.949   4.613  18.292  0.00  0.00    +0.000 N 
ATOM      6  N   UNL     1       2.409   6.871  18.801  0.00  0.00    +0.000 NA
ATOM      7  H   UNL     1       2.644   3.651  18.410  0.00  0.00    +0.000 HD
ENDROOT
BRANCH   5   8
ATOM      8  C   UNL     1       4.026   4.750  17.392  0.00  0.00    +0.000 A 
ATOM      9  C   UNL     1       4.454   6.009  16.940  0.00  0.00    +0.000 A 
ATOM     10  C   UNL     1       5.460   6.130  15.979  0.00  0.00    +0.000 A 
ATOM     11  C   UNL     1       6.034   4.984  15.440  0.00  0.00    +0.000 A 
ATOM     12 CL   UNL     1       7.235   5.125  14.216  0.00  0.00    +0.000 Cl
ATOM     13  C   UNL     1       5.629   3.723  15.875  0.00  0.00    +0.000 A 
ATOM     14  C   UNL     1       4.635   3.609  16.855  0.00  0.00    +0.000 A 
ENDBRANCH   5   8
BRANCH   1  18
ATOM     15  C   UNL     1      -0.602  10.863  18.936  0.00  0.00    +0.000 C 
ATOM     16  C   UNL     1       0.704  10.727  18.131  0.00  0.00    +0.000 C 
ATOM     17  C   UNL     1       1.381   9.368  18.300  0.00  0.00    +0.000 C 
ATOM     18  C   UNL     1       1.552   8.914  19.768  0.00  0.00    +0.000 C 
ATOM     19  C   UNL     1       0.381   9.284  20.709  0.00  0.00    +0.000 C 
ATOM     20  C   UNL     1      -0.244  10.657  20.412  0.00  0.00    +0.000 C 
BRANCH  15  21
ATOM     21  N   UNL     1      -1.612   9.926  18.429  0.00  0.00    +0.000 NA
ATOM     22  H   UNL     1      -1.148   9.125  17.996  0.00  0.00    +0.000 HD
BRANCH  21  24
ATOM     23  C   UNL     1      -2.459  10.193  16.007  0.00  0.00    +0.000 C 
ATOM     24  C   UNL     1      -2.647  10.439  17.488  0.00  0.00    +0.000 C 
ATOM     25  C   UNL     1      -3.484  11.622  17.921  0.00  0.00    +0.000 C 
ATOM     26  C   UNL     1      -4.077  10.251  17.965  0.00  0.00    +0.000 C 
ENDBRANCH  21  24
ENDBRANCH  15  21
BRANCH  19  27
ATOM     27  C   UNL     1       0.879   9.277  22.109  0.00  0.00    +0.000 C 
ATOM     28  N   UNL     1       1.289   9.328  23.191  0.00  0.00    +0.000 NA
ENDBRANCH  19  27
ENDBRANCH   1  18
BRANCH   3  29
ATOM     29  C   UNL     1       1.694   4.060  21.063  0.00  0.00    +0.000 C 
ATOM     30  N   UNL     1       0.733   3.212  20.587  0.00  0.00    +0.000 N 
ATOM     31  O   UNL     1       2.411   3.722  21.999  0.00  0.00    +0.000 OA
ATOM     32  H   UNL     1       0.330   3.342  19.672  0.00  0.00    +0.000 HD
ATOM     33  H   UNL     1       0.716   2.284  20.990  0.00  0.00    +0.000 HD
ENDBRANCH   3  29
TORSDOF 6
ENDMDL
MODEL 2
REMARK VINA RESULT:      -8.4      0.722      1.073
REMARK  Name = 
REMARK  7 active torsions:
REMARK  status: ('A' for Active; 'I' for Inactive)
REMARK    1  A    between atoms: C_1  and  C_2
REMARK    2  A    between atoms: C_2  and  N_3
REMARK    3  A    between atoms: N_3  and  C_4
REMARK    4  A    between atoms: C_7  and  N_8
REMARK    5  A    between atoms: C_10  and  C_11
REMARK    6  A    between atoms: N_15  and  C_16
REMARK    7  A    between atoms: C_24  and  C_25
REMARK                            x       y       z     vdW  Elec       q    Type
REMARK                         _______ _______ _______ _____ _____    ______ ____
ROOT
ATOM      1  N   UNL     1       2.030   7.205  19.904  0.00  0.00    +0.000 N 
ATOM      2  C   UNL     1       1.535   6.364  20.858  0.00  0.00    +0.000 A 
ATOM      3  C   UNL     1       1.898   5.080  20.473  0.00  0.00    +0.000 A 
ATOM      4  C   UNL     1       2.609   5.267  19.254  0.00  0.00    +0.000 A 
ATOM      5  N   UNL     1       3.115   4.265  18.489  0.00  0.00    +0.000 N 
ATOM      6  N   UNL     1       2.671   6.558  18.923  0.00  0.00    +0.000 NA
ATOM      7  H   UNL     1       2.749   3.323  18.604  0.00  0.00    +0.000 HD
ENDROOT
BRANCH   5   8
ATOM      8  C   UNL     1       4.254   4.323  17.660  0.00  0.00    +0.000 A 
ATOM      9  C   UNL     1       5.530   4.598  18.178  0.00  0.00    +0.000 A 
ATOM     10  C   UNL     1       6.636   4.746  17.339  0.00  0.00    +0.000 A 
ATOM     11  C   UNL     1       6.470   4.642  15.962  0.00  0.00    +0.000 A 
ATOM     12 CL   UNL     1       7.818   4.878  14.920  0.00  0.00    +0.000 Cl
ATOM     13  C   UNL     1       5.214   4.366  15.424  0.00  0.00    +0.000 A 
ATOM     14  C   UNL     1       4.113   4.198  16.272  0.00  0.00    +0.000 A 
ENDBRANCH   5   8
BRANCH   1  18
ATOM     15  C   UNL     1      -0.175  10.716  18.933  0.00  0.00    +0.000 C 
ATOM     16  C   UNL     1       1.108  10.478  18.117  0.00  0.00    +0.000 C 
ATOM     17  C   UNL     1       1.704   9.085  18.318  0.00  0.00    +0.000 C 
ATOM     18  C   UNL     1       1.870   8.665  19.796  0.00  0.00    +0.000 C 
ATOM     19  C   UNL     1       0.737   9.133  20.741  0.00  0.00    +0.000 C 
ATOM     20  C   UNL     1       0.191  10.532  20.410  0.00  0.00    +0.000 C 
BRANCH  15  21
ATOM     21  N   UNL     1      -1.247   9.827  18.468  0.00  0.00    +0.000 NA
ATOM     22  H   UNL     1      -0.872   9.169  17.782  0.00  0.00    +0.000 HD
BRANCH  21  24
ATOM     23  C   UNL     1      -2.854  11.841  18.347  0.00  0.00    +0.000 C 
ATOM     24  C   UNL     1      -2.485  10.440  17.910  0.00  0.00    +0.000 C 
ATOM     25  C   UNL     1      -3.588   9.520  17.434  0.00  0.00    +0.000 C 
ATOM     26  C   UNL     1      -2.702  10.182  16.429  0.00  0.00    +0.000 C 
ENDBRANCH  21  24
ENDBRANCH  15  21
BRANCH  19  27
ATOM     27  C   UNL     1       1.254   9.138  22.134  0.00  0.00    +0.000 C 
ATOM     28  N   UNL     1       1.615   9.185  23.233  0.00  0.00    +0.000 NA
ENDBRANCH  19  27
ENDBRANCH   1  18
BRANCH   3  29
ATOM     29  C   UNL     1       1.655   3.839  21.181  0.00  0.00    +0.000 C 
ATOM     30  N   UNL     1       0.659   3.050  20.676  0.00  0.00    +0.000 N 
ATOM     31  O   UNL     1       2.307   3.470  22.152  0.00  0.00    +0.000 OA
ATOM     32  H   UNL     1       0.305   3.191  19.743  0.00  0.00    +0.000 HD
ATOM     33  H   UNL     1       0.562   2.133  21.092  0.00  0.00    +0.000 HD
ENDBRANCH   3  29
TORSDOF 6
ENDMDL
MODEL 3
REMARK VINA RESULT:      -7.6      3.290      8.043
REMARK  Name = 
REMARK  7 active torsions:
REMARK  status: ('A' for Active; 'I' for Inactive)
REMARK    1  A    between atoms: C_1  and  C_2
REMARK    2  A    between atoms: C_2  and  N_3
REMARK    3  A    between atoms: N_3  and  C_4
REMARK    4  A    between atoms: C_7  and  N_8
REMARK    5  A    between atoms: C_10  and  C_11
REMARK    6  A    between atoms: N_15  and  C_16
REMARK    7  A    between atoms: C_24  and  C_25
REMARK                            x       y       z     vdW  Elec       q    Type
REMARK                         _______ _______ _______ _____ _____    ______ ____
ROOT
ATOM      1  N   UNL     1       1.847   7.457  19.549  0.00  0.00    +0.000 N 
ATOM      2  C   UNL     1       2.100   7.588  20.884  0.00  0.00    +0.000 A 
ATOM      3  C   UNL     1       1.482   8.766  21.283  0.00  0.00    +0.000 A 
ATOM      4  C   UNL     1       0.888   9.273  20.093  0.00  0.00    +0.000 A 
ATOM      5  N   UNL     1       0.211  10.447  20.003  0.00  0.00    +0.000 N 
ATOM      6  N   UNL     1       1.127   8.471  19.054  0.00  0.00    +0.000 NA
ATOM      7  H   UNL     1       0.355  11.157  20.716  0.00  0.00    +0.000 HD
ENDROOT
BRANCH   5   8
ATOM      8  C   UNL     1      -0.847  10.751  19.121  0.00  0.00    +0.000 A 
ATOM      9  C   UNL     1      -1.867  11.649  19.474  0.00  0.00    +0.000 A 
ATOM     10  C   UNL     1      -2.959  11.873  18.633  0.00  0.00    +0.000 A 
ATOM     11  C   UNL     1      -3.052  11.177  17.433  0.00  0.00    +0.000 A 
ATOM     12 CL   UNL     1      -4.422  11.407  16.418  0.00  0.00    +0.000 Cl
ATOM     13  C   UNL     1      -2.051  10.282  17.058  0.00  0.00    +0.000 A 
ATOM     14  C   UNL     1      -0.948  10.079  17.896  0.00  0.00    +0.000 A 
ENDBRANCH   5   8
BRANCH   1  18
ATOM     15  C   UNL     1       4.853   4.896  17.955  0.00  0.00    +0.000 C 
ATOM     16  C   UNL     1       4.272   5.941  16.984  0.00  0.00    +0.000 C 
ATOM     17  C   UNL     1       3.406   6.994  17.675  0.00  0.00    +0.000 C 
ATOM     18  C   UNL     1       2.329   6.418  18.622  0.00  0.00    +0.000 C 
ATOM     19  C   UNL     1       2.763   5.169  19.426  0.00  0.00    +0.000 C 
ATOM     20  C   UNL     1       3.666   4.207  18.636  0.00  0.00    +0.000 C 
BRANCH  15  21
ATOM     21  N   UNL     1       5.790   5.535  18.888  0.00  0.00    +0.000 NA
ATOM     22  H   UNL     1       5.529   6.514  19.018  0.00  0.00    +0.000 HD
BRANCH  21  24
ATOM     23  C   UNL     1       7.718   4.507  17.516  0.00  0.00    +0.000 C 
ATOM     24  C   UNL     1       7.247   5.468  18.586  0.00  0.00    +0.000 C 
ATOM     25  C   UNL     1       8.222   5.873  19.670  0.00  0.00    +0.000 C 
ATOM     26  C   UNL     1       7.943   6.818  18.546  0.00  0.00    +0.000 C 
ENDBRANCH  21  24
ENDBRANCH  15  21
BRANCH  19  27
ATOM     27  C   UNL     1       1.544   4.436  19.857  0.00  0.00    +0.000 C 
ATOM     28  N   UNL     1       0.622   3.813  20.176  0.00  0.00    +0.000 NA
ENDBRANCH  19  27
ENDBRANCH   1  18
BRANCH   3  29
ATOM     29  C   UNL     1       1.414   9.323  22.620  0.00  0.00    +0.000 C 
ATOM     30  N   UNL     1       2.558   9.234  23.362  0.00  0.00    +0.000 N 
ATOM     31  O   UNL     1       0.421   9.880  23.076  0.00  0.00    +0.000 OA
ATOM     32  H   UNL     1       3.447   9.038  22.929  0.00  0.00    +0.000 HD
ATOM     33  H   UNL     1       2.555   9.722  24.248  0.00  0.00    +0.000 HD
ENDBRANCH   3  29
TORSDOF 6
ENDMDL
MODEL 4
REMARK VINA RESULT:      -7.4      4.097      6.164
REMARK  Name = 
REMARK  7 active torsions:
REMARK  status: ('A' for Active; 'I' for Inactive)
REMARK    1  A    between atoms: C_1  and  C_2
REMARK    2  A    between atoms: C_2  and  N_3
REMARK    3  A    between atoms: N_3  and  C_4
REMARK    4  A    between atoms: C_7  and  N_8
REMARK    5  A    between atoms: C_10  and  C_11
REMARK    6  A    between atoms: N_15  and  C_16
REMARK    7  A    between atoms: C_24  and  C_25
REMARK                            x       y       z     vdW  Elec       q    Type
REMARK                         _______ _______ _______ _____ _____    ______ ____
ROOT
ATOM      1  N   UNL     1      -0.740  11.917  20.090  0.00  0.00    +0.000 N 
ATOM      2  C   UNL     1      -1.805  11.922  19.236  0.00  0.00    +0.000 A 
ATOM      3  C   UNL     1      -1.490  11.034  18.215  0.00  0.00    +0.000 A 
ATOM      4  C   UNL     1      -0.194  10.554  18.555  0.00  0.00    +0.000 A 
ATOM      5  N   UNL     1       0.535   9.690  17.802  0.00  0.00    +0.000 N 
ATOM      6  N   UNL     1       0.246  11.106  19.687  0.00  0.00    +0.000 NA
ATOM      7  H   UNL     1       0.308   9.578  16.817  0.00  0.00    +0.000 HD
ENDROOT
BRANCH   5   8
ATOM      8  C   UNL     1       1.479   8.749  18.265  0.00  0.00    +0.000 A 
ATOM      9  C   UNL     1       2.517   8.280  17.444  0.00  0.00    +0.000 A 
ATOM     10  C   UNL     1       3.390   7.281  17.880  0.00  0.00    +0.000 A 
ATOM     11  C   UNL     1       3.217   6.723  19.141  0.00  0.00    +0.000 A 
ATOM     12 CL   UNL     1       4.255   5.454  19.662  0.00  0.00    +0.000 Cl
ATOM     13  C   UNL     1       2.196   7.174  19.976  0.00  0.00    +0.000 A 
ATOM     14  C   UNL     1       1.337   8.191  19.542  0.00  0.00    +0.000 A 
ENDBRANCH   5   8
BRANCH   1  18
ATOM     15  C   UNL     1      -2.060  14.563  23.155  0.00  0.00    +0.000 C 
ATOM     16  C   UNL     1      -0.971  15.110  22.213  0.00  0.00    +0.000 C 
ATOM     17  C   UNL     1      -0.734  14.232  20.985  0.00  0.00    +0.000 C 
ATOM     18  C   UNL     1      -0.531  12.731  21.300  0.00  0.00    +0.000 C 
ATOM     19  C   UNL     1      -1.403  12.179  22.452  0.00  0.00    +0.000 C 
ATOM     20  C   UNL     1      -1.603  13.173  23.609  0.00  0.00    +0.000 C 
BRANCH  15  21
ATOM     21  N   UNL     1      -3.365  14.574  22.482  0.00  0.00    +0.000 NA
ATOM     22  H   UNL     1      -3.394  15.338  21.804  0.00  0.00    +0.000 HD
BRANCH  21  24
ATOM     23  C   UNL     1      -4.812  15.861  24.187  0.00  0.00    +0.000 C 
ATOM     24  C   UNL     1      -4.594  14.638  23.322  0.00  0.00    +0.000 C 
ATOM     25  C   UNL     1      -5.248  13.338  23.735  0.00  0.00    +0.000 C 
ATOM     26  C   UNL     1      -5.854  14.144  22.631  0.00  0.00    +0.000 C 
ENDBRANCH  21  24
ENDBRANCH  15  21
BRANCH  19  27
ATOM     27  C   UNL     1      -0.763  10.948  22.983  0.00  0.00    +0.000 C 
ATOM     28  N   UNL     1      -0.219  10.024  23.419  0.00  0.00    +0.000 NA
ENDBRANCH  19  27
ENDBRANCH   1  18
BRANCH   3  29
ATOM     29  C   UNL     1      -2.317  10.646  17.091  0.00  0.00    +0.000 C 
ATOM     30  N   UNL     1      -2.400  11.552  16.071  0.00  0.00    +0.000 N 
ATOM     31  O   UNL     1      -2.891   9.565  17.008  0.00  0.00    +0.000 OA
ATOM     32  H   UNL     1      -1.737  12.307  15.988  0.00  0.00    +0.000 HD
ATOM     33  H   UNL     1      -2.878  11.242  15.235  0.00  0.00    +0.000 HD
ENDBRANCH   3  29
TORSDOF 6
ENDMDL
MODEL 5
REMARK VINA RESULT:      -7.2      6.895      9.331
REMARK  Name = 
REMARK  7 active torsions:
REMARK  status: ('A' for Active; 'I' for Inactive)
REMARK    1  A    between atoms: C_1  and  C_2
REMARK    2  A    between atoms: C_2  and  N_3
REMARK    3  A    between atoms: N_3  and  C_4
REMARK    4  A    between atoms: C_7  and  N_8
REMARK    5  A    between atoms: C_10  and  C_11
REMARK    6  A    between atoms: N_15  and  C_16
REMARK    7  A    between atoms: C_24  and  C_25
REMARK                            x       y       z     vdW  Elec       q    Type
REMARK                         _______ _______ _______ _____ _____    ______ ____
ROOT
ATOM      1  N   UNL     1      -5.632  13.326  21.074  0.00  0.00    +0.000 N 
ATOM      2  C   UNL     1      -5.839  14.346  21.957  0.00  0.00    +0.000 A 
ATOM      3  C   UNL     1      -4.895  14.187  22.963  0.00  0.00    +0.000 A 
ATOM      4  C   UNL     1      -4.171  13.021  22.585  0.00  0.00    +0.000 A 
ATOM      5  N   UNL     1      -3.170  12.460  23.313  0.00  0.00    +0.000 N 
ATOM      6  N   UNL     1      -4.637  12.511  21.444  0.00  0.00    +0.000 NA
ATOM      7  H   UNL     1      -3.095  12.678  24.302  0.00  0.00    +0.000 HD
ENDROOT
BRANCH   5   8
ATOM      8  C   UNL     1      -2.066  11.734  22.818  0.00  0.00    +0.000 A 
ATOM      9  C   UNL     1      -1.587  10.586  23.468  0.00  0.00    +0.000 A 
ATOM     10  C   UNL     1      -0.438   9.928  23.024  0.00  0.00    +0.000 A 
ATOM     11  C   UNL     1       0.260  10.431  21.932  0.00  0.00    +0.000 A 
ATOM     12 CL   UNL     1       1.706   9.657  21.414  0.00  0.00    +0.000 Cl
ATOM     13  C   UNL     1      -0.198  11.568  21.267  0.00  0.00    +0.000 A 
ATOM     14  C   UNL     1      -1.363  12.210  21.704  0.00  0.00    +0.000 A 
ENDBRANCH   5   8
BRANCH   1  18
ATOM     15  C   UNL     1      -5.962  12.113  17.005  0.00  0.00    +0.000 C 
ATOM     16  C   UNL     1      -6.488  13.522  17.334  0.00  0.00    +0.000 C 
ATOM     17  C   UNL     1      -6.102  14.002  18.732  0.00  0.00    +0.000 C 
ATOM     18  C   UNL     1      -6.402  12.991  19.863  0.00  0.00    +0.000 C 
ATOM     19  C   UNL     1      -6.167  11.506  19.494  0.00  0.00    +0.000 C 
ATOM     20  C   UNL     1      -6.554  11.158  18.047  0.00  0.00    +0.000 C 
BRANCH  15  21
ATOM     21  N   UNL     1      -4.494  12.115  16.961  0.00  0.00    +0.000 NA
ATOM     22  H   UNL     1      -4.170  12.901  16.394  0.00  0.00    +0.000 HD
BRANCH  21  24
ATOM     23  C   UNL     1      -4.001  10.427  15.074  0.00  0.00    +0.000 C 
ATOM     24  C   UNL     1      -3.797  10.881  16.503  0.00  0.00    +0.000 C 
ATOM     25  C   UNL     1      -3.416   9.847  17.539  0.00  0.00    +0.000 C 
ATOM     26  C   UNL     1      -2.363  10.752  16.988  0.00  0.00    +0.000 C 
ENDBRANCH  21  24
ENDBRANCH  15  21
BRANCH  19  27
ATOM     27  C   UNL     1      -6.959  10.657  20.420  0.00  0.00    +0.000 C 
ATOM     28  N   UNL     1      -7.623  10.035  21.136  0.00  0.00    +0.000 NA
ENDBRANCH  19  27
ENDBRANCH   1  18
BRANCH   3  29
ATOM     29  C   UNL     1      -4.667  15.045  24.109  0.00  0.00    +0.000 C 
ATOM     30  N   UNL     1      -5.667  15.931  24.398  0.00  0.00    +0.000 N 
ATOM     31  O   UNL     1      -3.670  14.982  24.819  0.00  0.00    +0.000 OA
ATOM     32  H   UNL     1      -6.592  15.818  24.013  0.00  0.00    +0.000 HD
ATOM     33  H   UNL     1      -5.568  16.450  25.261  0.00  0.00    +0.000 HD
ENDBRANCH   3  29
TORSDOF 6
ENDMDL
MODEL 6
REMARK VINA RESULT:      -7.2      4.372      6.635
REMARK  Name = 
REMARK  7 active torsions:
REMARK  status: ('A' for Active; 'I' for Inactive)
REMARK    1  A    between atoms: C_1  and  C_2
REMARK    2  A    between atoms: C_2  and  N_3
REMARK    3  A    between atoms: N_3  and  C_4
REMARK    4  A    between atoms: C_7  and  N_8
REMARK    5  A    between atoms: C_10  and  C_11
REMARK    6  A    between atoms: N_15  and  C_16
REMARK    7  A    between atoms: C_24  and  C_25
REMARK                            x       y       z     vdW  Elec       q    Type
REMARK                         _______ _______ _______ _____ _____    ______ ____
ROOT
ATOM      1  N   UNL     1      -1.388  12.184  20.269  0.00  0.00    +0.000 N 
ATOM      2  C   UNL     1      -2.358  12.259  19.313  0.00  0.00    +0.000 A 
ATOM      3  C   UNL     1      -1.926  11.469  18.256  0.00  0.00    +0.000 A 
ATOM      4  C   UNL     1      -0.665  10.967  18.685  0.00  0.00    +0.000 A 
ATOM      5  N   UNL     1       0.150  10.177  17.939  0.00  0.00    +0.000 N 
ATOM      6  N   UNL     1      -0.354  11.418  19.902  0.00  0.00    +0.000 NA
ATOM      7  H   UNL     1       0.028  10.153  16.930  0.00  0.00    +0.000 HD
ENDROOT
BRANCH   5   8
ATOM      8  C   UNL     1       1.055   9.204  18.413  0.00  0.00    +0.000 A 
ATOM      9  C   UNL     1       1.985   8.585  17.563  0.00  0.00    +0.000 A 
ATOM     10  C   UNL     1       2.813   7.558  18.020  0.00  0.00    +0.000 A 
ATOM     11  C   UNL     1       2.699   7.121  19.335  0.00  0.00    +0.000 A 
ATOM     12 CL   UNL     1       3.677   5.818  19.888  0.00  0.00    +0.000 Cl
ATOM     13  C   UNL     1       1.785   7.721  20.199  0.00  0.00    +0.000 A 
ATOM     14  C   UNL     1       0.973   8.765  19.741  0.00  0.00    +0.000 A 
ENDBRANCH   5   8
BRANCH   1  18
ATOM     15  C   UNL     1      -3.138  14.152  23.616  0.00  0.00    +0.000 C 
ATOM     16  C   UNL     1      -2.210  15.010  22.738  0.00  0.00    +0.000 C 
ATOM     17  C   UNL     1      -1.831  14.338  21.418  0.00  0.00    +0.000 C 
ATOM     18  C   UNL     1      -1.317  12.887  21.562  0.00  0.00    +0.000 C 
ATOM     19  C   UNL     1      -2.027  12.045  22.649  0.00  0.00    +0.000 C 
ATOM     20  C   UNL     1      -2.395  12.844  23.911  0.00  0.00    +0.000 C 
BRANCH  15  21
ATOM     21  N   UNL     1      -4.435  13.966  22.955  0.00  0.00    +0.000 NA
ATOM     22  H   UNL     1      -4.290  13.588  22.017  0.00  0.00    +0.000 HD
BRANCH  21  24
ATOM     23  C   UNL     1      -5.596  15.750  21.496  0.00  0.00    +0.000 C 
ATOM     24  C   UNL     1      -5.355  15.134  22.858  0.00  0.00    +0.000 C 
ATOM     25  C   UNL     1      -5.545  16.000  24.084  0.00  0.00    +0.000 C 
ATOM     26  C   UNL     1      -6.609  15.020  23.709  0.00  0.00    +0.000 C 
ENDBRANCH  21  24
ENDBRANCH  15  21
BRANCH  19  27
ATOM     27  C   UNL     1      -1.134  10.923  23.036  0.00  0.00    +0.000 C 
ATOM     28  N   UNL     1      -0.468  10.045  23.392  0.00  0.00    +0.000 NA
ENDBRANCH  19  27
ENDBRANCH   1  18
BRANCH   3  29
ATOM     29  C   UNL     1      -2.627  11.179  17.021  0.00  0.00    +0.000 C 
ATOM     30  N   UNL     1      -3.785  11.875  16.815  0.00  0.00    +0.000 N 
ATOM     31  O   UNL     1      -2.216  10.394  16.173  0.00  0.00    +0.000 OA
ATOM     32  H   UNL     1      -3.996  12.705  17.346  0.00  0.00    +0.000 HD
ATOM     33  H   UNL     1      -4.217  11.766  15.907  0.00  0.00    +0.000 HD
ENDBRANCH   3  29
TORSDOF 6
ENDMDL
MODEL 7
REMARK VINA RESULT:      -7.1      5.652      8.780
REMARK  Name = 
REMARK  7 active torsions:
REMARK  status: ('A' for Active; 'I' for Inactive)
REMARK    1  A    between atoms: C_1  and  C_2
REMARK    2  A    between atoms: C_2  and  N_3
REMARK    3  A    between atoms: N_3  and  C_4
REMARK    4  A    between atoms: C_7  and  N_8
REMARK    5  A    between atoms: C_10  and  C_11
REMARK    6  A    between atoms: N_15  and  C_16
REMARK    7  A    between atoms: C_24  and  C_25
REMARK                            x       y       z     vdW  Elec       q    Type
REMARK                         _______ _______ _______ _____ _____    ______ ____
ROOT
ATOM      1  N   UNL     1      -5.231  11.556  18.003  0.00  0.00    +0.000 N 
ATOM      2  C   UNL     1      -5.303  11.181  16.692  0.00  0.00    +0.000 A 
ATOM      3  C   UNL     1      -3.997  10.954  16.279  0.00  0.00    +0.000 A 
ATOM      4  C   UNL     1      -3.210  11.234  17.432  0.00  0.00    +0.000 A 
ATOM      5  N   UNL     1      -1.853  11.189  17.475  0.00  0.00    +0.000 N 
ATOM      6  N   UNL     1      -3.975  11.604  18.461  0.00  0.00    +0.000 NA
ATOM      7  H   UNL     1      -1.329  11.240  16.606  0.00  0.00    +0.000 HD
ENDROOT
BRANCH   5   8
ATOM      8  C   UNL     1      -1.050  10.877  18.592  0.00  0.00    +0.000 A 
ATOM      9  C   UNL     1       0.005   9.955  18.507  0.00  0.00    +0.000 A 
ATOM     10  C   UNL     1       0.736   9.583  19.637  0.00  0.00    +0.000 A 
ATOM     11  C   UNL     1       0.398  10.116  20.876  0.00  0.00    +0.000 A 
ATOM     12 CL   UNL     1       1.258   9.620  22.281  0.00  0.00    +0.000 Cl
ATOM     13  C   UNL     1      -0.643  11.036  20.986  0.00  0.00    +0.000 A 
ATOM     14  C   UNL     1      -1.357  11.421  19.845  0.00  0.00    +0.000 A 
ENDBRANCH   5   8
BRANCH   1  18
ATOM     15  C   UNL     1      -6.782  12.783  21.774  0.00  0.00    +0.000 C 
ATOM     16  C   UNL     1      -7.319  11.448  21.226  0.00  0.00    +0.000 C 
ATOM     17  C   UNL     1      -6.538  10.931  20.018  0.00  0.00    +0.000 C 
ATOM     18  C   UNL     1      -6.323  11.975  18.898  0.00  0.00    +0.000 C 
ATOM     19  C   UNL     1      -6.064  13.419  19.389  0.00  0.00    +0.000 C 
ATOM     20  C   UNL     1      -6.877  13.806  20.637  0.00  0.00    +0.000 C 
BRANCH  15  21
ATOM     21  N   UNL     1      -5.426  12.605  22.308  0.00  0.00    +0.000 NA
ATOM     22  H   UNL     1      -5.213  11.608  22.376  0.00  0.00    +0.000 HD
BRANCH  21  24
ATOM     23  C   UNL     1      -4.766  12.368  24.790  0.00  0.00    +0.000 C 
ATOM     24  C   UNL     1      -5.085  13.254  23.605  0.00  0.00    +0.000 C 
ATOM     25  C   UNL     1      -5.607  14.649  23.868  0.00  0.00    +0.000 C 
ATOM     26  C   UNL     1      -4.175  14.464  23.483  0.00  0.00    +0.000 C 
ENDBRANCH  21  24
ENDBRANCH  15  21
BRANCH  19  27
ATOM     27  C   UNL     1      -6.397  14.361  18.290  0.00  0.00    +0.000 C 
ATOM     28  N   UNL     1      -6.712  15.069  17.429  0.00  0.00    +0.000 NA
ENDBRANCH  19  27
ENDBRANCH   1  18
BRANCH   3  29
ATOM     29  C   UNL     1      -3.545  10.486  14.984  0.00  0.00    +0.000 C 
ATOM     30  N   UNL     1      -4.527  10.122  14.106  0.00  0.00    +0.000 N 
ATOM     31  O   UNL     1      -2.366  10.443  14.649  0.00  0.00    +0.000 OA
ATOM     32  H   UNL     1      -5.485  10.403  14.248  0.00  0.00    +0.000 HD
ATOM     33  H   UNL     1      -4.227   9.907  13.164  0.00  0.00    +0.000 HD
ENDBRANCH   3  29
TORSDOF 6
ENDMDL
MODEL 8
REMARK VINA RESULT:      -7.1      5.808     10.243
REMARK  Name = 
REMARK  7 active torsions:
REMARK  status: ('A' for Active; 'I' for Inactive)
REMARK    1  A    between atoms: C_1  and  C_2
REMARK    2  A    between atoms: C_2  and  N_3
REMARK    3  A    between atoms: N_3  and  C_4
REMARK    4  A    between atoms: C_7  and  N_8
REMARK    5  A    between atoms: C_10  and  C_11
REMARK    6  A    between atoms: N_15  and  C_16
REMARK    7  A    between atoms: C_24  and  C_25
REMARK                            x       y       z     vdW  Elec       q    Type
REMARK                         _______ _______ _______ _____ _____    ______ ____
ROOT
ATOM      1  N   UNL     1      -3.226  12.137  18.986  0.00  0.00    +0.000 N 
ATOM      2  C   UNL     1      -4.444  11.832  18.453  0.00  0.00    +0.000 A 
ATOM      3  C   UNL     1      -5.379  12.086  19.448  0.00  0.00    +0.000 A 
ATOM      4  C   UNL     1      -4.603  12.537  20.553  0.00  0.00    +0.000 A 
ATOM      5  N   UNL     1      -5.105  12.857  21.774  0.00  0.00    +0.000 N 
ATOM      6  N   UNL     1      -3.303  12.552  20.256  0.00  0.00    +0.000 NA
ATOM      7  H   UNL     1      -6.021  12.506  22.040  0.00  0.00    +0.000 HD
ENDROOT
BRANCH   5   8
ATOM      8  C   UNL     1      -4.587  13.804  22.682  0.00  0.00    +0.000 A 
ATOM      9  C   UNL     1      -4.638  15.182  22.420  0.00  0.00    +0.000 A 
ATOM     10  C   UNL     1      -4.040  16.106  23.279  0.00  0.00    +0.000 A 
ATOM     11  C   UNL     1      -3.360  15.654  24.404  0.00  0.00    +0.000 A 
ATOM     12 CL   UNL     1      -2.575  16.784  25.437  0.00  0.00    +0.000 Cl
ATOM     13  C   UNL     1      -3.298  14.291  24.688  0.00  0.00    +0.000 A 
ATOM     14  C   UNL     1      -3.918  13.371  23.834  0.00  0.00    +0.000 A 
ENDBRANCH   5   8
BRANCH   1  18
ATOM     15  C   UNL     1       0.876  10.997  19.072  0.00  0.00    +0.000 C 
ATOM     16  C   UNL     1       0.597  12.495  18.850  0.00  0.00    +0.000 C 
ATOM     17  C   UNL     1      -0.861  12.882  19.096  0.00  0.00    +0.000 C 
ATOM     18  C   UNL     1      -1.894  11.985  18.376  0.00  0.00    +0.000 C 
ATOM     19  C   UNL     1      -1.524  10.484  18.309  0.00  0.00    +0.000 C 
ATOM     20  C   UNL     1      -0.022  10.224  18.101  0.00  0.00    +0.000 C 
BRANCH  15  21
ATOM     21  N   UNL     1       0.674  10.646  20.483  0.00  0.00    +0.000 NA
ATOM     22  H   UNL     1       1.291  11.212  21.069  0.00  0.00    +0.000 HD
BRANCH  21  24
ATOM     23  C   UNL     1       1.751   8.335  20.087  0.00  0.00    +0.000 C 
ATOM     24  C   UNL     1       0.817   9.218  20.886  0.00  0.00    +0.000 C 
ATOM     25  C   UNL     1      -0.326   8.567  21.634  0.00  0.00    +0.000 C 
ATOM     26  C   UNL     1       0.893   8.993  22.386  0.00  0.00    +0.000 C 
ENDBRANCH  21  24
ENDBRANCH  15  21
BRANCH  19  27
ATOM     27  C   UNL     1      -2.277   9.860  17.191  0.00  0.00    +0.000 C 
ATOM     28  N   UNL     1      -2.898   9.425  16.315  0.00  0.00    +0.000 NA
ENDBRANCH  19  27
ENDBRANCH   1  18
BRANCH   3  29
ATOM     29  C   UNL     1      -6.821  11.970  19.361  0.00  0.00    +0.000 C 
ATOM     30  N   UNL     1      -7.291  10.958  18.571  0.00  0.00    +0.000 N 
ATOM     31  O   UNL     1      -7.602  12.691  19.973  0.00  0.00    +0.000 OA
ATOM     32  H   UNL     1      -6.693  10.198  18.286  0.00  0.00    +0.000 HD
ATOM     33  H   UNL     1      -8.290  10.797  18.597  0.00  0.00    +0.000 HD
ENDBRANCH   3  29
TORSDOF 6
ENDMDL
MODEL 9
REMARK VINA RESULT:      -7.0      3.787      6.856
REMARK  Name = 
REMARK  7 active torsions:
REMARK  status: ('A' for Active; 'I' for Inactive)
REMARK    1  A    between atoms: C_1  and  C_2
REMARK    2  A    between atoms: C_2  and  N_3
REMARK    3  A    between atoms: N_3  and  C_4
REMARK    4  A    between atoms: C_7  and  N_8
REMARK    5  A    between atoms: C_10  and  C_11
REMARK    6  A    between atoms: N_15  and  C_16
REMARK    7  A    between atoms: C_24  and  C_25
REMARK                            x       y       z     vdW  Elec       q    Type
REMARK                         _______ _______ _______ _____ _____    ______ ____
ROOT
ATOM      1  N   UNL     1      -1.956  11.340  18.282  0.00  0.00    +0.000 N 
ATOM      2  C   UNL     1      -1.424  12.593  18.198  0.00  0.00    +0.000 A 
ATOM      3  C   UNL     1      -0.113  12.491  18.644  0.00  0.00    +0.000 A 
ATOM      4  C   UNL     1       0.037  11.116  18.984  0.00  0.00    +0.000 A 
ATOM      5  N   UNL     1       1.159  10.567  19.515  0.00  0.00    +0.000 N 
ATOM      6  N   UNL     1      -1.092  10.439  18.766  0.00  0.00    +0.000 NA
ATOM      7  H   UNL     1       1.840  11.171  19.968  0.00  0.00    +0.000 HD
ENDROOT
BRANCH   5   8
ATOM      8  C   UNL     1       1.614   9.242  19.349  0.00  0.00    +0.000 A 
ATOM      9  C   UNL     1       2.074   8.770  18.109  0.00  0.00    +0.000 A 
ATOM     10  C   UNL     1       2.435   7.433  17.932  0.00  0.00    +0.000 A 
ATOM     11  C   UNL     1       2.316   6.544  18.995  0.00  0.00    +0.000 A 
ATOM     12 CL   UNL     1       2.707   4.884  18.767  0.00  0.00    +0.000 Cl
ATOM     13  C   UNL     1       1.865   6.989  20.236  0.00  0.00    +0.000 A 
ATOM     14  C   UNL     1       1.526   8.336  20.414  0.00  0.00    +0.000 A 
ENDBRANCH   5   8
BRANCH   1  18
ATOM     15  C   UNL     1      -6.104  12.068  17.649  0.00  0.00    +0.000 C 
ATOM     16  C   UNL     1      -5.750  11.203  18.873  0.00  0.00    +0.000 C 
ATOM     17  C   UNL     1      -4.257  11.201  19.202  0.00  0.00    +0.000 C 
ATOM     18  C   UNL     1      -3.335  10.907  17.996  0.00  0.00    +0.000 C 
ATOM     19  C   UNL     1      -3.800  11.517  16.652  0.00  0.00    +0.000 C 
ATOM     20  C   UNL     1      -5.326  11.500  16.458  0.00  0.00    +0.000 C 
BRANCH  15  21
ATOM     21  N   UNL     1      -5.824  13.482  17.927  0.00  0.00    +0.000 NA
ATOM     22  H   UNL     1      -5.226  13.557  18.752  0.00  0.00    +0.000 HD
BRANCH  21  24
ATOM     23  C   UNL     1      -7.636  14.511  19.448  0.00  0.00    +0.000 C 
ATOM     24  C   UNL     1      -6.975  14.414  18.090  0.00  0.00    +0.000 C 
ATOM     25  C   UNL     1      -7.790  14.766  16.865  0.00  0.00    +0.000 C 
ATOM     26  C   UNL     1      -6.802  15.754  17.395  0.00  0.00    +0.000 C 
ENDBRANCH  21  24
ENDBRANCH  15  21
BRANCH  19  27
ATOM     27  C   UNL     1      -3.167  10.757  15.543  0.00  0.00    +0.000 C 
ATOM     28  N   UNL     1      -2.684  10.213  14.643  0.00  0.00    +0.000 NA
ENDBRANCH  19  27
ENDBRANCH   1  18
BRANCH   3  29
ATOM     29  C   UNL     1       0.890  13.536  18.698  0.00  0.00    +0.000 C 
ATOM     30  N   UNL     1       0.461  14.750  19.158  0.00  0.00    +0.000 N 
ATOM     31  O   UNL     1       2.067  13.368  18.397  0.00  0.00    +0.000 OA
ATOM     32  H   UNL     1      -0.407  14.840  19.662  0.00  0.00    +0.000 HD
ATOM     33  H   UNL     1       1.177  15.449  19.309  0.00  0.00    +0.000 HD
ENDBRANCH   3  29
TORSDOF 6
ENDMDL
