MODEL 1
REMARK VINA RESULT:      -7.1      0.000      0.000
REMARK  Name = 
REMARK  4 active torsions:
REMARK  status: ('A' for Active; 'I' for Inactive)
REMARK    1  A    between atoms: C_1  and  C_2
REMARK    2  A    between atoms: C_2  and  C_3
REMARK    3  A    between atoms: C_2  and  N_4
REMARK    4  A    between atoms: C_7  and  C_8
REMARK                            x       y       z     vdW  Elec       q    Type
REMARK                         _______ _______ _______ _____ _____    ______ ____
ROOT
ATOM      1  N   UNL     1       6.528   3.376  12.805  0.00  0.00    +0.000 N 
ATOM      2  C   UNL     1       6.430   3.918  14.041  0.00  0.00    +0.000 A 
ATOM      3  N   UNL     1       5.737   3.436  15.051  0.00  0.00    +0.000 NA
ATOM      4  C   UNL     1       5.846   4.291  16.154  0.00  0.00    +0.000 A 
ATOM      5  C   UNL     1       6.641   5.405  15.937  0.00  0.00    +0.000 A 
ATOM      6  S   UNL     1       7.280   5.383  14.361  0.00  0.00    +0.000 S 
ATOM      7  H   UNL     1       7.009   3.954  12.122  0.00  0.00    +0.000 HD
ENDROOT
BRANCH   4   8
ATOM      8  C   UNL     1       5.176   4.047  17.437  0.00  0.00    +0.000 C 
ATOM      9  O   UNL     1       5.830   4.051  18.475  0.00  0.00    +0.000 OA
ATOM     10  N   UNL     1       3.826   3.784  17.308  0.00  0.00    +0.000 N 
ATOM     11  C   UNL     1       2.967   3.578  18.395  0.00  0.00    +0.000 A 
ATOM     12  C   UNL     1       1.683   3.099  18.152  0.00  0.00    +0.000 A 
ATOM     13  C   UNL     1       0.827   2.880  19.235  0.00  0.00    +0.000 A 
ATOM     14  C   UNL     1       1.263   3.166  20.522  0.00  0.00    +0.000 A 
ATOM     15  C   UNL     1       2.545   3.653  20.672  0.00  0.00    +0.000 A 
ATOM     16  N   UNL     1       3.390   3.857  19.641  0.00  0.00    +0.000 NA
ATOM     17  H   UNL     1       3.470   3.703  16.365  0.00  0.00    +0.000 HD
ENDBRANCH   4   8
BRANCH   1  19
ATOM     18  C   UNL     1       4.429   3.572  11.581  0.00  0.00    +0.000 C 
ATOM     19  C   UNL     1       5.412   2.618  12.259  0.00  0.00    +0.000 C 
ATOM     20  C   UNL     1       5.961   1.614  11.246  0.00  0.00    +0.000 C 
ENDBRANCH   1  19
TORSDOF 2
ENDMDL
MODEL 2
REMARK VINA RESULT:      -6.8      4.545      5.725
REMARK  Name = 
REMARK  4 active torsions:
REMARK  status: ('A' for Active; 'I' for Inactive)
REMARK    1  A    between atoms: C_1  and  C_2
REMARK    2  A    between atoms: C_2  and  C_3
REMARK    3  A    between atoms: C_2  and  N_4
REMARK    4  A    between atoms: C_7  and  C_8
REMARK                            x       y       z     vdW  Elec       q    Type
REMARK                         _______ _______ _______ _____ _____    ______ ____
ROOT
ATOM      1  N   UNL     1       5.170   3.773  17.088  0.00  0.00    +0.000 N 
ATOM      2  C   UNL     1       4.373   4.417  17.972  0.00  0.00    +0.000 A 
ATOM      3  N   UNL     1       3.870   5.625  17.831  0.00  0.00    +0.000 NA
ATOM      4  C   UNL     1       3.127   5.966  18.967  0.00  0.00    +0.000 A 
ATOM      5  C   UNL     1       3.086   4.981  19.940  0.00  0.00    +0.000 A 
ATOM      6  S   UNL     1       3.955   3.609  19.436  0.00  0.00    +0.000 S 
ATOM      7  H   UNL     1       5.560   2.898  17.424  0.00  0.00    +0.000 HD
ENDROOT
BRANCH   4   8
ATOM      8  C   UNL     1       2.448   7.258  19.133  0.00  0.00    +0.000 C 
ATOM      9  O   UNL     1       2.433   8.060  18.204  0.00  0.00    +0.000 OA
ATOM     10  N   UNL     1       1.920   7.441  20.396  0.00  0.00    +0.000 N 
ATOM     11  C   UNL     1       1.180   8.568  20.774  0.00  0.00    +0.000 A 
ATOM     12  C   UNL     1       0.891   8.759  22.121  0.00  0.00    +0.000 A 
ATOM     13  C   UNL     1       0.162   9.889  22.503  0.00  0.00    +0.000 A 
ATOM     14  C   UNL     1      -0.276  10.782  21.533  0.00  0.00    +0.000 A 
ATOM     15  C   UNL     1       0.040  10.508  20.218  0.00  0.00    +0.000 A 
ATOM     16  N   UNL     1       0.754   9.431  19.833  0.00  0.00    +0.000 NA
ATOM     17  H   UNL     1       2.127   6.725  21.080  0.00  0.00    +0.000 HD
ENDBRANCH   4   8
BRANCH   1  19
ATOM     18  C   UNL     1       7.460   4.586  16.889  0.00  0.00    +0.000 C 
ATOM     19  C   UNL     1       6.076   4.537  16.243  0.00  0.00    +0.000 C 
ATOM     20  C   UNL     1       6.151   3.856  14.878  0.00  0.00    +0.000 C 
ENDBRANCH   1  19
TORSDOF 2
ENDMDL
MODEL 3
REMARK VINA RESULT:      -6.8      2.507      6.859
REMARK  Name = 
REMARK  4 active torsions:
REMARK  status: ('A' for Active; 'I' for Inactive)
REMARK    1  A    between atoms: C_1  and  C_2
REMARK    2  A    between atoms: C_2  and  C_3
REMARK    3  A    between atoms: C_2  and  N_4
REMARK    4  A    between atoms: C_7  and  C_8
REMARK                            x       y       z     vdW  Elec       q    Type
REMARK                         _______ _______ _______ _____ _____    ______ ____
ROOT
ATOM      1  N   UNL     1       2.068   4.269  19.609  0.00  0.00    +0.000 N 
ATOM      2  C   UNL     1       2.763   5.141  18.842  0.00  0.00    +0.000 A 
ATOM      3  N   UNL     1       3.598   4.833  17.872  0.00  0.00    +0.000 NA
ATOM      4  C   UNL     1       4.153   6.000  17.335  0.00  0.00    +0.000 A 
ATOM      5  C   UNL     1       3.702   7.171  17.923  0.00  0.00    +0.000 A 
ATOM      6  S   UNL     1       2.561   6.828  19.136  0.00  0.00    +0.000 S 
ATOM      7  H   UNL     1       1.568   4.688  20.387  0.00  0.00    +0.000 HD
ENDROOT
BRANCH   4   8
ATOM      8  C   UNL     1       5.137   6.002  16.246  0.00  0.00    +0.000 C 
ATOM      9  O   UNL     1       5.946   6.920  16.158  0.00  0.00    +0.000 OA
ATOM     10  N   UNL     1       4.997   4.935  15.379  0.00  0.00    +0.000 N 
ATOM     11  C   UNL     1       5.855   4.692  14.299  0.00  0.00    +0.000 A 
ATOM     12  C   UNL     1       5.495   3.730  13.361  0.00  0.00    +0.000 A 
ATOM     13  C   UNL     1       6.343   3.494  12.275  0.00  0.00    +0.000 A 
ATOM     14  C   UNL     1       7.532   4.203  12.167  0.00  0.00    +0.000 A 
ATOM     15  C   UNL     1       7.819   5.128  13.150  0.00  0.00    +0.000 A 
ATOM     16  N   UNL     1       7.007   5.379  14.197  0.00  0.00    +0.000 NA
ATOM     17  H   UNL     1       4.199   4.332  15.531  0.00  0.00    +0.000 HD
ENDBRANCH   4   8
BRANCH   1  19
ATOM     18  C   UNL     1       2.569   2.704  21.410  0.00  0.00    +0.000 C 
ATOM     19  C   UNL     1       2.633   2.960  19.904  0.00  0.00    +0.000 C 
ATOM     20  C   UNL     1       1.823   1.904  19.153  0.00  0.00    +0.000 C 
ENDBRANCH   1  19
TORSDOF 2
ENDMDL
MODEL 4
REMARK VINA RESULT:      -6.7      4.310      5.440
REMARK  Name = 
REMARK  4 active torsions:
REMARK  status: ('A' for Active; 'I' for Inactive)
REMARK    1  A    between atoms: C_1  and  C_2
REMARK    2  A    between atoms: C_2  and  C_3
REMARK    3  A    between atoms: C_2  and  N_4
REMARK    4  A    between atoms: C_7  and  C_8
REMARK                            x       y       z     vdW  Elec       q    Type
REMARK                         _______ _______ _______ _____ _____    ______ ____
ROOT
ATOM      1  N   UNL     1       5.316   3.534  16.801  0.00  0.00    +0.000 N 
ATOM      2  C   UNL     1       4.436   3.818  17.789  0.00  0.00    +0.000 A 
ATOM      3  N   UNL     1       3.888   4.991  18.031  0.00  0.00    +0.000 NA
ATOM      4  C   UNL     1       3.060   4.906  19.156  0.00  0.00    +0.000 A 
ATOM      5  C   UNL     1       3.003   3.646  19.730  0.00  0.00    +0.000 A 
ATOM      6  S   UNL     1       3.964   2.549  18.855  0.00  0.00    +0.000 S 
ATOM      7  H   UNL     1       5.722   2.604  16.847  0.00  0.00    +0.000 HD
ENDROOT
BRANCH   4   8
ATOM      8  C   UNL     1       2.315   6.047  19.701  0.00  0.00    +0.000 C 
ATOM      9  O   UNL     1       1.697   5.923  20.754  0.00  0.00    +0.000 OA
ATOM     10  N   UNL     1       2.365   7.169  18.897  0.00  0.00    +0.000 N 
ATOM     11  C   UNL     1       1.779   8.395  19.234  0.00  0.00    +0.000 A 
ATOM     12  C   UNL     1       1.691   9.386  18.261  0.00  0.00    +0.000 A 
ATOM     13  C   UNL     1       1.096  10.607  18.592  0.00  0.00    +0.000 A 
ATOM     14  C   UNL     1       0.627  10.814  19.882  0.00  0.00    +0.000 A 
ATOM     15  C   UNL     1       0.768   9.784  20.789  0.00  0.00    +0.000 A 
ATOM     16  N   UNL     1       1.326   8.595  20.485  0.00  0.00    +0.000 NA
ATOM     17  H   UNL     1       2.823   7.061  18.001  0.00  0.00    +0.000 HD
ENDBRANCH   4   8
BRANCH   1  19
ATOM     18  C   UNL     1       7.493   4.552  17.207  0.00  0.00    +0.000 C 
ATOM     19  C   UNL     1       6.237   4.560  16.336  0.00  0.00    +0.000 C 
ATOM     20  C   UNL     1       6.597   4.263  14.882  0.00  0.00    +0.000 C 
ENDBRANCH   1  19
TORSDOF 2
ENDMDL
MODEL 5
REMARK VINA RESULT:      -6.4      4.474      5.982
REMARK  Name = 
REMARK  4 active torsions:
REMARK  status: ('A' for Active; 'I' for Inactive)
REMARK    1  A    between atoms: C_1  and  C_2
REMARK    2  A    between atoms: C_2  and  C_3
REMARK    3  A    between atoms: C_2  and  N_4
REMARK    4  A    between atoms: C_7  and  C_8
REMARK                            x       y       z     vdW  Elec       q    Type
REMARK                         _______ _______ _______ _____ _____    ______ ____
ROOT
ATOM      1  N   UNL     1       5.008   3.483  18.620  0.00  0.00    +0.000 N 
ATOM      2  C   UNL     1       4.682   4.716  18.168  0.00  0.00    +0.000 A 
ATOM      3  N   UNL     1       3.778   5.521  18.685  0.00  0.00    +0.000 NA
ATOM      4  C   UNL     1       3.695   6.693  17.924  0.00  0.00    +0.000 A 
ATOM      5  C   UNL     1       4.562   6.737  16.845  0.00  0.00    +0.000 A 
ATOM      6  S   UNL     1       5.508   5.324  16.784  0.00  0.00    +0.000 S 
ATOM      7  H   UNL     1       5.640   2.962  18.020  0.00  0.00    +0.000 HD
ENDROOT
BRANCH   4   8
ATOM      8  C   UNL     1       2.767   7.790  18.226  0.00  0.00    +0.000 C 
ATOM      9  O   UNL     1       2.544   8.648  17.377  0.00  0.00    +0.000 OA
ATOM     10  N   UNL     1       2.266   7.746  19.512  0.00  0.00    +0.000 N 
ATOM     11  C   UNL     1       1.321   8.652  20.010  0.00  0.00    +0.000 A 
ATOM     12  C   UNL     1       1.055   8.659  21.376  0.00  0.00    +0.000 A 
ATOM     13  C   UNL     1       0.121   9.570  21.878  0.00  0.00    +0.000 A 
ATOM     14  C   UNL     1      -0.535  10.429  21.006  0.00  0.00    +0.000 A 
ATOM     15  C   UNL     1      -0.224  10.344  19.665  0.00  0.00    +0.000 A 
ATOM     16  N   UNL     1       0.684   9.482  19.164  0.00  0.00    +0.000 NA
ATOM     17  H   UNL     1       2.648   7.034  20.121  0.00  0.00    +0.000 HD
ENDBRANCH   4   8
BRANCH   1  19
ATOM     18  C   UNL     1       3.395   1.692  18.250  0.00  0.00    +0.000 C 
ATOM     19  C   UNL     1       3.996   2.660  19.269  0.00  0.00    +0.000 C 
ATOM     20  C   UNL     1       4.660   1.889  20.408  0.00  0.00    +0.000 C 
ENDBRANCH   1  19
TORSDOF 2
ENDMDL
MODEL 6
REMARK VINA RESULT:      -6.3      5.770      7.896
REMARK  Name = 
REMARK  4 active torsions:
REMARK  status: ('A' for Active; 'I' for Inactive)
REMARK    1  A    between atoms: C_1  and  C_2
REMARK    2  A    between atoms: C_2  and  C_3
REMARK    3  A    between atoms: C_2  and  N_4
REMARK    4  A    between atoms: C_7  and  C_8
REMARK                            x       y       z     vdW  Elec       q    Type
REMARK                         _______ _______ _______ _____ _____    ______ ____
ROOT
ATOM      1  N   UNL     1       2.840   4.244  19.952  0.00  0.00    +0.000 N 
ATOM      2  C   UNL     1       2.726   5.518  19.510  0.00  0.00    +0.000 A 
ATOM      3  N   UNL     1       1.996   6.469  20.054  0.00  0.00    +0.000 NA
ATOM      4  C   UNL     1       2.102   7.641  19.296  0.00  0.00    +0.000 A 
ATOM      5  C   UNL     1       2.931   7.535  18.192  0.00  0.00    +0.000 A 
ATOM      6  S   UNL     1       3.607   5.977  18.102  0.00  0.00    +0.000 S 
ATOM      7  H   UNL     1       3.351   3.622  19.333  0.00  0.00    +0.000 HD
ENDROOT
BRANCH   4   8
ATOM      8  C   UNL     1       1.394   8.885  19.626  0.00  0.00    +0.000 C 
ATOM      9  O   UNL     1       1.453   9.840  18.857  0.00  0.00    +0.000 OA
ATOM     10  N   UNL     1       0.750   8.842  20.847  0.00  0.00    +0.000 N 
ATOM     11  C   UNL     1      -0.036   9.886  21.348  0.00  0.00    +0.000 A 
ATOM     12  C   UNL     1      -0.450   9.835  22.676  0.00  0.00    +0.000 A 
ATOM     13  C   UNL     1      -1.226  10.882  23.183  0.00  0.00    +0.000 A 
ATOM     14  C   UNL     1      -1.585  11.934  22.351  0.00  0.00    +0.000 A 
ATOM     15  C   UNL     1      -1.145  11.898  21.044  0.00  0.00    +0.000 A 
ATOM     16  N   UNL     1      -0.385  10.904  20.541  0.00  0.00    +0.000 NA
ATOM     17  H   UNL     1       0.903   8.015  21.408  0.00  0.00    +0.000 HD
ENDBRANCH   4   8
BRANCH   1  19
ATOM     18  C   UNL     1       0.884   2.827  19.616  0.00  0.00    +0.000 C 
ATOM     19  C   UNL     1       1.717   3.612  20.630  0.00  0.00    +0.000 C 
ATOM     20  C   UNL     1       2.267   2.675  21.703  0.00  0.00    +0.000 C 
ENDBRANCH   1  19
TORSDOF 2
ENDMDL
MODEL 7
REMARK VINA RESULT:      -6.3      5.508      7.440
REMARK  Name = 
REMARK  4 active torsions:
REMARK  status: ('A' for Active; 'I' for Inactive)
REMARK    1  A    between atoms: C_1  and  C_2
REMARK    2  A    between atoms: C_2  and  C_3
REMARK    3  A    between atoms: C_2  and  N_4
REMARK    4  A    between atoms: C_7  and  C_8
REMARK                            x       y       z     vdW  Elec       q    Type
REMARK                         _______ _______ _______ _____ _____    ______ ____
ROOT
ATOM      1  N   UNL     1       2.920   3.924  19.776  0.00  0.00    +0.000 N 
ATOM      2  C   UNL     1       3.049   5.114  19.145  0.00  0.00    +0.000 A 
ATOM      3  N   UNL     1       2.284   6.172  19.314  0.00  0.00    +0.000 NA
ATOM      4  C   UNL     1       2.702   7.201  18.462  0.00  0.00    +0.000 A 
ATOM      5  C   UNL     1       3.793   6.881  17.671  0.00  0.00    +0.000 A 
ATOM      6  S   UNL     1       4.325   5.300  18.002  0.00  0.00    +0.000 S 
ATOM      7  H   UNL     1       3.526   3.188  19.427  0.00  0.00    +0.000 HD
ENDROOT
BRANCH   4   8
ATOM      8  C   UNL     1       2.045   8.512  18.393  0.00  0.00    +0.000 C 
ATOM      9  O   UNL     1       2.171   9.203  17.387  0.00  0.00    +0.000 OA
ATOM     10  N   UNL     1       1.365   8.846  19.548  0.00  0.00    +0.000 N 
ATOM     11  C   UNL     1       0.615  10.019  19.698  0.00  0.00    +0.000 A 
ATOM     12  C   UNL     1       0.161  10.366  20.966  0.00  0.00    +0.000 A 
ATOM     13  C   UNL     1      -0.578  11.542  21.121  0.00  0.00    +0.000 A 
ATOM     14  C   UNL     1      -0.863  12.324  20.010  0.00  0.00    +0.000 A 
ATOM     15  C   UNL     1      -0.389  11.898  18.786  0.00  0.00    +0.000 A 
ATOM     16  N   UNL     1       0.338  10.774  18.620  0.00  0.00    +0.000 NA
ATOM     17  H   UNL     1       1.462   8.209  20.328  0.00  0.00    +0.000 HD
ENDBRANCH   4   8
BRANCH   1  19
ATOM     18  C   UNL     1       1.023   2.550  19.100  0.00  0.00    +0.000 C 
ATOM     19  C   UNL     1       1.601   3.461  20.183  0.00  0.00    +0.000 C 
ATOM     20  C   UNL     1       1.742   2.697  21.498  0.00  0.00    +0.000 C 
ENDBRANCH   1  19
TORSDOF 2
ENDMDL
MODEL 8
REMARK VINA RESULT:      -6.3      7.353      9.086
REMARK  Name = 
REMARK  4 active torsions:
REMARK  status: ('A' for Active; 'I' for Inactive)
REMARK    1  A    between atoms: C_1  and  C_2
REMARK    2  A    between atoms: C_2  and  C_3
REMARK    3  A    between atoms: C_2  and  N_4
REMARK    4  A    between atoms: C_7  and  C_8
REMARK                            x       y       z     vdW  Elec       q    Type
REMARK                         _______ _______ _______ _____ _____    ______ ____
ROOT
ATOM      1  N   UNL     1      -2.331  12.000  17.394  0.00  0.00    +0.000 N 
ATOM      2  C   UNL     1      -1.362  11.617  18.257  0.00  0.00    +0.000 A 
ATOM      3  N   UNL     1      -0.751  10.451  18.276  0.00  0.00    +0.000 NA
ATOM      4  C   UNL     1       0.164  10.411  19.335  0.00  0.00    +0.000 A 
ATOM      5  C   UNL     1       0.221  11.574  20.086  0.00  0.00    +0.000 A 
ATOM      6  S   UNL     1      -0.850  12.738  19.462  0.00  0.00    +0.000 S 
ATOM      7  H   UNL     1      -2.768  12.890  17.611  0.00  0.00    +0.000 HD
ENDROOT
BRANCH   4   8
ATOM      8  C   UNL     1       0.996   9.241  19.642  0.00  0.00    +0.000 C 
ATOM      9  O   UNL     1       1.010   8.788  20.783  0.00  0.00    +0.000 OA
ATOM     10  N   UNL     1       1.735   8.795  18.564  0.00  0.00    +0.000 N 
ATOM     11  C   UNL     1       2.556   7.661  18.599  0.00  0.00    +0.000 A 
ATOM     12  C   UNL     1       3.426   7.432  17.538  0.00  0.00    +0.000 A 
ATOM     13  C   UNL     1       4.256   6.307  17.575  0.00  0.00    +0.000 A 
ATOM     14  C   UNL     1       4.180   5.435  18.653  0.00  0.00    +0.000 A 
ATOM     15  C   UNL     1       3.278   5.729  19.655  0.00  0.00    +0.000 A 
ATOM     16  N   UNL     1       2.480   6.816  19.643  0.00  0.00    +0.000 NA
ATOM     17  H   UNL     1       1.693   9.359  17.725  0.00  0.00    +0.000 HD
ENDBRANCH   4   8
BRANCH   1  19
ATOM     18  C   UNL     1      -4.682  11.526  16.957  0.00  0.00    +0.000 C 
ATOM     19  C   UNL     1      -3.248  11.007  16.853  0.00  0.00    +0.000 C 
ATOM     20  C   UNL     1      -2.880  10.757  15.392  0.00  0.00    +0.000 C 
ENDBRANCH   1  19
TORSDOF 2
ENDMDL
MODEL 9
REMARK VINA RESULT:      -6.2      1.654      1.877
REMARK  Name = 
REMARK  4 active torsions:
REMARK  status: ('A' for Active; 'I' for Inactive)
REMARK    1  A    between atoms: C_1  and  C_2
REMARK    2  A    between atoms: C_2  and  C_3
REMARK    3  A    between atoms: C_2  and  N_4
REMARK    4  A    between atoms: C_7  and  C_8
REMARK                            x       y       z     vdW  Elec       q    Type
REMARK                         _______ _______ _______ _____ _____    ______ ____
ROOT
ATOM      1  N   UNL     1       6.584   3.132  12.644  0.00  0.00    +0.000 N 
ATOM      2  C   UNL     1       6.326   3.801  13.792  0.00  0.00    +0.000 A 
ATOM      3  N   UNL     1       5.453   3.456  14.715  0.00  0.00    +0.000 NA
ATOM      4  C   UNL     1       5.440   4.413  15.737  0.00  0.00    +0.000 A 
ATOM      5  C   UNL     1       6.328   5.460  15.552  0.00  0.00    +0.000 A 
ATOM      6  S   UNL     1       7.206   5.249  14.110  0.00  0.00    +0.000 S 
ATOM      7  H   UNL     1       7.202   3.615  11.999  0.00  0.00    +0.000 HD
ENDROOT
BRANCH   4   8
ATOM      8  C   UNL     1       4.561   4.332  16.910  0.00  0.00    +0.000 C 
ATOM      9  O   UNL     1       4.240   3.234  17.355  0.00  0.00    +0.000 OA
ATOM     10  N   UNL     1       4.143   5.566  17.368  0.00  0.00    +0.000 N 
ATOM     11  C   UNL     1       3.347   5.745  18.506  0.00  0.00    +0.000 A 
ATOM     12  C   UNL     1       2.797   7.000  18.748  0.00  0.00    +0.000 A 
ATOM     13  C   UNL     1       1.993   7.179  19.877  0.00  0.00    +0.000 A 
ATOM     14  C   UNL     1       1.777   6.114  20.741  0.00  0.00    +0.000 A 
ATOM     15  C   UNL     1       2.373   4.908  20.435  0.00  0.00    +0.000 A 
ATOM     16  N   UNL     1       3.141   4.713  19.343  0.00  0.00    +0.000 NA
ATOM     17  H   UNL     1       4.408   6.367  16.810  0.00  0.00    +0.000 HD
ENDBRANCH   4   8
BRANCH   1  19
ATOM     18  C   UNL     1       4.548   3.341  11.320  0.00  0.00    +0.000 C 
ATOM     19  C   UNL     1       5.523   2.376  11.995  0.00  0.00    +0.000 C 
ATOM     20  C   UNL     1       6.156   1.450  10.958  0.00  0.00    +0.000 C 
ENDBRANCH   1  19
TORSDOF 2
ENDMDL
