MODEL 1
REMARK VINA RESULT:      -7.6      0.000      0.000
REMARK  Name = 
REMARK  12 active torsions:
REMARK  status: ('A' for Active; 'I' for Inactive)
REMARK    1  A    between atoms: C_1  and  C_2
REMARK    2  A    between atoms: C_2  and  C_3
REMARK    3  A    between atoms: C_3  and  C_4
REMARK    4  A    between atoms: C_4  and  N_5
REMARK    5  A    between atoms: N_5  and  C_6
REMARK    6  A    between atoms: N_5  and  C_7
REMARK    7  A    between atoms: N_5  and  C_8
REMARK    8  A    between atoms: C_8  and  C_9
REMARK    9  A    between atoms: N_11  and  C_12
REMARK   10  A    between atoms: C_15  and  C_16
REMARK   11  A    between atoms: C_16  and  C_18
REMARK   12  A    between atoms: C_19  and  C_20
REMARK                            x       y       z     vdW  Elec       q    Type
REMARK                         _______ _______ _______ _____ _____    ______ ____
ROOT
ATOM      1  C   UNL     1       2.814   5.863  19.188  0.00  0.00    +0.000 A 
ATOM      2  C   UNL     1       2.812   6.448  17.921  0.00  0.00    +0.000 A 
ATOM      3  C   UNL     1       2.325   7.744  17.754  0.00  0.00    +0.000 A 
ATOM      4  C   UNL     1       1.814   8.460  18.847  0.00  0.00    +0.000 A 
ATOM      5  C   UNL     1       1.791   7.841  20.107  0.00  0.00    +0.000 A 
ATOM      6  C   UNL     1       2.263   6.537  20.269  0.00  0.00    +0.000 A 
ENDROOT
BRANCH   1   9
ATOM      7  C   UNL     1       4.631   4.185  19.317  0.00  0.00    +0.000 C 
ATOM      8  O   UNL     1       4.885   2.994  19.475  0.00  0.00    +0.000 OA
ATOM      9  N   UNL     1       3.326   4.586  19.404  0.00  0.00    +0.000 N 
ATOM     10  H   UNL     1       2.731   3.907  19.875  0.00  0.00    +0.000 HD
BRANCH   7  11
ATOM     11  C   UNL     1       5.750   5.246  19.154  0.00  0.00    +0.000 C 
BRANCH  11  12
ATOM     12  N   UNL     1       6.426   5.344  17.742  0.00  0.00    +0.000 N 
ATOM     13  C   UNL     1       7.760   4.609  17.795  0.00  0.00    +0.000 C 
ATOM     14  C   UNL     1       6.641   6.816  17.391  0.00  0.00    +0.000 C 
BRANCH  12  15
ATOM     15  C   UNL     1       5.465   4.681  16.719  0.00  0.00    +0.000 C 
BRANCH  15  16
ATOM     16  C   UNL     1       6.212   3.857  15.671  0.00  0.00    +0.000 C 
BRANCH  16  18
ATOM     17  C   UNL     1       5.930   3.703  13.200  0.00  0.00    +0.000 C 
ATOM     18  C   UNL     1       6.392   4.595  14.346  0.00  0.00    +0.000 C 
ENDBRANCH  16  18
ENDBRANCH  15  16
ENDBRANCH  12  15
ENDBRANCH  11  12
ENDBRANCH   7  11
ENDBRANCH   1   9
BRANCH   4  19
ATOM     19  C   UNL     1       1.308   9.840  18.585  0.00  0.00    +0.000 C 
ATOM     20  O   UNL     1       2.063  10.686  18.119  0.00  0.00    +0.000 OA
BRANCH  19  21
ATOM     21  C   UNL     1      -0.100  10.157  18.924  0.00  0.00    +0.000 C 
ATOM     22  C   UNL     1      -0.983  10.490  17.972  0.00  0.00    +0.000 C 
BRANCH  22  23
ATOM     23  C   UNL     1      -2.359  10.898  18.292  0.00  0.00    +0.000 A 
ATOM     24  C   UNL     1      -3.423  10.249  17.656  0.00  0.00    +0.000 A 
ATOM     25  C   UNL     1      -4.743  10.650  17.893  0.00  0.00    +0.000 A 
ATOM     26  C   UNL     1      -5.013  11.707  18.763  0.00  0.00    +0.000 A 
ATOM     27  C   UNL     1      -3.964  12.363  19.403  0.00  0.00    +0.000 A 
ATOM     28  C   UNL     1      -2.654  11.960  19.163  0.00  0.00    +0.000 A 
ATOM     29  F   UNL     1      -1.671  12.631  19.784  0.00  0.00    +0.000 F 
ENDBRANCH  22  23
ENDBRANCH  19  21
ENDBRANCH   4  19
TORSDOF 9
ENDMDL
MODEL 2
REMARK VINA RESULT:      -7.6      1.735      3.026
REMARK  Name = 
REMARK  12 active torsions:
REMARK  status: ('A' for Active; 'I' for Inactive)
REMARK    1  A    between atoms: C_1  and  C_2
REMARK    2  A    between atoms: C_2  and  C_3
REMARK    3  A    between atoms: C_3  and  C_4
REMARK    4  A    between atoms: C_4  and  N_5
REMARK    5  A    between atoms: N_5  and  C_6
REMARK    6  A    between atoms: N_5  and  C_7
REMARK    7  A    between atoms: N_5  and  C_8
REMARK    8  A    between atoms: C_8  and  C_9
REMARK    9  A    between atoms: N_11  and  C_12
REMARK   10  A    between atoms: C_15  and  C_16
REMARK   11  A    between atoms: C_16  and  C_18
REMARK   12  A    between atoms: C_19  and  C_20
REMARK                            x       y       z     vdW  Elec       q    Type
REMARK                         _______ _______ _______ _____ _____    ______ ____
ROOT
ATOM      1  C   UNL     1       2.738   5.949  19.296  0.00  0.00    +0.000 A 
ATOM      2  C   UNL     1       2.805   6.608  18.068  0.00  0.00    +0.000 A 
ATOM      3  C   UNL     1       2.333   7.916  17.952  0.00  0.00    +0.000 A 
ATOM      4  C   UNL     1       1.768   8.570  19.058  0.00  0.00    +0.000 A 
ATOM      5  C   UNL     1       1.676   7.877  20.275  0.00  0.00    +0.000 A 
ATOM      6  C   UNL     1       2.133   6.563  20.385  0.00  0.00    +0.000 A 
ENDROOT
BRANCH   1   9
ATOM      7  C   UNL     1       4.527   4.237  19.326  0.00  0.00    +0.000 C 
ATOM      8  O   UNL     1       4.763   3.038  19.443  0.00  0.00    +0.000 OA
ATOM      9  N   UNL     1       3.233   4.658  19.462  0.00  0.00    +0.000 N 
ATOM     10  H   UNL     1       2.640   3.977  19.933  0.00  0.00    +0.000 HD
BRANCH   7  11
ATOM     11  C   UNL     1       5.659   5.282  19.157  0.00  0.00    +0.000 C 
BRANCH  11  12
ATOM     12  N   UNL     1       6.364   5.337  17.756  0.00  0.00    +0.000 N 
ATOM     13  C   UNL     1       5.495   4.591  16.751  0.00  0.00    +0.000 C 
ATOM     14  C   UNL     1       7.741   4.682  17.863  0.00  0.00    +0.000 C 
BRANCH  12  15
ATOM     15  C   UNL     1       6.508   6.833  17.367  0.00  0.00    +0.000 C 
BRANCH  15  16
ATOM     16  C   UNL     1       7.854   7.416  17.793  0.00  0.00    +0.000 C 
BRANCH  16  18
ATOM     17  C   UNL     1       8.851   9.487  18.757  0.00  0.00    +0.000 C 
ATOM     18  C   UNL     1       7.905   8.939  17.694  0.00  0.00    +0.000 C 
ENDBRANCH  16  18
ENDBRANCH  15  16
ENDBRANCH  12  15
ENDBRANCH  11  12
ENDBRANCH   7  11
ENDBRANCH   1   9
BRANCH   4  19
ATOM     19  C   UNL     1       1.283   9.966  18.852  0.00  0.00    +0.000 C 
ATOM     20  O   UNL     1       1.915  10.729  18.129  0.00  0.00    +0.000 OA
BRANCH  19  21
ATOM     21  C   UNL     1       0.053  10.402  19.555  0.00  0.00    +0.000 C 
ATOM     22  C   UNL     1       0.070  11.444  20.399  0.00  0.00    +0.000 C 
BRANCH  22  23
ATOM     23  C   UNL     1      -1.114  11.836  21.178  0.00  0.00    +0.000 A 
ATOM     24  C   UNL     1      -1.160  11.528  22.542  0.00  0.00    +0.000 A 
ATOM     25  C   UNL     1      -2.294  11.835  23.301  0.00  0.00    +0.000 A 
ATOM     26  C   UNL     1      -3.397  12.448  22.705  0.00  0.00    +0.000 A 
ATOM     27  C   UNL     1      -3.366  12.761  21.349  0.00  0.00    +0.000 A 
ATOM     28  C   UNL     1      -2.235  12.453  20.598  0.00  0.00    +0.000 A 
ATOM     29  F   UNL     1      -2.254  12.753  19.290  0.00  0.00    +0.000 F 
ENDBRANCH  22  23
ENDBRANCH  19  21
ENDBRANCH   4  19
TORSDOF 9
ENDMDL
MODEL 3
REMARK VINA RESULT:      -7.6      1.895      3.087
REMARK  Name = 
REMARK  12 active torsions:
REMARK  status: ('A' for Active; 'I' for Inactive)
REMARK    1  A    between atoms: C_1  and  C_2
REMARK    2  A    between atoms: C_2  and  C_3
REMARK    3  A    between atoms: C_3  and  C_4
REMARK    4  A    between atoms: C_4  and  N_5
REMARK    5  A    between atoms: N_5  and  C_6
REMARK    6  A    between atoms: N_5  and  C_7
REMARK    7  A    between atoms: N_5  and  C_8
REMARK    8  A    between atoms: C_8  and  C_9
REMARK    9  A    between atoms: N_11  and  C_12
REMARK   10  A    between atoms: C_15  and  C_16
REMARK   11  A    between atoms: C_16  and  C_18
REMARK   12  A    between atoms: C_19  and  C_20
REMARK                            x       y       z     vdW  Elec       q    Type
REMARK                         _______ _______ _______ _____ _____    ______ ____
ROOT
ATOM      1  C   UNL     1       2.574   6.271  19.271  0.00  0.00    +0.000 A 
ATOM      2  C   UNL     1       2.582   6.916  18.034  0.00  0.00    +0.000 A 
ATOM      3  C   UNL     1       2.138   8.235  17.933  0.00  0.00    +0.000 A 
ATOM      4  C   UNL     1       1.660   8.914  19.065  0.00  0.00    +0.000 A 
ATOM      5  C   UNL     1       1.625   8.236  20.293  0.00  0.00    +0.000 A 
ATOM      6  C   UNL     1       2.053   6.911  20.388  0.00  0.00    +0.000 A 
ENDROOT
BRANCH   1   9
ATOM      7  C   UNL     1       4.327   4.522  19.266  0.00  0.00    +0.000 C 
ATOM      8  O   UNL     1       4.540   3.317  19.371  0.00  0.00    +0.000 OA
ATOM      9  N   UNL     1       3.043   4.968  19.421  0.00  0.00    +0.000 N 
ATOM     10  H   UNL     1       2.442   4.296  19.893  0.00  0.00    +0.000 HD
BRANCH   7  11
ATOM     11  C   UNL     1       5.479   5.545  19.094  0.00  0.00    +0.000 C 
BRANCH  11  12
ATOM     12  N   UNL     1       6.211   5.554  17.706  0.00  0.00    +0.000 N 
ATOM     13  C   UNL     1       5.310   4.873  16.683  0.00  0.00    +0.000 C 
ATOM     14  C   UNL     1       7.536   4.805  17.835  0.00  0.00    +0.000 C 
BRANCH  12  15
ATOM     15  C   UNL     1       6.464   7.037  17.324  0.00  0.00    +0.000 C 
BRANCH  15  16
ATOM     16  C   UNL     1       7.831   7.532  17.797  0.00  0.00    +0.000 C 
BRANCH  16  18
ATOM     17  C   UNL     1       8.928   9.513  18.836  0.00  0.00    +0.000 C 
ATOM     18  C   UNL     1       7.968   9.052  17.746  0.00  0.00    +0.000 C 
ENDBRANCH  16  18
ENDBRANCH  15  16
ENDBRANCH  12  15
ENDBRANCH  11  12
ENDBRANCH   7  11
ENDBRANCH   1   9
BRANCH   4  19
ATOM     19  C   UNL     1       1.200  10.321  18.873  0.00  0.00    +0.000 C 
ATOM     20  O   UNL     1       1.892  11.106  18.233  0.00  0.00    +0.000 OA
BRANCH  19  21
ATOM     21  C   UNL     1      -0.082  10.740  19.491  0.00  0.00    +0.000 C 
ATOM     22  C   UNL     1      -0.102  11.532  20.572  0.00  0.00    +0.000 C 
BRANCH  22  23
ATOM     23  C   UNL     1      -1.355  11.884  21.257  0.00  0.00    +0.000 A 
ATOM     24  C   UNL     1      -2.349  12.563  20.544  0.00  0.00    +0.000 A 
ATOM     25  C   UNL     1      -3.529  12.965  21.179  0.00  0.00    +0.000 A 
ATOM     26  C   UNL     1      -3.727  12.698  22.534  0.00  0.00    +0.000 A 
ATOM     27  C   UNL     1      -2.747  12.024  23.257  0.00  0.00    +0.000 A 
ATOM     28  C   UNL     1      -1.574  11.627  22.621  0.00  0.00    +0.000 A 
ATOM     29  F   UNL     1      -0.646  10.996  23.358  0.00  0.00    +0.000 F 
ENDBRANCH  22  23
ENDBRANCH  19  21
ENDBRANCH   4  19
TORSDOF 9
ENDMDL
MODEL 4
REMARK VINA RESULT:      -7.4      1.365      1.679
REMARK  Name = 
REMARK  12 active torsions:
REMARK  status: ('A' for Active; 'I' for Inactive)
REMARK    1  A    between atoms: C_1  and  C_2
REMARK    2  A    between atoms: C_2  and  C_3
REMARK    3  A    between atoms: C_3  and  C_4
REMARK    4  A    between atoms: C_4  and  N_5
REMARK    5  A    between atoms: N_5  and  C_6
REMARK    6  A    between atoms: N_5  and  C_7
REMARK    7  A    between atoms: N_5  and  C_8
REMARK    8  A    between atoms: C_8  and  C_9
REMARK    9  A    between atoms: N_11  and  C_12
REMARK   10  A    between atoms: C_15  and  C_16
REMARK   11  A    between atoms: C_16  and  C_18
REMARK   12  A    between atoms: C_19  and  C_20
REMARK                            x       y       z     vdW  Elec       q    Type
REMARK                         _______ _______ _______ _____ _____    ______ ____
ROOT
ATOM      1  C   UNL     1       2.344   6.343  19.556  0.00  0.00    +0.000 A 
ATOM      2  C   UNL     1       2.449   7.174  18.440  0.00  0.00    +0.000 A 
ATOM      3  C   UNL     1       2.016   8.498  18.515  0.00  0.00    +0.000 A 
ATOM      4  C   UNL     1       1.452   8.998  19.699  0.00  0.00    +0.000 A 
ATOM      5  C   UNL     1       1.321   8.136  20.798  0.00  0.00    +0.000 A 
ATOM      6  C   UNL     1       1.739   6.807  20.717  0.00  0.00    +0.000 A 
ENDROOT
BRANCH   1   9
ATOM      7  C   UNL     1       4.054   4.583  19.219  0.00  0.00    +0.000 C 
ATOM      8  O   UNL     1       4.251   3.372  19.186  0.00  0.00    +0.000 OA
ATOM      9  N   UNL     1       2.799   5.027  19.535  0.00  0.00    +0.000 N 
ATOM     10  H   UNL     1       2.229   4.318  19.993  0.00  0.00    +0.000 HD
BRANCH   7  11
ATOM     11  C   UNL     1       5.205   5.606  19.040  0.00  0.00    +0.000 C 
BRANCH  11  12
ATOM     12  N   UNL     1       5.931   5.613  17.649  0.00  0.00    +0.000 N 
ATOM     13  C   UNL     1       7.150   4.703  17.737  0.00  0.00    +0.000 C 
ATOM     14  C   UNL     1       6.354   7.043  17.313  0.00  0.00    +0.000 C 
BRANCH  12  15
ATOM     15  C   UNL     1       4.919   5.089  16.595  0.00  0.00    +0.000 C 
BRANCH  15  16
ATOM     16  C   UNL     1       5.565   4.126  15.600  0.00  0.00    +0.000 C 
BRANCH  16  18
ATOM     17  C   UNL     1       6.204   3.651  13.239  0.00  0.00    +0.000 C 
ATOM     18  C   UNL     1       5.740   4.731  14.208  0.00  0.00    +0.000 C 
ENDBRANCH  16  18
ENDBRANCH  15  16
ENDBRANCH  12  15
ENDBRANCH  11  12
ENDBRANCH   7  11
ENDBRANCH   1   9
BRANCH   4  19
ATOM     19  C   UNL     1       1.010  10.423  19.696  0.00  0.00    +0.000 C 
ATOM     20  O   UNL     1       1.539  11.226  20.458  0.00  0.00    +0.000 OA
BRANCH  19  21
ATOM     21  C   UNL     1      -0.086  10.826  18.782  0.00  0.00    +0.000 C 
ATOM     22  C   UNL     1      -1.334  10.368  18.954  0.00  0.00    +0.000 C 
BRANCH  22  23
ATOM     23  C   UNL     1      -2.416  10.678  18.007  0.00  0.00    +0.000 A 
ATOM     24  C   UNL     1      -3.440  11.542  18.409  0.00  0.00    +0.000 A 
ATOM     25  C   UNL     1      -4.515  11.814  17.556  0.00  0.00    +0.000 A 
ATOM     26  C   UNL     1      -4.581  11.222  16.294  0.00  0.00    +0.000 A 
ATOM     27  C   UNL     1      -3.570  10.360  15.880  0.00  0.00    +0.000 A 
ATOM     28  C   UNL     1      -2.503  10.092  16.733  0.00  0.00    +0.000 A 
ATOM     29  F   UNL     1      -1.558   9.240  16.304  0.00  0.00    +0.000 F 
ENDBRANCH  22  23
ENDBRANCH  19  21
ENDBRANCH   4  19
TORSDOF 9
ENDMDL
MODEL 5
REMARK VINA RESULT:      -7.3      1.733      2.418
REMARK  Name = 
REMARK  12 active torsions:
REMARK  status: ('A' for Active; 'I' for Inactive)
REMARK    1  A    between atoms: C_1  and  C_2
REMARK    2  A    between atoms: C_2  and  C_3
REMARK    3  A    between atoms: C_3  and  C_4
REMARK    4  A    between atoms: C_4  and  N_5
REMARK    5  A    between atoms: N_5  and  C_6
REMARK    6  A    between atoms: N_5  and  C_7
REMARK    7  A    between atoms: N_5  and  C_8
REMARK    8  A    between atoms: C_8  and  C_9
REMARK    9  A    between atoms: N_11  and  C_12
REMARK   10  A    between atoms: C_15  and  C_16
REMARK   11  A    between atoms: C_16  and  C_18
REMARK   12  A    between atoms: C_19  and  C_20
REMARK                            x       y       z     vdW  Elec       q    Type
REMARK                         _______ _______ _______ _____ _____    ______ ____
ROOT
ATOM      1  C   UNL     1       2.122   6.535  20.301  0.00  0.00    +0.000 A 
ATOM      2  C   UNL     1       2.572   6.724  18.994  0.00  0.00    +0.000 A 
ATOM      3  C   UNL     1       2.342   7.938  18.347  0.00  0.00    +0.000 A 
ATOM      4  C   UNL     1       1.640   8.968  18.993  0.00  0.00    +0.000 A 
ATOM      5  C   UNL     1       1.164   8.745  20.295  0.00  0.00    +0.000 A 
ATOM      6  C   UNL     1       1.380   7.523  20.933  0.00  0.00    +0.000 A 
ENDROOT
BRANCH   1   9
ATOM      7  C   UNL     1       2.431   4.085  20.484  0.00  0.00    +0.000 C 
ATOM      8  O   UNL     1       2.585   3.150  21.265  0.00  0.00    +0.000 OA
ATOM      9  N   UNL     1       2.364   5.351  20.995  0.00  0.00    +0.000 N 
ATOM     10  H   UNL     1       2.736   5.420  21.940  0.00  0.00    +0.000 HD
BRANCH   7  11
ATOM     11  C   UNL     1       2.441   3.877  18.947  0.00  0.00    +0.000 C 
BRANCH  11  12
ATOM     12  N   UNL     1       3.756   3.288  18.324  0.00  0.00    +0.000 N 
ATOM     13  C   UNL     1       3.586   1.781  18.179  0.00  0.00    +0.000 C 
ATOM     14  C   UNL     1       4.932   3.608  19.246  0.00  0.00    +0.000 C 
BRANCH  12  15
ATOM     15  C   UNL     1       3.956   3.962  16.941  0.00  0.00    +0.000 C 
BRANCH  15  16
ATOM     16  C   UNL     1       5.148   4.919  16.929  0.00  0.00    +0.000 C 
BRANCH  16  18
ATOM     17  C   UNL     1       5.423   4.286  14.535  0.00  0.00    +0.000 C 
ATOM     18  C   UNL     1       6.160   4.601  15.830  0.00  0.00    +0.000 C 
ENDBRANCH  16  18
ENDBRANCH  15  16
ENDBRANCH  12  15
ENDBRANCH  11  12
ENDBRANCH   7  11
ENDBRANCH   1   9
BRANCH   4  19
ATOM     19  C   UNL     1       1.432  10.235  18.232  0.00  0.00    +0.000 C 
ATOM     20  O   UNL     1       2.387  10.787  17.697  0.00  0.00    +0.000 OA
BRANCH  19  21
ATOM     21  C   UNL     1       0.067  10.810  18.169  0.00  0.00    +0.000 C 
ATOM     22  C   UNL     1      -0.949  10.121  17.629  0.00  0.00    +0.000 C 
BRANCH  22  23
ATOM     23  C   UNL     1      -2.290  10.705  17.470  0.00  0.00    +0.000 A 
ATOM     24  C   UNL     1      -2.931  11.242  18.592  0.00  0.00    +0.000 A 
ATOM     25  C   UNL     1      -4.230  11.753  18.489  0.00  0.00    +0.000 A 
ATOM     26  C   UNL     1      -4.904  11.728  17.267  0.00  0.00    +0.000 A 
ATOM     27  C   UNL     1      -4.278  11.196  16.143  0.00  0.00    +0.000 A 
ATOM     28  C   UNL     1      -2.986  10.688  16.250  0.00  0.00    +0.000 A 
ATOM     29  F   UNL     1      -2.426  10.167  15.147  0.00  0.00    +0.000 F 
ENDBRANCH  22  23
ENDBRANCH  19  21
ENDBRANCH   4  19
TORSDOF 9
ENDMDL
MODEL 6
REMARK VINA RESULT:      -7.3      2.036      2.880
REMARK  Name = 
REMARK  12 active torsions:
REMARK  status: ('A' for Active; 'I' for Inactive)
REMARK    1  A    between atoms: C_1  and  C_2
REMARK    2  A    between atoms: C_2  and  C_3
REMARK    3  A    between atoms: C_3  and  C_4
REMARK    4  A    between atoms: C_4  and  N_5
REMARK    5  A    between atoms: N_5  and  C_6
REMARK    6  A    between atoms: N_5  and  C_7
REMARK    7  A    between atoms: N_5  and  C_8
REMARK    8  A    between atoms: C_8  and  C_9
REMARK    9  A    between atoms: N_11  and  C_12
REMARK   10  A    between atoms: C_15  and  C_16
REMARK   11  A    between atoms: C_16  and  C_18
REMARK   12  A    between atoms: C_19  and  C_20
REMARK                            x       y       z     vdW  Elec       q    Type
REMARK                         _______ _______ _______ _____ _____    ______ ____
ROOT
ATOM      1  C   UNL     1       2.049   6.551  20.499  0.00  0.00    +0.000 A 
ATOM      2  C   UNL     1       2.526   6.736  19.200  0.00  0.00    +0.000 A 
ATOM      3  C   UNL     1       2.303   7.945  18.542  0.00  0.00    +0.000 A 
ATOM      4  C   UNL     1       1.582   8.974  19.167  0.00  0.00    +0.000 A 
ATOM      5  C   UNL     1       1.079   8.756  20.459  0.00  0.00    +0.000 A 
ATOM      6  C   UNL     1       1.288   7.539  21.109  0.00  0.00    +0.000 A 
ENDROOT
BRANCH   1   9
ATOM      7  C   UNL     1       2.267   4.094  20.720  0.00  0.00    +0.000 C 
ATOM      8  O   UNL     1       2.429   3.171  21.513  0.00  0.00    +0.000 OA
ATOM      9  N   UNL     1       2.283   5.373  21.204  0.00  0.00    +0.000 N 
ATOM     10  H   UNL     1       2.714   5.446  22.124  0.00  0.00    +0.000 HD
BRANCH   7  11
ATOM     11  C   UNL     1       2.177   3.855  19.191  0.00  0.00    +0.000 C 
BRANCH  11  12
ATOM     12  N   UNL     1       3.472   3.321  18.484  0.00  0.00    +0.000 N 
ATOM     13  C   UNL     1       3.398   3.682  17.005  0.00  0.00    +0.000 C 
ATOM     14  C   UNL     1       3.549   1.805  18.661  0.00  0.00    +0.000 C 
BRANCH  12  15
ATOM     15  C   UNL     1       4.688   4.005  19.164  0.00  0.00    +0.000 C 
BRANCH  15  16
ATOM     16  C   UNL     1       5.821   4.289  18.178  0.00  0.00    +0.000 C 
BRANCH  16  18
ATOM     17  C   UNL     1       5.729   6.593  17.234  0.00  0.00    +0.000 C 
ATOM     18  C   UNL     1       6.374   5.708  18.294  0.00  0.00    +0.000 C 
ENDBRANCH  16  18
ENDBRANCH  15  16
ENDBRANCH  12  15
ENDBRANCH  11  12
ENDBRANCH   7  11
ENDBRANCH   1   9
BRANCH   4  19
ATOM     19  C   UNL     1       1.383  10.236  18.394  0.00  0.00    +0.000 C 
ATOM     20  O   UNL     1       2.347  10.795  17.884  0.00  0.00    +0.000 OA
BRANCH  19  21
ATOM     21  C   UNL     1       0.014  10.795  18.288  0.00  0.00    +0.000 C 
ATOM     22  C   UNL     1      -0.966  10.116  17.676  0.00  0.00    +0.000 C 
BRANCH  22  23
ATOM     23  C   UNL     1      -2.306  10.688  17.477  0.00  0.00    +0.000 A 
ATOM     24  C   UNL     1      -2.967  11.262  18.568  0.00  0.00    +0.000 A 
ATOM     25  C   UNL     1      -4.265  11.764  18.428  0.00  0.00    +0.000 A 
ATOM     26  C   UNL     1      -4.920  11.694  17.197  0.00  0.00    +0.000 A 
ATOM     27  C   UNL     1      -4.275  11.126  16.102  0.00  0.00    +0.000 A 
ATOM     28  C   UNL     1      -2.984  10.627  16.247  0.00  0.00    +0.000 A 
ATOM     29  F   UNL     1      -2.405  10.069  15.172  0.00  0.00    +0.000 F 
ENDBRANCH  22  23
ENDBRANCH  19  21
ENDBRANCH   4  19
TORSDOF 9
ENDMDL
MODEL 7
REMARK VINA RESULT:      -7.3      4.723      9.318
REMARK  Name = 
REMARK  12 active torsions:
REMARK  status: ('A' for Active; 'I' for Inactive)
REMARK    1  A    between atoms: C_1  and  C_2
REMARK    2  A    between atoms: C_2  and  C_3
REMARK    3  A    between atoms: C_3  and  C_4
REMARK    4  A    between atoms: C_4  and  N_5
REMARK    5  A    between atoms: N_5  and  C_6
REMARK    6  A    between atoms: N_5  and  C_7
REMARK    7  A    between atoms: N_5  and  C_8
REMARK    8  A    between atoms: C_8  and  C_9
REMARK    9  A    between atoms: N_11  and  C_12
REMARK   10  A    between atoms: C_15  and  C_16
REMARK   11  A    between atoms: C_16  and  C_18
REMARK   12  A    between atoms: C_19  and  C_20
REMARK                            x       y       z     vdW  Elec       q    Type
REMARK                         _______ _______ _______ _____ _____    ______ ____
ROOT
ATOM      1  C   UNL     1      -0.058  12.496  18.800  0.00  0.00    +0.000 A 
ATOM      2  C   UNL     1       1.336  12.454  18.806  0.00  0.00    +0.000 A 
ATOM      3  C   UNL     1       1.997  11.252  18.550  0.00  0.00    +0.000 A 
ATOM      4  C   UNL     1       1.270  10.077  18.306  0.00  0.00    +0.000 A 
ATOM      5  C   UNL     1      -0.132  10.133  18.340  0.00  0.00    +0.000 A 
ATOM      6  C   UNL     1      -0.791  11.332  18.614  0.00  0.00    +0.000 A 
ENDROOT
BRANCH   1   9
ATOM      7  C   UNL     1      -1.189  14.191  20.207  0.00  0.00    +0.000 C 
ATOM      8  O   UNL     1      -1.854  15.223  20.192  0.00  0.00    +0.000 OA
ATOM      9  N   UNL     1      -0.756  13.683  19.014  0.00  0.00    +0.000 N 
ATOM     10  H   UNL     1      -0.781  14.364  18.258  0.00  0.00    +0.000 HD
BRANCH   7  11
ATOM     11  C   UNL     1      -0.729  13.533  21.533  0.00  0.00    +0.000 C 
BRANCH  11  12
ATOM     12  N   UNL     1      -1.857  12.985  22.477  0.00  0.00    +0.000 N 
ATOM     13  C   UNL     1      -3.085  12.675  21.628  0.00  0.00    +0.000 C 
ATOM     14  C   UNL     1      -2.186  14.043  23.529  0.00  0.00    +0.000 C 
BRANCH  12  15
ATOM     15  C   UNL     1      -1.311  11.700  23.155  0.00  0.00    +0.000 C 
BRANCH  15  16
ATOM     16  C   UNL     1      -0.655  10.749  22.155  0.00  0.00    +0.000 C 
BRANCH  16  18
ATOM     17  C   UNL     1      -0.195   8.351  21.659  0.00  0.00    +0.000 C 
ATOM     18  C   UNL     1      -0.292   9.397  22.763  0.00  0.00    +0.000 C 
ENDBRANCH  16  18
ENDBRANCH  15  16
ENDBRANCH  12  15
ENDBRANCH  11  12
ENDBRANCH   7  11
ENDBRANCH   1   9
BRANCH   4  19
ATOM     19  C   UNL     1       2.051   8.832  18.044  0.00  0.00    +0.000 C 
ATOM     20  O   UNL     1       2.896   8.820  17.155  0.00  0.00    +0.000 OA
BRANCH  19  21
ATOM     21  C   UNL     1       1.760   7.626  18.857  0.00  0.00    +0.000 C 
ATOM     22  C   UNL     1       2.351   6.453  18.590  0.00  0.00    +0.000 C 
BRANCH  22  23
ATOM     23  C   UNL     1       2.010   5.224  19.322  0.00  0.00    +0.000 A 
ATOM     24  C   UNL     1       2.339   5.130  20.679  0.00  0.00    +0.000 A 
ATOM     25  C   UNL     1       2.082   3.954  21.392  0.00  0.00    +0.000 A 
ATOM     26  C   UNL     1       1.499   2.857  20.757  0.00  0.00    +0.000 A 
ATOM     27  C   UNL     1       1.167   2.935  19.407  0.00  0.00    +0.000 A 
ATOM     28  C   UNL     1       1.425   4.107  18.702  0.00  0.00    +0.000 A 
ATOM     29  F   UNL     1       1.107   4.135  17.398  0.00  0.00    +0.000 F 
ENDBRANCH  22  23
ENDBRANCH  19  21
ENDBRANCH   4  19
TORSDOF 9
ENDMDL
MODEL 8
REMARK VINA RESULT:      -7.2      1.309      1.805
REMARK  Name = 
REMARK  12 active torsions:
REMARK  status: ('A' for Active; 'I' for Inactive)
REMARK    1  A    between atoms: C_1  and  C_2
REMARK    2  A    between atoms: C_2  and  C_3
REMARK    3  A    between atoms: C_3  and  C_4
REMARK    4  A    between atoms: C_4  and  N_5
REMARK    5  A    between atoms: N_5  and  C_6
REMARK    6  A    between atoms: N_5  and  C_7
REMARK    7  A    between atoms: N_5  and  C_8
REMARK    8  A    between atoms: C_8  and  C_9
REMARK    9  A    between atoms: N_11  and  C_12
REMARK   10  A    between atoms: C_15  and  C_16
REMARK   11  A    between atoms: C_16  and  C_18
REMARK   12  A    between atoms: C_19  and  C_20
REMARK                            x       y       z     vdW  Elec       q    Type
REMARK                         _______ _______ _______ _____ _____    ______ ____
ROOT
ATOM      1  C   UNL     1       2.504   6.548  19.491  0.00  0.00    +0.000 A 
ATOM      2  C   UNL     1       1.945   6.998  20.688  0.00  0.00    +0.000 A 
ATOM      3  C   UNL     1       1.391   8.276  20.760  0.00  0.00    +0.000 A 
ATOM      4  C   UNL     1       1.411   9.126  19.644  0.00  0.00    +0.000 A 
ATOM      5  C   UNL     1       2.012   8.669  18.460  0.00  0.00    +0.000 A 
ATOM      6  C   UNL     1       2.581   7.396  18.395  0.00  0.00    +0.000 A 
ENDROOT
BRANCH   1   9
ATOM      7  C   UNL     1       4.032   4.854  18.528  0.00  0.00    +0.000 C 
ATOM      8  O   UNL     1       4.319   3.660  18.508  0.00  0.00    +0.000 OA
ATOM      9  N   UNL     1       3.034   5.266  19.367  0.00  0.00    +0.000 N 
ATOM     10  H   UNL     1       2.826   4.591  20.100  0.00  0.00    +0.000 HD
BRANCH   7  11
ATOM     11  C   UNL     1       4.848   5.906  17.733  0.00  0.00    +0.000 C 
BRANCH  11  12
ATOM     12  N   UNL     1       6.411   5.815  17.844  0.00  0.00    +0.000 N 
ATOM     13  C   UNL     1       6.776   5.557  19.301  0.00  0.00    +0.000 C 
ATOM     14  C   UNL     1       7.024   7.130  17.364  0.00  0.00    +0.000 C 
BRANCH  12  15
ATOM     15  C   UNL     1       6.873   4.643  16.938  0.00  0.00    +0.000 C 
BRANCH  15  16
ATOM     16  C   UNL     1       6.989   5.054  15.470  0.00  0.00    +0.000 C 
BRANCH  16  18
ATOM     17  C   UNL     1       6.150   3.763  13.512  0.00  0.00    +0.000 C 
ATOM     18  C   UNL     1       5.752   4.697  14.649  0.00  0.00    +0.000 C 
ENDBRANCH  16  18
ENDBRANCH  15  16
ENDBRANCH  12  15
ENDBRANCH  11  12
ENDBRANCH   7  11
ENDBRANCH   1   9
BRANCH   4  19
ATOM     19  C   UNL     1       0.802  10.479  19.803  0.00  0.00    +0.000 C 
ATOM     20  O   UNL     1       1.196  11.222  20.695  0.00  0.00    +0.000 OA
BRANCH  19  21
ATOM     21  C   UNL     1      -0.292  10.878  18.885  0.00  0.00    +0.000 C 
ATOM     22  C   UNL     1      -1.343  10.074  18.671  0.00  0.00    +0.000 C 
BRANCH  22  23
ATOM     23  C   UNL     1      -2.393  10.406  17.695  0.00  0.00    +0.000 A 
ATOM     24  C   UNL     1      -2.323   9.854  16.411  0.00  0.00    +0.000 A 
ATOM     25  C   UNL     1      -3.272  10.194  15.441  0.00  0.00    +0.000 A 
ATOM     26  C   UNL     1      -4.298  11.092  15.740  0.00  0.00    +0.000 A 
ATOM     27  C   UNL     1      -4.380  11.649  17.013  0.00  0.00    +0.000 A 
ATOM     28  C   UNL     1      -3.432  11.309  17.975  0.00  0.00    +0.000 A 
ATOM     29  F   UNL     1      -3.536  11.883  19.184  0.00  0.00    +0.000 F 
ENDBRANCH  22  23
ENDBRANCH  19  21
ENDBRANCH   4  19
TORSDOF 9
ENDMDL
MODEL 9
REMARK VINA RESULT:      -7.1      1.769      2.565
REMARK  Name = 
REMARK  12 active torsions:
REMARK  status: ('A' for Active; 'I' for Inactive)
REMARK    1  A    between atoms: C_1  and  C_2
REMARK    2  A    between atoms: C_2  and  C_3
REMARK    3  A    between atoms: C_3  and  C_4
REMARK    4  A    between atoms: C_4  and  N_5
REMARK    5  A    between atoms: N_5  and  C_6
REMARK    6  A    between atoms: N_5  and  C_7
REMARK    7  A    between atoms: N_5  and  C_8
REMARK    8  A    between atoms: C_8  and  C_9
REMARK    9  A    between atoms: N_11  and  C_12
REMARK   10  A    between atoms: C_15  and  C_16
REMARK   11  A    between atoms: C_16  and  C_18
REMARK   12  A    between atoms: C_19  and  C_20
REMARK                            x       y       z     vdW  Elec       q    Type
REMARK                         _______ _______ _______ _____ _____    ______ ____
ROOT
ATOM      1  C   UNL     1       2.109   6.357  20.563  0.00  0.00    +0.000 A 
ATOM      2  C   UNL     1       1.235   7.296  21.112  0.00  0.00    +0.000 A 
ATOM      3  C   UNL     1       0.905   8.445  20.393  0.00  0.00    +0.000 A 
ATOM      4  C   UNL     1       1.464   8.678  19.127  0.00  0.00    +0.000 A 
ATOM      5  C   UNL     1       2.369   7.740  18.608  0.00  0.00    +0.000 A 
ATOM      6  C   UNL     1       2.711   6.600  19.335  0.00  0.00    +0.000 A 
ENDROOT
BRANCH   1   9
ATOM      7  C   UNL     1       2.456   3.910  20.722  0.00  0.00    +0.000 C 
ATOM      8  O   UNL     1       2.701   2.982  21.487  0.00  0.00    +0.000 OA
ATOM      9  N   UNL     1       2.434   5.180  21.232  0.00  0.00    +0.000 N 
ATOM     10  H   UNL     1       2.905   5.257  22.131  0.00  0.00    +0.000 HD
BRANCH   7  11
ATOM     11  C   UNL     1       2.303   3.695  19.195  0.00  0.00    +0.000 C 
BRANCH  11  12
ATOM     12  N   UNL     1       3.562   3.154  18.430  0.00  0.00    +0.000 N 
ATOM     13  C   UNL     1       3.431   1.642  18.295  0.00  0.00    +0.000 C 
ATOM     14  C   UNL     1       4.820   3.514  19.220  0.00  0.00    +0.000 C 
BRANCH  12  15
ATOM     15  C   UNL     1       3.587   3.838  17.036  0.00  0.00    +0.000 C 
BRANCH  15  16
ATOM     16  C   UNL     1       4.985   3.843  16.418  0.00  0.00    +0.000 C 
BRANCH  16  18
ATOM     17  C   UNL     1       6.581   4.956  14.862  0.00  0.00    +0.000 C 
ATOM     18  C   UNL     1       5.309   5.140  15.681  0.00  0.00    +0.000 C 
ENDBRANCH  16  18
ENDBRANCH  15  16
ENDBRANCH  12  15
ENDBRANCH  11  12
ENDBRANCH   7  11
ENDBRANCH   1   9
BRANCH   4  19
ATOM     19  C   UNL     1       1.064   9.933  18.424  0.00  0.00    +0.000 C 
ATOM     20  O   UNL     1       1.908  10.786  18.175  0.00  0.00    +0.000 OA
BRANCH  19  21
ATOM     21  C   UNL     1      -0.363  10.122  18.066  0.00  0.00    +0.000 C 
ATOM     22  C   UNL     1      -0.970  11.303  18.247  0.00  0.00    +0.000 C 
BRANCH  22  23
ATOM     23  C   UNL     1      -2.406  11.490  17.987  0.00  0.00    +0.000 A 
ATOM     24  C   UNL     1      -3.237  11.894  19.037  0.00  0.00    +0.000 A 
ATOM     25  C   UNL     1      -4.616  12.026  18.840  0.00  0.00    +0.000 A 
ATOM     26  C   UNL     1      -5.180  11.750  17.594  0.00  0.00    +0.000 A 
ATOM     27  C   UNL     1      -4.366  11.346  16.540  0.00  0.00    +0.000 A 
ATOM     28  C   UNL     1      -2.995  11.216  16.741  0.00  0.00    +0.000 A 
ATOM     29  F   UNL     1      -2.247  10.806  15.704  0.00  0.00    +0.000 F 
ENDBRANCH  22  23
ENDBRANCH  19  21
ENDBRANCH   4  19
TORSDOF 9
ENDMDL
