MODEL 1
REMARK VINA RESULT:      -6.6      0.000      0.000
REMARK  Name = 
REMARK  11 active torsions:
REMARK  status: ('A' for Active; 'I' for Inactive)
REMARK    1  A    between atoms: C_1  and  O_2
REMARK    2  A    between atoms: O_2  and  C_3
REMARK    3  A    between atoms: C_3  and  C_4
REMARK    4  A    between atoms: C_4  and  N_5
REMARK    5  A    between atoms: N_5  and  C_6
REMARK    6  A    between atoms: N_5  and  C_7
REMARK    7  A    between atoms: C_7  and  C_8
REMARK    8  A    between atoms: C_10  and  C_11
REMARK    9  A    between atoms: C_11  and  O_12
REMARK   10  A    between atoms: N_14  and  C_15
REMARK   11  A    between atoms: C_15  and  C_16
REMARK                            x       y       z     vdW  Elec       q    Type
REMARK                         _______ _______ _______ _____ _____    ______ ____
ROOT
ATOM      1  C   UNL     1       6.208   4.946  15.418  0.00  0.00    +0.000 C 
ATOM      2  C   UNL     1       7.339   5.777  16.042  0.00  0.00    +0.000 C 
ATOM      3  C   UNL     1       7.147   6.000  17.553  0.00  0.00    +0.000 C 
ATOM      4  C   UNL     1       5.716   6.479  17.854  0.00  0.00    +0.000 C 
ATOM      5  N   UNL     1       4.701   5.549  17.337  0.00  0.00    +0.000 NA
ATOM      6  C   UNL     1       4.827   5.448  15.870  0.00  0.00    +0.000 C 
ENDROOT
BRANCH   1   7
ATOM      7  C   UNL     1       6.260   4.977  13.867  0.00  0.00    +0.000 C 
BRANCH   7   8
ATOM      8  N   UNL     1       6.178   3.668  13.179  0.00  0.00    +0.000 NA
ATOM      9  C   UNL     1       7.162   3.643  12.089  0.00  0.00    +0.000 C 
BRANCH   8  10
ATOM     10  C   UNL     1       4.808   3.453  12.664  0.00  0.00    +0.000 C 
BRANCH  10  11
ATOM     11  C   UNL     1       4.668   2.760  11.303  0.00  0.00    +0.000 C 
BRANCH  11  13
ATOM     12  C   UNL     1       3.233   3.983   9.869  0.00  0.00    +0.000 C 
ATOM     13  O   UNL     1       3.321   2.976  10.862  0.00  0.00    +0.000 OA
ENDBRANCH  11  13
ENDBRANCH  10  11
ENDBRANCH   8  10
ENDBRANCH   7   8
ENDBRANCH   1   7
BRANCH   3  14
ATOM     14  C   UNL     1       7.506   4.761  18.386  0.00  0.00    +0.000 C 
BRANCH  14  15
ATOM     15  O   UNL     1       6.491   4.494  19.351  0.00  0.00    +0.000 OA
ATOM     16  H   UNL     1       6.597   5.135  20.075  0.00  0.00    +0.000 HD
ENDBRANCH  14  15
ENDBRANCH   3  14
BRANCH   5  17
ATOM     17  C   UNL     1       3.327   5.987  17.653  0.00  0.00    +0.000 C 
BRANCH  17  18
ATOM     18  C   UNL     1       2.602   5.143  18.679  0.00  0.00    +0.000 A 
ATOM     19  C   UNL     1       2.832   5.317  20.055  0.00  0.00    +0.000 A 
ATOM     20  C   UNL     1       2.201   4.489  20.989  0.00  0.00    +0.000 A 
ATOM     21  C   UNL     1       1.339   3.489  20.550  0.00  0.00    +0.000 A 
ATOM     22  F   UNL     1       0.747   2.689  21.448  0.00  0.00    +0.000 F 
ATOM     23  C   UNL     1       1.097   3.316  19.195  0.00  0.00    +0.000 A 
ATOM     24  F   UNL     1       0.265   2.350  18.779  0.00  0.00    +0.000 F 
ATOM     25  C   UNL     1       1.722   4.133  18.258  0.00  0.00    +0.000 A 
ENDBRANCH  17  18
ENDBRANCH   5  17
TORSDOF 9
ENDMDL
MODEL 2
REMARK VINA RESULT:      -6.4      3.814      5.794
REMARK  Name = 
REMARK  11 active torsions:
REMARK  status: ('A' for Active; 'I' for Inactive)
REMARK    1  A    between atoms: C_1  and  O_2
REMARK    2  A    between atoms: O_2  and  C_3
REMARK    3  A    between atoms: C_3  and  C_4
REMARK    4  A    between atoms: C_4  and  N_5
REMARK    5  A    between atoms: N_5  and  C_6
REMARK    6  A    between atoms: N_5  and  C_7
REMARK    7  A    between atoms: C_7  and  C_8
REMARK    8  A    between atoms: C_10  and  C_11
REMARK    9  A    between atoms: C_11  and  O_12
REMARK   10  A    between atoms: N_14  and  C_15
REMARK   11  A    between atoms: C_15  and  C_16
REMARK                            x       y       z     vdW  Elec       q    Type
REMARK                         _______ _______ _______ _____ _____    ______ ____
ROOT
ATOM      1  C   UNL     1       3.566   4.272  17.614  0.00  0.00    +0.000 C 
ATOM      2  C   UNL     1       3.562   3.716  19.047  0.00  0.00    +0.000 C 
ATOM      3  C   UNL     1       2.589   4.469  19.972  0.00  0.00    +0.000 C 
ATOM      4  C   UNL     1       2.783   5.990  19.842  0.00  0.00    +0.000 C 
ATOM      5  N   UNL     1       2.633   6.450  18.453  0.00  0.00    +0.000 NA
ATOM      6  C   UNL     1       3.658   5.807  17.608  0.00  0.00    +0.000 C 
ENDROOT
BRANCH   1   7
ATOM      7  C   UNL     1       4.745   3.704  16.782  0.00  0.00    +0.000 C 
BRANCH   7   8
ATOM      8  N   UNL     1       5.709   4.693  16.244  0.00  0.00    +0.000 NA
ATOM      9  C   UNL     1       5.872   4.460  14.803  0.00  0.00    +0.000 C 
BRANCH   8  10
ATOM     10  C   UNL     1       7.001   4.576  16.952  0.00  0.00    +0.000 C 
BRANCH  10  11
ATOM     11  C   UNL     1       7.461   5.781  17.783  0.00  0.00    +0.000 C 
BRANCH  11  13
ATOM     12  C   UNL     1       7.764   8.123  17.591  0.00  0.00    +0.000 C 
ATOM     13  O   UNL     1       7.299   6.942  16.959  0.00  0.00    +0.000 OA
ENDBRANCH  11  13
ENDBRANCH  10  11
ENDBRANCH   8  10
ENDBRANCH   7   8
ENDBRANCH   1   7
BRANCH   3  14
ATOM     14  C   UNL     1       1.124   4.072  19.742  0.00  0.00    +0.000 C 
BRANCH  14  15
ATOM     15  O   UNL     1       0.710   3.102  20.702  0.00  0.00    +0.000 OA
ATOM     16  H   UNL     1      -0.245   3.220  20.847  0.00  0.00    +0.000 HD
ENDBRANCH  14  15
ENDBRANCH   3  14
BRANCH   5  17
ATOM     17  C   UNL     1       2.785   7.913  18.328  0.00  0.00    +0.000 C 
BRANCH  17  18
ATOM     18  C   UNL     1       1.593   8.725  18.788  0.00  0.00    +0.000 A 
ATOM     19  C   UNL     1       0.797   9.432  17.869  0.00  0.00    +0.000 A 
ATOM     20  C   UNL     1      -0.263  10.227  18.314  0.00  0.00    +0.000 A 
ATOM     21  C   UNL     1      -0.532  10.316  19.676  0.00  0.00    +0.000 A 
ATOM     22  F   UNL     1      -1.541  11.090  20.099  0.00  0.00    +0.000 F 
ATOM     23  C   UNL     1       0.240   9.614  20.591  0.00  0.00    +0.000 A 
ATOM     24  F   UNL     1      -0.025   9.705  21.902  0.00  0.00    +0.000 F 
ATOM     25  C   UNL     1       1.299   8.822  20.158  0.00  0.00    +0.000 A 
ENDBRANCH  17  18
ENDBRANCH   5  17
TORSDOF 9
ENDMDL
MODEL 3
REMARK VINA RESULT:      -6.4      1.487      2.081
REMARK  Name = 
REMARK  11 active torsions:
REMARK  status: ('A' for Active; 'I' for Inactive)
REMARK    1  A    between atoms: C_1  and  O_2
REMARK    2  A    between atoms: O_2  and  C_3
REMARK    3  A    between atoms: C_3  and  C_4
REMARK    4  A    between atoms: C_4  and  N_5
REMARK    5  A    between atoms: N_5  and  C_6
REMARK    6  A    between atoms: N_5  and  C_7
REMARK    7  A    between atoms: C_7  and  C_8
REMARK    8  A    between atoms: C_10  and  C_11
REMARK    9  A    between atoms: C_11  and  O_12
REMARK   10  A    between atoms: N_14  and  C_15
REMARK   11  A    between atoms: C_15  and  C_16
REMARK                            x       y       z     vdW  Elec       q    Type
REMARK                         _______ _______ _______ _____ _____    ______ ____
ROOT
ATOM      1  C   UNL     1       5.926   4.916  15.583  0.00  0.00    +0.000 C 
ATOM      2  C   UNL     1       5.461   6.377  15.678  0.00  0.00    +0.000 C 
ATOM      3  C   UNL     1       5.714   6.991  17.066  0.00  0.00    +0.000 C 
ATOM      4  C   UNL     1       5.209   6.052  18.176  0.00  0.00    +0.000 C 
ATOM      5  N   UNL     1       5.813   4.714  18.086  0.00  0.00    +0.000 NA
ATOM      6  C   UNL     1       5.452   4.097  16.795  0.00  0.00    +0.000 C 
ENDROOT
BRANCH   1   7
ATOM      7  C   UNL     1       5.406   4.231  14.291  0.00  0.00    +0.000 C 
BRANCH   7   8
ATOM      8  N   UNL     1       6.436   3.731  13.351  0.00  0.00    +0.000 NA
ATOM      9  C   UNL     1       7.438   4.785  13.143  0.00  0.00    +0.000 C 
BRANCH   8  10
ATOM     10  C   UNL     1       5.805   3.337  12.073  0.00  0.00    +0.000 C 
BRANCH  10  11
ATOM     11  C   UNL     1       4.273   3.387  11.999  0.00  0.00    +0.000 C 
BRANCH  11  13
ATOM     12  C   UNL     1       3.221   3.850   9.928  0.00  0.00    +0.000 C 
ATOM     13  O   UNL     1       3.902   2.884  10.709  0.00  0.00    +0.000 OA
ENDBRANCH  11  13
ENDBRANCH  10  11
ENDBRANCH   8  10
ENDBRANCH   7   8
ENDBRANCH   1   7
BRANCH   3  14
ATOM     14  C   UNL     1       7.185   7.374  17.287  0.00  0.00    +0.000 C 
BRANCH  14  15
ATOM     15  O   UNL     1       7.706   6.716  18.440  0.00  0.00    +0.000 OA
ATOM     16  H   UNL     1       7.161   5.927  18.601  0.00  0.00    +0.000 HD
ENDBRANCH  14  15
ENDBRANCH   3  14
BRANCH   5  17
ATOM     17  C   UNL     1       5.357   3.820  19.168  0.00  0.00    +0.000 C 
BRANCH  17  18
ATOM     18  C   UNL     1       3.925   3.343  19.048  0.00  0.00    +0.000 A 
ATOM     19  C   UNL     1       3.576   2.307  18.165  0.00  0.00    +0.000 A 
ATOM     20  C   UNL     1       2.241   1.919  18.020  0.00  0.00    +0.000 A 
ATOM     21  C   UNL     1       1.253   2.563  18.758  0.00  0.00    +0.000 A 
ATOM     22  F   UNL     1      -0.027   2.196  18.607  0.00  0.00    +0.000 F 
ATOM     23  C   UNL     1       1.587   3.580  19.641  0.00  0.00    +0.000 A 
ATOM     24  F   UNL     1       0.631   4.196  20.349  0.00  0.00    +0.000 F 
ATOM     25  C   UNL     1       2.914   3.974  19.790  0.00  0.00    +0.000 A 
ENDBRANCH  17  18
ENDBRANCH   5  17
TORSDOF 9
ENDMDL
MODEL 4
REMARK VINA RESULT:      -6.3      3.467      5.593
REMARK  Name = 
REMARK  11 active torsions:
REMARK  status: ('A' for Active; 'I' for Inactive)
REMARK    1  A    between atoms: C_1  and  O_2
REMARK    2  A    between atoms: O_2  and  C_3
REMARK    3  A    between atoms: C_3  and  C_4
REMARK    4  A    between atoms: C_4  and  N_5
REMARK    5  A    between atoms: N_5  and  C_6
REMARK    6  A    between atoms: N_5  and  C_7
REMARK    7  A    between atoms: C_7  and  C_8
REMARK    8  A    between atoms: C_10  and  C_11
REMARK    9  A    between atoms: C_11  and  O_12
REMARK   10  A    between atoms: N_14  and  C_15
REMARK   11  A    between atoms: C_15  and  C_16
REMARK                            x       y       z     vdW  Elec       q    Type
REMARK                         _______ _______ _______ _____ _____    ______ ____
ROOT
ATOM      1  C   UNL     1       3.708   3.688  17.548  0.00  0.00    +0.000 C 
ATOM      2  C   UNL     1       3.479   2.281  18.121  0.00  0.00    +0.000 C 
ATOM      3  C   UNL     1       2.347   2.243  19.164  0.00  0.00    +0.000 C 
ATOM      4  C   UNL     1       2.521   3.369  20.198  0.00  0.00    +0.000 C 
ATOM      5  N   UNL     1       2.594   4.695  19.565  0.00  0.00    +0.000 NA
ATOM      6  C   UNL     1       3.762   4.746  18.663  0.00  0.00    +0.000 C 
ENDROOT
BRANCH   1   7
ATOM      7  C   UNL     1       5.024   3.767  16.730  0.00  0.00    +0.000 C 
BRANCH   7   8
ATOM      8  N   UNL     1       5.050   4.744  15.617  0.00  0.00    +0.000 NA
ATOM      9  C   UNL     1       5.754   4.143  14.476  0.00  0.00    +0.000 C 
BRANCH   8  10
ATOM     10  C   UNL     1       5.712   5.991  16.054  0.00  0.00    +0.000 C 
BRANCH  10  11
ATOM     11  C   UNL     1       7.075   5.860  16.747  0.00  0.00    +0.000 C 
BRANCH  11  13
ATOM     12  C   UNL     1       7.630   5.760  19.048  0.00  0.00    +0.000 C 
ATOM     13  O   UNL     1       6.951   6.480  18.033  0.00  0.00    +0.000 OA
ENDBRANCH  11  13
ENDBRANCH  10  11
ENDBRANCH   8  10
ENDBRANCH   7   8
ENDBRANCH   1   7
BRANCH   3  14
ATOM     14  C   UNL     1       0.951   2.284  18.526  0.00  0.00    +0.000 C 
BRANCH  14  15
ATOM     15  O   UNL     1      -0.016   2.749  19.465  0.00  0.00    +0.000 OA
ATOM     16  H   UNL     1      -0.882   2.398  19.194  0.00  0.00    +0.000 HD
ENDBRANCH  14  15
ENDBRANCH   3  14
BRANCH   5  17
ATOM     17  C   UNL     1       2.728   5.782  20.554  0.00  0.00    +0.000 C 
BRANCH  17  18
ATOM     18  C   UNL     1       2.143   7.112  20.132  0.00  0.00    +0.000 A 
ATOM     19  C   UNL     1       1.318   7.851  20.999  0.00  0.00    +0.000 A 
ATOM     20  C   UNL     1       0.735   9.048  20.574  0.00  0.00    +0.000 A 
ATOM     21  C   UNL     1       0.975   9.510  19.284  0.00  0.00    +0.000 A 
ATOM     22  F   UNL     1       0.404  10.652  18.876  0.00  0.00    +0.000 F 
ATOM     23  C   UNL     1       1.796   8.795  18.423  0.00  0.00    +0.000 A 
ATOM     24  F   UNL     1       2.023   9.246  17.182  0.00  0.00    +0.000 F 
ATOM     25  C   UNL     1       2.379   7.601  18.837  0.00  0.00    +0.000 A 
ENDBRANCH  17  18
ENDBRANCH   5  17
TORSDOF 9
ENDMDL
MODEL 5
REMARK VINA RESULT:      -6.3      4.285      6.037
REMARK  Name = 
REMARK  11 active torsions:
REMARK  status: ('A' for Active; 'I' for Inactive)
REMARK    1  A    between atoms: C_1  and  O_2
REMARK    2  A    between atoms: O_2  and  C_3
REMARK    3  A    between atoms: C_3  and  C_4
REMARK    4  A    between atoms: C_4  and  N_5
REMARK    5  A    between atoms: N_5  and  C_6
REMARK    6  A    between atoms: N_5  and  C_7
REMARK    7  A    between atoms: C_7  and  C_8
REMARK    8  A    between atoms: C_10  and  C_11
REMARK    9  A    between atoms: C_11  and  O_12
REMARK   10  A    between atoms: N_14  and  C_15
REMARK   11  A    between atoms: C_15  and  C_16
REMARK                            x       y       z     vdW  Elec       q    Type
REMARK                         _______ _______ _______ _____ _____    ______ ____
ROOT
ATOM      1  C   UNL     1       4.191   4.162  18.047  0.00  0.00    +0.000 C 
ATOM      2  C   UNL     1       5.561   4.224  17.354  0.00  0.00    +0.000 C 
ATOM      3  C   UNL     1       6.190   5.628  17.409  0.00  0.00    +0.000 C 
ATOM      4  C   UNL     1       5.170   6.698  16.980  0.00  0.00    +0.000 C 
ATOM      5  N   UNL     1       3.944   6.650  17.791  0.00  0.00    +0.000 NA
ATOM      6  C   UNL     1       3.293   5.336  17.623  0.00  0.00    +0.000 C 
ENDROOT
BRANCH   1   7
ATOM      7  C   UNL     1       3.449   2.836  17.733  0.00  0.00    +0.000 C 
BRANCH   7   8
ATOM      8  N   UNL     1       2.869   2.116  18.891  0.00  0.00    +0.000 NA
ATOM      9  C   UNL     1       1.404   2.171  18.796  0.00  0.00    +0.000 C 
BRANCH   8  10
ATOM     10  C   UNL     1       3.344   2.722  20.152  0.00  0.00    +0.000 C 
BRANCH  10  11
ATOM     11  C   UNL     1       2.691   2.242  21.455  0.00  0.00    +0.000 C 
BRANCH  11  13
ATOM     12  C   UNL     1       2.232   4.561  21.295  0.00  0.00    +0.000 C 
ATOM     13  O   UNL     1       2.168   3.404  22.112  0.00  0.00    +0.000 OA
ENDBRANCH  11  13
ENDBRANCH  10  11
ENDBRANCH   8  10
ENDBRANCH   7   8
ENDBRANCH   1   7
BRANCH   3  14
ATOM     14  C   UNL     1       6.794   5.954  18.783  0.00  0.00    +0.000 C 
BRANCH  14  15
ATOM     15  O   UNL     1       7.780   4.986  19.139  0.00  0.00    +0.000 OA
ATOM     16  H   UNL     1       7.470   4.532  19.941  0.00  0.00    +0.000 HD
ENDBRANCH  14  15
ENDBRANCH   3  14
BRANCH   5  17
ATOM     17  C   UNL     1       2.976   7.696  17.405  0.00  0.00    +0.000 C 
BRANCH  17  18
ATOM     18  C   UNL     1       2.160   8.269  18.544  0.00  0.00    +0.000 A 
ATOM     19  C   UNL     1       2.199   7.695  19.827  0.00  0.00    +0.000 A 
ATOM     20  C   UNL     1       1.393   8.197  20.853  0.00  0.00    +0.000 A 
ATOM     21  C   UNL     1       0.548   9.273  20.600  0.00  0.00    +0.000 A 
ATOM     22  F   UNL     1      -0.232   9.743  21.583  0.00  0.00    +0.000 F 
ATOM     23  C   UNL     1       0.508   9.854  19.341  0.00  0.00    +0.000 A 
ATOM     24  F   UNL     1      -0.308  10.890  19.104  0.00  0.00    +0.000 F 
ATOM     25  C   UNL     1       1.306   9.360  18.312  0.00  0.00    +0.000 A 
ENDBRANCH  17  18
ENDBRANCH   5  17
TORSDOF 9
ENDMDL
MODEL 6
REMARK VINA RESULT:      -6.3      4.326      8.205
REMARK  Name = 
REMARK  11 active torsions:
REMARK  status: ('A' for Active; 'I' for Inactive)
REMARK    1  A    between atoms: C_1  and  O_2
REMARK    2  A    between atoms: O_2  and  C_3
REMARK    3  A    between atoms: C_3  and  C_4
REMARK    4  A    between atoms: C_4  and  N_5
REMARK    5  A    between atoms: N_5  and  C_6
REMARK    6  A    between atoms: N_5  and  C_7
REMARK    7  A    between atoms: C_7  and  C_8
REMARK    8  A    between atoms: C_10  and  C_11
REMARK    9  A    between atoms: C_11  and  O_12
REMARK   10  A    between atoms: N_14  and  C_15
REMARK   11  A    between atoms: C_15  and  C_16
REMARK                            x       y       z     vdW  Elec       q    Type
REMARK                         _______ _______ _______ _____ _____    ______ ____
ROOT
ATOM      1  C   UNL     1       2.402   5.069  20.184  0.00  0.00    +0.000 C 
ATOM      2  C   UNL     1       1.080   4.457  19.696  0.00  0.00    +0.000 C 
ATOM      3  C   UNL     1       1.292   3.332  18.666  0.00  0.00    +0.000 C 
ATOM      4  C   UNL     1       2.271   3.779  17.567  0.00  0.00    +0.000 C 
ATOM      5  N   UNL     1       3.561   4.221  18.120  0.00  0.00    +0.000 NA
ATOM      6  C   UNL     1       3.344   5.380  19.008  0.00  0.00    +0.000 C 
ENDROOT
BRANCH   1   7
ATOM      7  C   UNL     1       2.167   6.377  20.986  0.00  0.00    +0.000 C 
BRANCH   7   8
ATOM      8  N   UNL     1       1.204   7.341  20.405  0.00  0.00    +0.000 NA
ATOM      9  C   UNL     1       1.931   8.260  19.518  0.00  0.00    +0.000 C 
BRANCH   8  10
ATOM     10  C   UNL     1       0.515   8.079  21.485  0.00  0.00    +0.000 C 
BRANCH  10  11
ATOM     11  C   UNL     1       1.249   9.279  22.099  0.00  0.00    +0.000 C 
BRANCH  11  13
ATOM     12  C   UNL     1      -0.685  10.137  23.165  0.00  0.00    +0.000 C 
ATOM     13  O   UNL     1       0.603   9.571  23.344  0.00  0.00    +0.000 OA
ENDBRANCH  11  13
ENDBRANCH  10  11
ENDBRANCH   8  10
ENDBRANCH   7   8
ENDBRANCH   1   7
BRANCH   3  14
ATOM     14  C   UNL     1       1.744   2.014  19.312  0.00  0.00    +0.000 C 
BRANCH  14  15
ATOM     15  O   UNL     1       2.744   1.382  18.515  0.00  0.00    +0.000 OA
ATOM     16  H   UNL     1       2.409   1.338  17.603  0.00  0.00    +0.000 HD
ENDBRANCH  14  15
ENDBRANCH   3  14
BRANCH   5  17
ATOM     17  C   UNL     1       4.515   4.620  17.067  0.00  0.00    +0.000 C 
BRANCH  17  18
ATOM     18  C   UNL     1       5.649   5.509  17.530  0.00  0.00    +0.000 A 
ATOM     19  C   UNL     1       5.841   6.788  16.979  0.00  0.00    +0.000 A 
ATOM     20  C   UNL     1       6.928   7.574  17.372  0.00  0.00    +0.000 A 
ATOM     21  C   UNL     1       7.825   7.084  18.317  0.00  0.00    +0.000 A 
ATOM     22  F   UNL     1       8.874   7.835  18.681  0.00  0.00    +0.000 F 
ATOM     23  C   UNL     1       7.640   5.828  18.875  0.00  0.00    +0.000 A 
ATOM     24  F   UNL     1       8.508   5.362  19.784  0.00  0.00    +0.000 F 
ATOM     25  C   UNL     1       6.562   5.038  18.488  0.00  0.00    +0.000 A 
ENDBRANCH  17  18
ENDBRANCH   5  17
TORSDOF 9
ENDMDL
MODEL 7
REMARK VINA RESULT:      -6.2      3.673      5.331
REMARK  Name = 
REMARK  11 active torsions:
REMARK  status: ('A' for Active; 'I' for Inactive)
REMARK    1  A    between atoms: C_1  and  O_2
REMARK    2  A    between atoms: O_2  and  C_3
REMARK    3  A    between atoms: C_3  and  C_4
REMARK    4  A    between atoms: C_4  and  N_5
REMARK    5  A    between atoms: N_5  and  C_6
REMARK    6  A    between atoms: N_5  and  C_7
REMARK    7  A    between atoms: C_7  and  C_8
REMARK    8  A    between atoms: C_10  and  C_11
REMARK    9  A    between atoms: C_11  and  O_12
REMARK   10  A    between atoms: N_14  and  C_15
REMARK   11  A    between atoms: C_15  and  C_16
REMARK                            x       y       z     vdW  Elec       q    Type
REMARK                         _______ _______ _______ _____ _____    ______ ____
ROOT
ATOM      1  C   UNL     1       4.844   4.840  18.573  0.00  0.00    +0.000 C 
ATOM      2  C   UNL     1       4.631   3.319  18.595  0.00  0.00    +0.000 C 
ATOM      3  C   UNL     1       3.143   2.929  18.670  0.00  0.00    +0.000 C 
ATOM      4  C   UNL     1       2.429   3.724  19.777  0.00  0.00    +0.000 C 
ATOM      5  N   UNL     1       2.573   5.176  19.596  0.00  0.00    +0.000 NA
ATOM      6  C   UNL     1       4.002   5.540  19.653  0.00  0.00    +0.000 C 
ENDROOT
BRANCH   1   7
ATOM      7  C   UNL     1       6.334   5.214  18.790  0.00  0.00    +0.000 C 
BRANCH   7   8
ATOM      8  N   UNL     1       6.985   5.984  17.704  0.00  0.00    +0.000 NA
ATOM      9  C   UNL     1       7.890   6.974  18.304  0.00  0.00    +0.000 C 
BRANCH   8  10
ATOM     10  C   UNL     1       5.960   6.638  16.865  0.00  0.00    +0.000 C 
BRANCH  10  11
ATOM     11  C   UNL     1       5.541   5.920  15.576  0.00  0.00    +0.000 C 
BRANCH  11  13
ATOM     12  C   UNL     1       6.666   4.399  14.150  0.00  0.00    +0.000 C 
ATOM     13  O   UNL     1       6.743   5.629  14.851  0.00  0.00    +0.000 OA
ENDBRANCH  11  13
ENDBRANCH  10  11
ENDBRANCH   8  10
ENDBRANCH   7   8
ENDBRANCH   1   7
BRANCH   3  14
ATOM     14  C   UNL     1       2.422   3.079  17.322  0.00  0.00    +0.000 C 
BRANCH  14  15
ATOM     15  O   UNL     1       1.258   3.891  17.464  0.00  0.00    +0.000 OA
ATOM     16  H   UNL     1       0.772   3.575  18.245  0.00  0.00    +0.000 HD
ENDBRANCH  14  15
ENDBRANCH   3  14
BRANCH   5  17
ATOM     17  C   UNL     1       1.861   5.943  20.637  0.00  0.00    +0.000 C 
BRANCH  17  18
ATOM     18  C   UNL     1       1.620   7.402  20.311  0.00  0.00    +0.000 A 
ATOM     19  C   UNL     1       1.113   8.288  21.277  0.00  0.00    +0.000 A 
ATOM     20  C   UNL     1       0.837   9.618  20.943  0.00  0.00    +0.000 A 
ATOM     21  C   UNL     1       1.070  10.064  19.646  0.00  0.00    +0.000 A 
ATOM     22  F   UNL     1       0.792  11.336  19.327  0.00  0.00    +0.000 F 
ATOM     23  C   UNL     1       1.580   9.201  18.687  0.00  0.00    +0.000 A 
ATOM     24  F   UNL     1       1.801   9.637  17.439  0.00  0.00    +0.000 F 
ATOM     25  C   UNL     1       1.855   7.875  19.009  0.00  0.00    +0.000 A 
ENDBRANCH  17  18
ENDBRANCH   5  17
TORSDOF 9
ENDMDL
MODEL 8
REMARK VINA RESULT:      -6.2      4.747      7.877
REMARK  Name = 
REMARK  11 active torsions:
REMARK  status: ('A' for Active; 'I' for Inactive)
REMARK    1  A    between atoms: C_1  and  O_2
REMARK    2  A    between atoms: O_2  and  C_3
REMARK    3  A    between atoms: C_3  and  C_4
REMARK    4  A    between atoms: C_4  and  N_5
REMARK    5  A    between atoms: N_5  and  C_6
REMARK    6  A    between atoms: N_5  and  C_7
REMARK    7  A    between atoms: C_7  and  C_8
REMARK    8  A    between atoms: C_10  and  C_11
REMARK    9  A    between atoms: C_11  and  O_12
REMARK   10  A    between atoms: N_14  and  C_15
REMARK   11  A    between atoms: C_15  and  C_16
REMARK                            x       y       z     vdW  Elec       q    Type
REMARK                         _______ _______ _______ _____ _____    ______ ____
ROOT
ATOM      1  C   UNL     1       1.809   5.459  20.558  0.00  0.00    +0.000 C 
ATOM      2  C   UNL     1       0.923   4.209  20.674  0.00  0.00    +0.000 C 
ATOM      3  C   UNL     1       1.695   2.907  20.394  0.00  0.00    +0.000 C 
ATOM      4  C   UNL     1       2.517   3.030  19.100  0.00  0.00    +0.000 C 
ATOM      5  N   UNL     1       3.437   4.177  19.134  0.00  0.00    +0.000 NA
ATOM      6  C   UNL     1       2.662   5.425  19.279  0.00  0.00    +0.000 C 
ENDROOT
BRANCH   1   7
ATOM      7  C   UNL     1       0.966   6.762  20.553  0.00  0.00    +0.000 C 
BRANCH   7   8
ATOM      8  N   UNL     1       1.720   8.035  20.628  0.00  0.00    +0.000 NA
ATOM      9  C   UNL     1       1.282   8.775  21.819  0.00  0.00    +0.000 C 
BRANCH   8  10
ATOM     10  C   UNL     1       1.500   8.826  19.399  0.00  0.00    +0.000 C 
BRANCH  10  11
ATOM     11  C   UNL     1       0.547  10.024  19.494  0.00  0.00    +0.000 C 
BRANCH  11  13
ATOM     12  C   UNL     1       0.534  12.322  18.917  0.00  0.00    +0.000 C 
ATOM     13  O   UNL     1       1.332  11.200  19.257  0.00  0.00    +0.000 OA
ENDBRANCH  11  13
ENDBRANCH  10  11
ENDBRANCH   8  10
ENDBRANCH   7   8
ENDBRANCH   1   7
BRANCH   3  14
ATOM     14  C   UNL     1       2.577   2.475  21.575  0.00  0.00    +0.000 C 
BRANCH  14  15
ATOM     15  O   UNL     1       3.913   2.228  21.139  0.00  0.00    +0.000 OA
ATOM     16  H   UNL     1       4.379   1.774  21.862  0.00  0.00    +0.000 HD
ENDBRANCH  14  15
ENDBRANCH   3  14
BRANCH   5  17
ATOM     17  C   UNL     1       4.251   4.280  17.908  0.00  0.00    +0.000 C 
BRANCH  17  18
ATOM     18  C   UNL     1       5.378   5.289  17.966  0.00  0.00    +0.000 A 
ATOM     19  C   UNL     1       5.389   6.414  17.123  0.00  0.00    +0.000 A 
ATOM     20  C   UNL     1       6.466   7.305  17.145  0.00  0.00    +0.000 A 
ATOM     21  C   UNL     1       7.532   7.075  18.009  0.00  0.00    +0.000 A 
ATOM     22  F   UNL     1       8.569   7.924  18.017  0.00  0.00    +0.000 F 
ATOM     23  C   UNL     1       7.527   5.973  18.852  0.00  0.00    +0.000 A 
ATOM     24  F   UNL     1       8.557   5.757  19.682  0.00  0.00    +0.000 F 
ATOM     25  C   UNL     1       6.460   5.080  18.836  0.00  0.00    +0.000 A 
ENDBRANCH  17  18
ENDBRANCH   5  17
TORSDOF 9
ENDMDL
MODEL 9
REMARK VINA RESULT:      -6.2      3.713      5.190
REMARK  Name = 
REMARK  11 active torsions:
REMARK  status: ('A' for Active; 'I' for Inactive)
REMARK    1  A    between atoms: C_1  and  O_2
REMARK    2  A    between atoms: O_2  and  C_3
REMARK    3  A    between atoms: C_3  and  C_4
REMARK    4  A    between atoms: C_4  and  N_5
REMARK    5  A    between atoms: N_5  and  C_6
REMARK    6  A    between atoms: N_5  and  C_7
REMARK    7  A    between atoms: C_7  and  C_8
REMARK    8  A    between atoms: C_10  and  C_11
REMARK    9  A    between atoms: C_11  and  O_12
REMARK   10  A    between atoms: N_14  and  C_15
REMARK   11  A    between atoms: C_15  and  C_16
REMARK                            x       y       z     vdW  Elec       q    Type
REMARK                         _______ _______ _______ _____ _____    ______ ____
ROOT
ATOM      1  C   UNL     1       5.075   4.697  18.169  0.00  0.00    +0.000 C 
ATOM      2  C   UNL     1       4.648   3.229  18.323  0.00  0.00    +0.000 C 
ATOM      3  C   UNL     1       3.128   3.070  18.507  0.00  0.00    +0.000 C 
ATOM      4  C   UNL     1       2.606   4.039  19.582  0.00  0.00    +0.000 C 
ATOM      5  N   UNL     1       2.945   5.438  19.279  0.00  0.00    +0.000 NA
ATOM      6  C   UNL     1       4.413   5.589  19.231  0.00  0.00    +0.000 C 
ENDROOT
BRANCH   1   7
ATOM      7  C   UNL     1       6.614   4.861  18.278  0.00  0.00    +0.000 C 
BRANCH   7   8
ATOM      8  N   UNL     1       7.291   5.507  17.128  0.00  0.00    +0.000 NA
ATOM      9  C   UNL     1       7.487   6.931  17.433  0.00  0.00    +0.000 C 
BRANCH   8  10
ATOM     10  C   UNL     1       6.482   5.332  15.903  0.00  0.00    +0.000 C 
BRANCH  10  11
ATOM     11  C   UNL     1       7.227   4.968  14.612  0.00  0.00    +0.000 C 
BRANCH  11  13
ATOM     12  C   UNL     1       5.306   4.032  13.591  0.00  0.00    +0.000 C 
ATOM     13  O   UNL     1       6.608   3.784  14.093  0.00  0.00    +0.000 OA
ENDBRANCH  11  13
ENDBRANCH  10  11
ENDBRANCH   8  10
ENDBRANCH   7   8
ENDBRANCH   1   7
BRANCH   3  14
ATOM     14  C   UNL     1       2.352   3.228  17.191  0.00  0.00    +0.000 C 
BRANCH  14  15
ATOM     15  O   UNL     1       1.237   4.100  17.368  0.00  0.00    +0.000 OA
ATOM     16  H   UNL     1       0.611   3.659  17.966  0.00  0.00    +0.000 HD
ENDBRANCH  14  15
ENDBRANCH   3  14
BRANCH   5  17
ATOM     17  C   UNL     1       2.418   6.374  20.290  0.00  0.00    +0.000 C 
BRANCH  17  18
ATOM     18  C   UNL     1       1.918   7.695  19.746  0.00  0.00    +0.000 A 
ATOM     19  C   UNL     1       2.183   8.082  18.420  0.00  0.00    +0.000 A 
ATOM     20  C   UNL     1       1.768   9.331  17.950  0.00  0.00    +0.000 A 
ATOM     21  C   UNL     1       1.086  10.195  18.801  0.00  0.00    +0.000 A 
ATOM     22  F   UNL     1       0.701  11.397  18.350  0.00  0.00    +0.000 F 
ATOM     23  C   UNL     1       0.809   9.820  20.108  0.00  0.00    +0.000 A 
ATOM     24  F   UNL     1       0.152  10.657  20.923  0.00  0.00    +0.000 F 
ATOM     25  C   UNL     1       1.221   8.579  20.586  0.00  0.00    +0.000 A 
ENDBRANCH  17  18
ENDBRANCH   5  17
TORSDOF 9
ENDMDL
