MODEL 1
REMARK VINA RESULT:      -7.0      0.000      0.000
REMARK  Name = 
REMARK  2 active torsions:
REMARK  status: ('A' for Active; 'I' for Inactive)
REMARK    1  A    between atoms: C_2  and  C_17
REMARK    2  A    between atoms: N_3  and  C_4
REMARK                            x       y       z     vdW  Elec       q    Type
REMARK                         _______ _______ _______ _____ _____    ______ ____
ROOT
ATOM      1  C   UNL     1      -2.458  10.326  17.561  0.00  0.00    +0.000 A 
ATOM      2  C   UNL     1      -2.121   9.747  16.350  0.00  0.00    +0.000 A 
ATOM      3  C   UNL     1      -2.849  10.114  15.231  0.00  0.00    +0.000 A 
ATOM      4  N   UNL     1      -3.878  10.995  15.242  0.00  0.00    +0.000 NA
ATOM      5  C   UNL     1      -4.234  11.525  16.428  0.00  0.00    +0.000 A 
ATOM      6  N   UNL     1      -5.305  12.408  16.426  0.00  0.00    +0.000 N 
ATOM      7  C   UNL     1      -6.171  12.771  17.446  0.00  0.00    +0.000 A 
ATOM      8  N   UNL     1      -6.097  12.160  18.643  0.00  0.00    +0.000 NA
ATOM      9  C   UNL     1      -6.941  12.551  19.610  0.00  0.00    +0.000 A 
ATOM     10  C   UNL     1      -7.850  13.561  19.441  0.00  0.00    +0.000 A 
ATOM     11  C   UNL     1      -7.868  14.125  18.189  0.00  0.00    +0.000 A 
ATOM     12  N   UNL     1      -7.059  13.740  17.180  0.00  0.00    +0.000 NA
ATOM     13  C   UNL     1      -3.529  11.219  17.592  0.00  0.00    +0.000 A 
ATOM     14  H   UNL     1      -5.663  12.624  15.511  0.00  0.00    +0.000 HD
ENDROOT
BRANCH   1  17
ATOM     15  O   UNL     1      -0.394  11.932  18.916  0.00  0.00    +0.000 OA
ATOM     16  C   UNL     1      -0.829  10.884  19.376  0.00  0.00    +0.000 C 
ATOM     17  N   UNL     1      -1.791  10.089  18.784  0.00  0.00    +0.000 N 
ATOM     18  H   UNL     1      -1.979   9.189  19.214  0.00  0.00    +0.000 HD
BRANCH  16  19
ATOM     19  C   UNL     1      -0.268  10.390  20.668  0.00  0.00    +0.000 A 
ATOM     20  C   UNL     1       0.739   9.405  20.654  0.00  0.00    +0.000 A 
ATOM     21 CL   UNL     1       1.537   8.872  19.212  0.00  0.00    +0.000 Cl
ATOM     22  C   UNL     1       1.196   8.832  21.850  0.00  0.00    +0.000 A 
ATOM     23  C   UNL     1       0.679   9.245  23.073  0.00  0.00    +0.000 A 
ATOM     24  C   UNL     1      -0.291  10.242  23.105  0.00  0.00    +0.000 A 
ATOM     25  C   UNL     1      -0.770  10.808  21.915  0.00  0.00    +0.000 A 
ATOM     26 CL   UNL     1      -2.007  12.007  22.100  0.00  0.00    +0.000 Cl
ENDBRANCH  16  19
ENDBRANCH   1  17
TORSDOF 2
ENDMDL
MODEL 2
REMARK VINA RESULT:      -6.9      5.844      9.907
REMARK  Name = 
REMARK  2 active torsions:
REMARK  status: ('A' for Active; 'I' for Inactive)
REMARK    1  A    between atoms: C_2  and  C_17
REMARK    2  A    between atoms: N_3  and  C_4
REMARK                            x       y       z     vdW  Elec       q    Type
REMARK                         _______ _______ _______ _____ _____    ______ ____
ROOT
ATOM      1  C   UNL     1       2.138   5.704  20.010  0.00  0.00    +0.000 A 
ATOM      2  C   UNL     1       1.693   4.715  20.871  0.00  0.00    +0.000 A 
ATOM      3  C   UNL     1       2.435   3.549  20.958  0.00  0.00    +0.000 A 
ATOM      4  N   UNL     1       3.564   3.306  20.251  0.00  0.00    +0.000 NA
ATOM      5  C   UNL     1       3.973   4.251  19.381  0.00  0.00    +0.000 A 
ATOM      6  N   UNL     1       5.119   3.976  18.647  0.00  0.00    +0.000 N 
ATOM      7  C   UNL     1       5.545   4.480  17.429  0.00  0.00    +0.000 A 
ATOM      8  N   UNL     1       4.752   5.309  16.726  0.00  0.00    +0.000 NA
ATOM      9  C   UNL     1       5.208   5.790  15.560  0.00  0.00    +0.000 A 
ATOM     10  C   UNL     1       6.453   5.499  15.070  0.00  0.00    +0.000 A 
ATOM     11  C   UNL     1       7.196   4.638  15.842  0.00  0.00    +0.000 A 
ATOM     12  N   UNL     1       6.762   4.107  17.004  0.00  0.00    +0.000 NA
ATOM     13  C   UNL     1       3.287   5.459  19.260  0.00  0.00    +0.000 A 
ATOM     14  H   UNL     1       5.577   3.116  18.900  0.00  0.00    +0.000 HD
ENDROOT
BRANCH   1  17
ATOM     15  O   UNL     1       2.115   8.049  21.792  0.00  0.00    +0.000 OA
ATOM     16  C   UNL     1       1.546   8.032  20.708  0.00  0.00    +0.000 C 
ATOM     17  N   UNL     1       1.518   6.962  19.836  0.00  0.00    +0.000 N 
ATOM     18  H   UNL     1       0.916   7.040  19.023  0.00  0.00    +0.000 HD
BRANCH  16  19
ATOM     19  C   UNL     1       0.787   9.246  20.286  0.00  0.00    +0.000 A 
ATOM     20  C   UNL     1       1.089   9.860  19.055  0.00  0.00    +0.000 A 
ATOM     21 CL   UNL     1       2.150   9.166  17.875  0.00  0.00    +0.000 Cl
ATOM     22  C   UNL     1       0.481  11.070  18.691  0.00  0.00    +0.000 A 
ATOM     23  C   UNL     1      -0.448  11.675  19.531  0.00  0.00    +0.000 A 
ATOM     24  C   UNL     1      -0.783  11.063  20.735  0.00  0.00    +0.000 A 
ATOM     25  C   UNL     1      -0.167   9.862  21.119  0.00  0.00    +0.000 A 
ATOM     26 CL   UNL     1      -0.646   9.235  22.661  0.00  0.00    +0.000 Cl
ENDBRANCH  16  19
ENDBRANCH   1  17
TORSDOF 2
ENDMDL
MODEL 3
REMARK VINA RESULT:      -6.9      5.738      9.969
REMARK  Name = 
REMARK  2 active torsions:
REMARK  status: ('A' for Active; 'I' for Inactive)
REMARK    1  A    between atoms: C_2  and  C_17
REMARK    2  A    between atoms: N_3  and  C_4
REMARK                            x       y       z     vdW  Elec       q    Type
REMARK                         _______ _______ _______ _____ _____    ______ ____
ROOT
ATOM      1  C   UNL     1       2.073   5.887  20.031  0.00  0.00    +0.000 A 
ATOM      2  C   UNL     1       1.590   4.908  20.883  0.00  0.00    +0.000 A 
ATOM      3  C   UNL     1       2.305   3.727  20.986  0.00  0.00    +0.000 A 
ATOM      4  N   UNL     1       3.443   3.460  20.302  0.00  0.00    +0.000 NA
ATOM      5  C   UNL     1       3.890   4.396  19.441  0.00  0.00    +0.000 A 
ATOM      6  N   UNL     1       5.044   4.096  18.731  0.00  0.00    +0.000 N 
ATOM      7  C   UNL     1       5.507   4.591  17.521  0.00  0.00    +0.000 A 
ATOM      8  N   UNL     1       4.745   5.436  16.802  0.00  0.00    +0.000 NA
ATOM      9  C   UNL     1       5.236   5.907  15.646  0.00  0.00    +0.000 A 
ATOM     10  C   UNL     1       6.484   5.589  15.181  0.00  0.00    +0.000 A 
ATOM     11  C   UNL     1       7.193   4.714  15.969  0.00  0.00    +0.000 A 
ATOM     12  N   UNL     1       6.724   4.192  17.122  0.00  0.00    +0.000 NA
ATOM     13  C   UNL     1       3.232   5.618  19.305  0.00  0.00    +0.000 A 
ATOM     14  H   UNL     1       5.479   3.227  18.992  0.00  0.00    +0.000 HD
ENDROOT
BRANCH   1  17
ATOM     15  O   UNL     1       1.974   8.199  21.854  0.00  0.00    +0.000 OA
ATOM     16  C   UNL     1       1.472   8.211  20.737  0.00  0.00    +0.000 C 
ATOM     17  N   UNL     1       1.484   7.158  19.844  0.00  0.00    +0.000 N 
ATOM     18  H   UNL     1       0.934   7.260  18.998  0.00  0.00    +0.000 HD
BRANCH  16  19
ATOM     19  C   UNL     1       0.759   9.445  20.294  0.00  0.00    +0.000 A 
ATOM     20  C   UNL     1      -0.224  10.014  21.127  0.00  0.00    +0.000 A 
ATOM     21 CL   UNL     1      -0.517   9.496  22.754  0.00  0.00    +0.000 Cl
ATOM     22  C   UNL     1      -0.997  11.097  20.684  0.00  0.00    +0.000 A 
ATOM     23  C   UNL     1      -0.790  11.644  19.422  0.00  0.00    +0.000 A 
ATOM     24  C   UNL     1       0.202  11.115  18.601  0.00  0.00    +0.000 A 
ATOM     25  C   UNL     1       0.968  10.019  19.025  0.00  0.00    +0.000 A 
ATOM     26 CL   UNL     1       2.135   9.437  17.886  0.00  0.00    +0.000 Cl
ENDBRANCH  16  19
ENDBRANCH   1  17
TORSDOF 2
ENDMDL
MODEL 4
REMARK VINA RESULT:      -6.9      9.296     12.039
REMARK  Name = 
REMARK  2 active torsions:
REMARK  status: ('A' for Active; 'I' for Inactive)
REMARK    1  A    between atoms: C_2  and  C_17
REMARK    2  A    between atoms: N_3  and  C_4
REMARK                            x       y       z     vdW  Elec       q    Type
REMARK                         _______ _______ _______ _____ _____    ______ ____
ROOT
ATOM      1  C   UNL     1       5.834   5.214  18.346  0.00  0.00    +0.000 A 
ATOM      2  C   UNL     1       6.727   5.784  19.236  0.00  0.00    +0.000 A 
ATOM      3  C   UNL     1       7.862   6.386  18.721  0.00  0.00    +0.000 A 
ATOM      4  N   UNL     1       8.164   6.448  17.402  0.00  0.00    +0.000 NA
ATOM      5  C   UNL     1       7.316   5.857  16.538  0.00  0.00    +0.000 A 
ATOM      6  N   UNL     1       7.651   5.909  15.192  0.00  0.00    +0.000 N 
ATOM      7  C   UNL     1       7.280   5.084  14.143  0.00  0.00    +0.000 A 
ATOM      8  N   UNL     1       6.549   3.978  14.379  0.00  0.00    +0.000 NA
ATOM      9  C   UNL     1       6.195   3.216  13.334  0.00  0.00    +0.000 A 
ATOM     10  C   UNL     1       6.517   3.527  12.040  0.00  0.00    +0.000 A 
ATOM     11  C   UNL     1       7.272   4.665  11.886  0.00  0.00    +0.000 A 
ATOM     12  N   UNL     1       7.677   5.442  12.912  0.00  0.00    +0.000 NA
ATOM     13  C   UNL     1       6.141   5.252  16.986  0.00  0.00    +0.000 A 
ATOM     14  H   UNL     1       8.469   6.460  14.990  0.00  0.00    +0.000 HD
ENDROOT
BRANCH   1  17
ATOM     15  O   UNL     1       3.068   6.026  17.741  0.00  0.00    +0.000 OA
ATOM     16  C   UNL     1       3.340   5.022  18.389  0.00  0.00    +0.000 C 
ATOM     17  N   UNL     1       4.615   4.597  18.707  0.00  0.00    +0.000 N 
ATOM     18  H   UNL     1       4.698   3.813  19.345  0.00  0.00    +0.000 HD
BRANCH  16  19
ATOM     19  C   UNL     1       2.217   4.192  18.915  0.00  0.00    +0.000 A 
ATOM     20  C   UNL     1       1.509   4.625  20.053  0.00  0.00    +0.000 A 
ATOM     21 CL   UNL     1       1.714   6.188  20.771  0.00  0.00    +0.000 Cl
ATOM     22  C   UNL     1       0.534   3.807  20.643  0.00  0.00    +0.000 A 
ATOM     23  C   UNL     1       0.233   2.563  20.099  0.00  0.00    +0.000 A 
ATOM     24  C   UNL     1       0.899   2.137  18.954  0.00  0.00    +0.000 A 
ATOM     25  C   UNL     1       1.890   2.937  18.367  0.00  0.00    +0.000 A 
ATOM     26 CL   UNL     1       2.667   2.264  16.973  0.00  0.00    +0.000 Cl
ENDBRANCH  16  19
ENDBRANCH   1  17
TORSDOF 2
ENDMDL
MODEL 5
REMARK VINA RESULT:      -6.7      5.599      9.883
REMARK  Name = 
REMARK  2 active torsions:
REMARK  status: ('A' for Active; 'I' for Inactive)
REMARK    1  A    between atoms: C_2  and  C_17
REMARK    2  A    between atoms: N_3  and  C_4
REMARK                            x       y       z     vdW  Elec       q    Type
REMARK                         _______ _______ _______ _____ _____    ______ ____
ROOT
ATOM      1  C   UNL     1       1.690   5.498  20.432  0.00  0.00    +0.000 A 
ATOM      2  C   UNL     1       0.990   4.335  20.705  0.00  0.00    +0.000 A 
ATOM      3  C   UNL     1       1.652   3.129  20.553  0.00  0.00    +0.000 A 
ATOM      4  N   UNL     1       2.938   3.007  20.146  0.00  0.00    +0.000 NA
ATOM      5  C   UNL     1       3.606   4.137  19.840  0.00  0.00    +0.000 A 
ATOM      6  N   UNL     1       4.916   3.993  19.403  0.00  0.00    +0.000 N 
ATOM      7  C   UNL     1       5.700   4.833  18.628  0.00  0.00    +0.000 A 
ATOM      8  N   UNL     1       5.170   5.950  18.094  0.00  0.00    +0.000 NA
ATOM      9  C   UNL     1       5.966   6.746  17.366  0.00  0.00    +0.000 A 
ATOM     10  C   UNL     1       7.296   6.489  17.166  0.00  0.00    +0.000 A 
ATOM     11  C   UNL     1       7.756   5.326  17.735  0.00  0.00    +0.000 A 
ATOM     12  N   UNL     1       6.982   4.482  18.448  0.00  0.00    +0.000 NA
ATOM     13  C   UNL     1       3.009   5.387  19.992  0.00  0.00    +0.000 A 
ATOM     14  H   UNL     1       5.262   3.049  19.433  0.00  0.00    +0.000 HD
ENDROOT
BRANCH   1  17
ATOM     15  O   UNL     1       2.448   7.979  19.037  0.00  0.00    +0.000 OA
ATOM     16  C   UNL     1       1.566   7.936  19.886  0.00  0.00    +0.000 C 
ATOM     17  N   UNL     1       1.173   6.805  20.574  0.00  0.00    +0.000 N 
ATOM     18  H   UNL     1       0.510   6.929  21.332  0.00  0.00    +0.000 HD
BRANCH  16  19
ATOM     19  C   UNL     1       0.864   9.204  20.244  0.00  0.00    +0.000 A 
ATOM     20  C   UNL     1       0.892   9.658  21.577  0.00  0.00    +0.000 A 
ATOM     21 CL   UNL     1       1.880   8.949  22.810  0.00  0.00    +0.000 Cl
ATOM     22  C   UNL     1       0.139  10.776  21.967  0.00  0.00    +0.000 A 
ATOM     23  C   UNL     1      -0.629  11.470  21.038  0.00  0.00    +0.000 A 
ATOM     24  C   UNL     1      -0.637  11.054  19.710  0.00  0.00    +0.000 A 
ATOM     25  C   UNL     1       0.095   9.926  19.312  0.00  0.00    +0.000 A 
ATOM     26 CL   UNL     1      -0.042   9.497  17.639  0.00  0.00    +0.000 Cl
ENDBRANCH  16  19
ENDBRANCH   1  17
TORSDOF 2
ENDMDL
MODEL 6
REMARK VINA RESULT:      -6.6      9.671     12.182
REMARK  Name = 
REMARK  2 active torsions:
REMARK  status: ('A' for Active; 'I' for Inactive)
REMARK    1  A    between atoms: C_2  and  C_17
REMARK    2  A    between atoms: N_3  and  C_4
REMARK                            x       y       z     vdW  Elec       q    Type
REMARK                         _______ _______ _______ _____ _____    ______ ____
ROOT
ATOM      1  C   UNL     1       5.747   5.356  18.195  0.00  0.00    +0.000 A 
ATOM      2  C   UNL     1       6.628   5.939  19.090  0.00  0.00    +0.000 A 
ATOM      3  C   UNL     1       7.784   6.509  18.584  0.00  0.00    +0.000 A 
ATOM      4  N   UNL     1       8.117   6.527  17.271  0.00  0.00    +0.000 NA
ATOM      5  C   UNL     1       7.280   5.923  16.405  0.00  0.00    +0.000 A 
ATOM      6  N   UNL     1       7.647   5.930  15.067  0.00  0.00    +0.000 N 
ATOM      7  C   UNL     1       7.288   5.080  14.033  0.00  0.00    +0.000 A 
ATOM      8  N   UNL     1       6.535   3.992  14.284  0.00  0.00    +0.000 NA
ATOM      9  C   UNL     1       6.193   3.204  13.255  0.00  0.00    +0.000 A 
ATOM     10  C   UNL     1       6.550   3.471  11.960  0.00  0.00    +0.000 A 
ATOM     11  C   UNL     1       7.325   4.593  11.791  0.00  0.00    +0.000 A 
ATOM     12  N   UNL     1       7.719   5.395  12.802  0.00  0.00    +0.000 NA
ATOM     13  C   UNL     1       6.087   5.349  16.843  0.00  0.00    +0.000 A 
ATOM     14  H   UNL     1       8.478   6.462  14.867  0.00  0.00    +0.000 HD
ENDROOT
BRANCH   1  17
ATOM     15  O   UNL     1       5.186   3.096  19.999  0.00  0.00    +0.000 OA
ATOM     16  C   UNL     1       4.306   3.708  19.405  0.00  0.00    +0.000 C 
ATOM     17  N   UNL     1       4.511   4.769  18.545  0.00  0.00    +0.000 N 
ATOM     18  H   UNL     1       3.706   5.112  18.031  0.00  0.00    +0.000 HD
BRANCH  16  19
ATOM     19  C   UNL     1       2.892   3.268  19.587  0.00  0.00    +0.000 A 
ATOM     20  C   UNL     1       2.433   2.116  18.920  0.00  0.00    +0.000 A 
ATOM     21 CL   UNL     1       3.472   1.032  18.056  0.00  0.00    +0.000 Cl
ATOM     22  C   UNL     1       1.080   1.750  18.971  0.00  0.00    +0.000 A 
ATOM     23  C   UNL     1       0.171   2.508  19.703  0.00  0.00    +0.000 A 
ATOM     24  C   UNL     1       0.616   3.629  20.397  0.00  0.00    +0.000 A 
ATOM     25  C   UNL     1       1.963   4.016  20.337  0.00  0.00    +0.000 A 
ATOM     26 CL   UNL     1       2.369   5.454  21.212  0.00  0.00    +0.000 Cl
ENDBRANCH  16  19
ENDBRANCH   1  17
TORSDOF 2
ENDMDL
MODEL 7
REMARK VINA RESULT:      -6.6      5.253      7.977
REMARK  Name = 
REMARK  2 active torsions:
REMARK  status: ('A' for Active; 'I' for Inactive)
REMARK    1  A    between atoms: C_2  and  C_17
REMARK    2  A    between atoms: N_3  and  C_4
REMARK                            x       y       z     vdW  Elec       q    Type
REMARK                         _______ _______ _______ _____ _____    ______ ____
ROOT
ATOM      1  C   UNL     1       0.236  11.679  21.500  0.00  0.00    +0.000 A 
ATOM      2  C   UNL     1      -0.717  11.590  22.500  0.00  0.00    +0.000 A 
ATOM      3  C   UNL     1      -0.939  10.351  23.076  0.00  0.00    +0.000 A 
ATOM      4  N   UNL     1      -0.293   9.215  22.722  0.00  0.00    +0.000 NA
ATOM      5  C   UNL     1       0.604   9.293  21.719  0.00  0.00    +0.000 A 
ATOM      6  N   UNL     1       1.241   8.115  21.352  0.00  0.00    +0.000 N 
ATOM      7  C   UNL     1       1.842   7.756  20.156  0.00  0.00    +0.000 A 
ATOM      8  N   UNL     1       1.775   8.578  19.093  0.00  0.00    +0.000 NA
ATOM      9  C   UNL     1       2.385   8.203  17.959  0.00  0.00    +0.000 A 
ATOM     10  C   UNL     1       3.095   7.037  17.845  0.00  0.00    +0.000 A 
ATOM     11  C   UNL     1       3.107   6.251  18.972  0.00  0.00    +0.000 A 
ATOM     12  N   UNL     1       2.479   6.576  20.121  0.00  0.00    +0.000 NA
ATOM     13  C   UNL     1       0.895  10.513  21.110  0.00  0.00    +0.000 A 
ATOM     14  H   UNL     1       1.018   7.324  21.934  0.00  0.00    +0.000 HD
ENDROOT
BRANCH   1  17
ATOM     15  O   UNL     1      -0.731  12.795  18.952  0.00  0.00    +0.000 OA
ATOM     16  C   UNL     1       0.114  13.351  19.643  0.00  0.00    +0.000 C 
ATOM     17  N   UNL     1       0.608  12.872  20.841  0.00  0.00    +0.000 N 
ATOM     18  H   UNL     1       1.387  13.372  21.255  0.00  0.00    +0.000 HD
BRANCH  16  19
ATOM     19  C   UNL     1       0.694  14.636  19.156  0.00  0.00    +0.000 A 
ATOM     20  C   UNL     1       1.973  14.639  18.566  0.00  0.00    +0.000 A 
ATOM     21 CL   UNL     1       2.845  13.198  18.163  0.00  0.00    +0.000 Cl
ATOM     22  C   UNL     1       2.595  15.846  18.214  0.00  0.00    +0.000 A 
ATOM     23  C   UNL     1       1.950  17.061  18.421  0.00  0.00    +0.000 A 
ATOM     24  C   UNL     1       0.671  17.071  18.970  0.00  0.00    +0.000 A 
ATOM     25  C   UNL     1       0.047  15.872  19.345  0.00  0.00    +0.000 A 
ATOM     26 CL   UNL     1      -1.524  16.037  20.056  0.00  0.00    +0.000 Cl
ENDBRANCH  16  19
ENDBRANCH   1  17
TORSDOF 2
ENDMDL
MODEL 8
REMARK VINA RESULT:      -6.6      5.292      8.208
REMARK  Name = 
REMARK  2 active torsions:
REMARK  status: ('A' for Active; 'I' for Inactive)
REMARK    1  A    between atoms: C_2  and  C_17
REMARK    2  A    between atoms: N_3  and  C_4
REMARK                            x       y       z     vdW  Elec       q    Type
REMARK                         _______ _______ _______ _____ _____    ______ ____
ROOT
ATOM      1  C   UNL     1       0.274  11.716  21.500  0.00  0.00    +0.000 A 
ATOM      2  C   UNL     1      -0.689  11.624  22.489  0.00  0.00    +0.000 A 
ATOM      3  C   UNL     1      -0.932  10.380  23.046  0.00  0.00    +0.000 A 
ATOM      4  N   UNL     1      -0.295   9.241  22.682  0.00  0.00    +0.000 NA
ATOM      5  C   UNL     1       0.612   9.323  21.689  0.00  0.00    +0.000 A 
ATOM      6  N   UNL     1       1.239   8.143  21.312  0.00  0.00    +0.000 N 
ATOM      7  C   UNL     1       1.847   7.793  20.117  0.00  0.00    +0.000 A 
ATOM      8  N   UNL     1       1.799   8.631  19.064  0.00  0.00    +0.000 NA
ATOM      9  C   UNL     1       2.416   8.264  17.931  0.00  0.00    +0.000 A 
ATOM     10  C   UNL     1       3.113   7.092  17.808  0.00  0.00    +0.000 A 
ATOM     11  C   UNL     1       3.105   6.290  18.923  0.00  0.00    +0.000 A 
ATOM     12  N   UNL     1       2.471   6.606  20.071  0.00  0.00    +0.000 NA
ATOM     13  C   UNL     1       0.923  10.548  21.100  0.00  0.00    +0.000 A 
ATOM     14  H   UNL     1       1.001   7.347  21.880  0.00  0.00    +0.000 HD
ENDROOT
BRANCH   1  17
ATOM     15  O   UNL     1      -0.632  12.862  18.942  0.00  0.00    +0.000 OA
ATOM     16  C   UNL     1       0.201  13.407  19.657  0.00  0.00    +0.000 C 
ATOM     17  N   UNL     1       0.666  12.914  20.861  0.00  0.00    +0.000 N 
ATOM     18  H   UNL     1       1.438  13.406  21.297  0.00  0.00    +0.000 HD
BRANCH  16  19
ATOM     19  C   UNL     1       0.798  14.694  19.196  0.00  0.00    +0.000 A 
ATOM     20  C   UNL     1       0.049  15.882  19.302  0.00  0.00    +0.000 A 
ATOM     21 CL   UNL     1      -1.462  15.991  20.141  0.00  0.00    +0.000 Cl
ATOM     22  C   UNL     1       0.534  17.083  18.763  0.00  0.00    +0.000 A 
ATOM     23  C   UNL     1       1.775  17.126  18.135  0.00  0.00    +0.000 A 
ATOM     24  C   UNL     1       2.542  15.967  18.055  0.00  0.00    +0.000 A 
ATOM     25  C   UNL     1       2.059  14.756  18.572  0.00  0.00    +0.000 A 
ATOM     26 CL   UNL     1       3.098  13.386  18.365  0.00  0.00    +0.000 Cl
ENDBRANCH  16  19
ENDBRANCH   1  17
TORSDOF 2
ENDMDL
MODEL 9
REMARK VINA RESULT:      -6.6      5.633      9.874
REMARK  Name = 
REMARK  2 active torsions:
REMARK  status: ('A' for Active; 'I' for Inactive)
REMARK    1  A    between atoms: C_2  and  C_17
REMARK    2  A    between atoms: N_3  and  C_4
REMARK                            x       y       z     vdW  Elec       q    Type
REMARK                         _______ _______ _______ _____ _____    ______ ____
ROOT
ATOM      1  C   UNL     1       1.698   5.490  20.401  0.00  0.00    +0.000 A 
ATOM      2  C   UNL     1       0.993   4.332  20.681  0.00  0.00    +0.000 A 
ATOM      3  C   UNL     1       1.653   3.123  20.549  0.00  0.00    +0.000 A 
ATOM      4  N   UNL     1       2.942   2.994  20.154  0.00  0.00    +0.000 NA
ATOM      5  C   UNL     1       3.615   4.118  19.840  0.00  0.00    +0.000 A 
ATOM      6  N   UNL     1       4.928   3.967  19.415  0.00  0.00    +0.000 N 
ATOM      7  C   UNL     1       5.720   4.797  18.637  0.00  0.00    +0.000 A 
ATOM      8  N   UNL     1       5.197   5.908  18.087  0.00  0.00    +0.000 NA
ATOM      9  C   UNL     1       6.001   6.694  17.356  0.00  0.00    +0.000 A 
ATOM     10  C   UNL     1       7.332   6.432  17.169  0.00  0.00    +0.000 A 
ATOM     11  C   UNL     1       7.784   5.275  17.755  0.00  0.00    +0.000 A 
ATOM     12  N   UNL     1       7.003   4.440  18.471  0.00  0.00    +0.000 NA
ATOM     13  C   UNL     1       3.019   5.372  19.974  0.00  0.00    +0.000 A 
ATOM     14  H   UNL     1       5.272   3.022  19.458  0.00  0.00    +0.000 HD
ENDROOT
BRANCH   1  17
ATOM     15  O   UNL     1       2.515   7.966  19.031  0.00  0.00    +0.000 OA
ATOM     16  C   UNL     1       1.604   7.929  19.849  0.00  0.00    +0.000 C 
ATOM     17  N   UNL     1       1.182   6.800  20.525  0.00  0.00    +0.000 N 
ATOM     18  H   UNL     1       0.494   6.928  21.258  0.00  0.00    +0.000 HD
BRANCH  16  19
ATOM     19  C   UNL     1       0.897   9.200  20.182  0.00  0.00    +0.000 A 
ATOM     20  C   UNL     1       0.247   9.919  19.160  0.00  0.00    +0.000 A 
ATOM     21 CL   UNL     1       0.024   9.311  17.554  0.00  0.00    +0.000 Cl
ATOM     22  C   UNL     1      -0.317  11.177  19.419  0.00  0.00    +0.000 A 
ATOM     23  C   UNL     1      -0.264  11.726  20.696  0.00  0.00    +0.000 A 
ATOM     24  C   UNL     1       0.344  11.011  21.724  0.00  0.00    +0.000 A 
ATOM     25  C   UNL     1       0.929   9.762  21.473  0.00  0.00    +0.000 A 
ATOM     26 CL   UNL     1       1.688   9.004  22.833  0.00  0.00    +0.000 Cl
ENDBRANCH  16  19
ENDBRANCH   1  17
TORSDOF 2
ENDMDL
