MODEL 1
REMARK VINA RESULT:      -6.8      0.000      0.000
REMARK  Name = 
REMARK  5 active torsions:
REMARK  status: ('A' for Active; 'I' for Inactive)
REMARK    1  A    between atoms: C_1  and  C_2
REMARK    2  A    between atoms: C_8  and  C_9
REMARK    3  A    between atoms: C_11  and  C_12
REMARK    4  A    between atoms: C_11  and  C_13
REMARK    5  A    between atoms: C_16  and  C_17
REMARK                            x       y       z     vdW  Elec       q    Type
REMARK                         _______ _______ _______ _____ _____    ______ ____
ROOT
ATOM      1  C   UNL     1       5.738   3.645  12.413  0.00  0.00    +0.000 C 
ATOM      2  C   UNL     1       6.138   4.043  13.813  0.00  0.00    +0.000 C 
ATOM      3  O   UNL     1       7.201   4.607  14.035  0.00  0.00    +0.000 OA
ATOM      4  N   UNL     1       5.167   3.736  14.744  0.00  0.00    +0.000 N 
ATOM      5  C   UNL     1       5.219   4.001  16.078  0.00  0.00    +0.000 C 
ATOM      6  N   UNL     1       6.194   4.515  16.745  0.00  0.00    +0.000 NA
ATOM      7  N   UNL     1       5.842   4.688  18.074  0.00  0.00    +0.000 N 
ATOM      8  C   UNL     1       6.761   5.180  18.989  0.00  0.00    +0.000 C 
ATOM      9  C   UNL     1       8.168   5.430  18.495  0.00  0.00    +0.000 C 
ATOM     10  O   UNL     1       6.487   5.389  20.173  0.00  0.00    +0.000 OA
ATOM     11  C   UNL     1       4.428   4.448  18.418  0.00  0.00    +0.000 C 
ATOM     12  C   UNL     1       4.237   3.523  19.621  0.00  0.00    +0.000 C 
ATOM     13  S   UNL     1       3.769   3.568  16.920  0.00  0.00    +0.000 S 
ATOM     14  H   UNL     1       4.300   3.326  14.424  0.00  0.00    +0.000 HD
ENDROOT
BRANCH  11  15
ATOM     15  C   UNL     1       3.687   5.756  18.519  0.00  0.00    +0.000 A 
ATOM     16  C   UNL     1       3.466   6.792  17.625  0.00  0.00    +0.000 A 
ATOM     17  C   UNL     1       2.608   7.712  18.269  0.00  0.00    +0.000 A 
ATOM     18  C   UNL     1       2.360   7.199  19.523  0.00  0.00    +0.000 A 
ATOM     19  C   UNL     1       1.562   7.669  20.671  0.00  0.00    +0.000 C 
ATOM     20  O   UNL     1       3.004   6.009  19.679  0.00  0.00    +0.000 OA
ENDBRANCH  11  15
TORSDOF 1
ENDMDL
MODEL 2
REMARK VINA RESULT:      -6.4      1.156      1.380
REMARK  Name = 
REMARK  5 active torsions:
REMARK  status: ('A' for Active; 'I' for Inactive)
REMARK    1  A    between atoms: C_1  and  C_2
REMARK    2  A    between atoms: C_8  and  C_9
REMARK    3  A    between atoms: C_11  and  C_12
REMARK    4  A    between atoms: C_11  and  C_13
REMARK    5  A    between atoms: C_16  and  C_17
REMARK                            x       y       z     vdW  Elec       q    Type
REMARK                         _______ _______ _______ _____ _____    ______ ____
ROOT
ATOM      1  C   UNL     1       6.918   4.179  12.207  0.00  0.00    +0.000 C 
ATOM      2  C   UNL     1       7.003   4.578  13.659  0.00  0.00    +0.000 C 
ATOM      3  O   UNL     1       7.785   5.439  14.039  0.00  0.00    +0.000 OA
ATOM      4  N   UNL     1       6.090   3.902  14.443  0.00  0.00    +0.000 N 
ATOM      5  C   UNL     1       5.899   4.068  15.781  0.00  0.00    +0.000 C 
ATOM      6  N   UNL     1       6.567   4.819  16.588  0.00  0.00    +0.000 NA
ATOM      7  N   UNL     1       6.028   4.767  17.864  0.00  0.00    +0.000 N 
ATOM      8  C   UNL     1       6.623   5.461  18.908  0.00  0.00    +0.000 C 
ATOM      9  C   UNL     1       7.912   6.192  18.613  0.00  0.00    +0.000 C 
ATOM     10  O   UNL     1       6.162   5.479  20.052  0.00  0.00    +0.000 OA
ATOM     11  C   UNL     1       4.746   4.055  18.010  0.00  0.00    +0.000 C 
ATOM     12  C   UNL     1       4.738   3.030  19.145  0.00  0.00    +0.000 C 
ATOM     13  S   UNL     1       4.591   3.124  16.409  0.00  0.00    +0.000 S 
ATOM     14  H   UNL     1       5.451   3.258  13.999  0.00  0.00    +0.000 HD
ENDROOT
BRANCH  11  15
ATOM     15  C   UNL     1       3.606   5.039  18.058  0.00  0.00    +0.000 A 
ATOM     16  C   UNL     1       2.267   4.921  18.395  0.00  0.00    +0.000 A 
ATOM     17  C   UNL     1       1.715   6.222  18.342  0.00  0.00    +0.000 A 
ATOM     18  C   UNL     1       2.740   7.061  17.964  0.00  0.00    +0.000 A 
ATOM     19  C   UNL     1       2.823   8.514  17.724  0.00  0.00    +0.000 C 
ATOM     20  O   UNL     1       3.891   6.353  17.797  0.00  0.00    +0.000 OA
ENDBRANCH  11  15
TORSDOF 1
ENDMDL
MODEL 3
REMARK VINA RESULT:      -6.3      2.342      5.386
REMARK  Name = 
REMARK  5 active torsions:
REMARK  status: ('A' for Active; 'I' for Inactive)
REMARK    1  A    between atoms: C_1  and  C_2
REMARK    2  A    between atoms: C_8  and  C_9
REMARK    3  A    between atoms: C_11  and  C_12
REMARK    4  A    between atoms: C_11  and  C_13
REMARK    5  A    between atoms: C_16  and  C_17
REMARK                            x       y       z     vdW  Elec       q    Type
REMARK                         _______ _______ _______ _____ _____    ______ ____
ROOT
ATOM      1  C   UNL     1       1.836   2.256  20.722  0.00  0.00    +0.000 C 
ATOM      2  C   UNL     1       3.131   2.973  20.427  0.00  0.00    +0.000 C 
ATOM      3  O   UNL     1       4.156   2.716  21.045  0.00  0.00    +0.000 OA
ATOM      4  N   UNL     1       3.007   3.874  19.390  0.00  0.00    +0.000 N 
ATOM      5  C   UNL     1       4.002   4.644  18.871  0.00  0.00    +0.000 C 
ATOM      6  N   UNL     1       5.221   4.744  19.279  0.00  0.00    +0.000 NA
ATOM      7  N   UNL     1       5.949   5.583  18.450  0.00  0.00    +0.000 N 
ATOM      8  C   UNL     1       7.275   5.876  18.732  0.00  0.00    +0.000 C 
ATOM      9  C   UNL     1       7.853   5.317  20.012  0.00  0.00    +0.000 C 
ATOM     10  O   UNL     1       7.977   6.584  18.007  0.00  0.00    +0.000 OA
ATOM     11  C   UNL     1       5.282   6.027  17.212  0.00  0.00    +0.000 C 
ATOM     12  C   UNL     1       5.351   7.538  16.985  0.00  0.00    +0.000 C 
ATOM     13  S   UNL     1       3.501   5.581  17.503  0.00  0.00    +0.000 S 
ATOM     14  H   UNL     1       2.118   3.950  18.916  0.00  0.00    +0.000 HD
ENDROOT
BRANCH  11  15
ATOM     15  C   UNL     1       5.754   5.204  16.042  0.00  0.00    +0.000 A 
ATOM     16  C   UNL     1       5.411   3.947  15.567  0.00  0.00    +0.000 A 
ATOM     17  C   UNL     1       6.130   3.754  14.365  0.00  0.00    +0.000 A 
ATOM     18  C   UNL     1       6.881   4.892  14.176  0.00  0.00    +0.000 A 
ATOM     19  C   UNL     1       7.836   5.314  13.133  0.00  0.00    +0.000 C 
ATOM     20  O   UNL     1       6.653   5.779  15.183  0.00  0.00    +0.000 OA
ENDBRANCH  11  15
TORSDOF 1
ENDMDL
MODEL 4
REMARK VINA RESULT:      -6.3      2.414      5.570
REMARK  Name = 
REMARK  5 active torsions:
REMARK  status: ('A' for Active; 'I' for Inactive)
REMARK    1  A    between atoms: C_1  and  C_2
REMARK    2  A    between atoms: C_8  and  C_9
REMARK    3  A    between atoms: C_11  and  C_12
REMARK    4  A    between atoms: C_11  and  C_13
REMARK    5  A    between atoms: C_16  and  C_17
REMARK                            x       y       z     vdW  Elec       q    Type
REMARK                         _______ _______ _______ _____ _____    ______ ____
ROOT
ATOM      1  C   UNL     1       1.894   2.333  21.836  0.00  0.00    +0.000 C 
ATOM      2  C   UNL     1       2.084   3.535  20.944  0.00  0.00    +0.000 C 
ATOM      3  O   UNL     1       1.488   4.584  21.153  0.00  0.00    +0.000 OA
ATOM      4  N   UNL     1       3.006   3.306  19.943  0.00  0.00    +0.000 N 
ATOM      5  C   UNL     1       3.416   4.204  19.006  0.00  0.00    +0.000 C 
ATOM      6  N   UNL     1       2.984   5.404  18.817  0.00  0.00    +0.000 NA
ATOM      7  N   UNL     1       3.696   6.028  17.805  0.00  0.00    +0.000 N 
ATOM      8  C   UNL     1       3.364   7.311  17.397  0.00  0.00    +0.000 C 
ATOM      9  C   UNL     1       2.153   7.952  18.036  0.00  0.00    +0.000 C 
ATOM     10  O   UNL     1       3.989   7.925  16.530  0.00  0.00    +0.000 OA
ATOM     11  C   UNL     1       4.880   5.312  17.295  0.00  0.00    +0.000 C 
ATOM     12  C   UNL     1       4.922   5.204  15.769  0.00  0.00    +0.000 C 
ATOM     13  S   UNL     1       4.667   3.596  17.975  0.00  0.00    +0.000 S 
ATOM     14  H   UNL     1       3.479   2.414  19.914  0.00  0.00    +0.000 HD
ENDROOT
BRANCH  11  15
ATOM     15  C   UNL     1       6.135   5.875  17.909  0.00  0.00    +0.000 A 
ATOM     16  C   UNL     1       7.086   5.351  18.771  0.00  0.00    +0.000 A 
ATOM     17  C   UNL     1       8.093   6.332  18.915  0.00  0.00    +0.000 A 
ATOM     18  C   UNL     1       7.701   7.405  18.147  0.00  0.00    +0.000 A 
ATOM     19  C   UNL     1       8.295   8.728  17.876  0.00  0.00    +0.000 C 
ATOM     20  O   UNL     1       6.519   7.133  17.528  0.00  0.00    +0.000 OA
ENDBRANCH  11  15
TORSDOF 1
ENDMDL
MODEL 5
REMARK VINA RESULT:      -6.2      2.488      4.805
REMARK  Name = 
REMARK  5 active torsions:
REMARK  status: ('A' for Active; 'I' for Inactive)
REMARK    1  A    between atoms: C_1  and  C_2
REMARK    2  A    between atoms: C_8  and  C_9
REMARK    3  A    between atoms: C_11  and  C_12
REMARK    4  A    between atoms: C_11  and  C_13
REMARK    5  A    between atoms: C_16  and  C_17
REMARK                            x       y       z     vdW  Elec       q    Type
REMARK                         _______ _______ _______ _____ _____    ______ ____
ROOT
ATOM      1  C   UNL     1       1.033   3.559  19.268  0.00  0.00    +0.000 C 
ATOM      2  C   UNL     1       2.132   3.696  18.242  0.00  0.00    +0.000 C 
ATOM      3  O   UNL     1       1.901   3.599  17.044  0.00  0.00    +0.000 OA
ATOM      4  N   UNL     1       3.354   3.975  18.818  0.00  0.00    +0.000 N 
ATOM      5  C   UNL     1       4.525   4.188  18.156  0.00  0.00    +0.000 C 
ATOM      6  N   UNL     1       4.745   4.102  16.889  0.00  0.00    +0.000 NA
ATOM      7  N   UNL     1       6.052   4.456  16.594  0.00  0.00    +0.000 N 
ATOM      8  C   UNL     1       6.524   4.385  15.291  0.00  0.00    +0.000 C 
ATOM      9  C   UNL     1       5.588   3.828  14.242  0.00  0.00    +0.000 C 
ATOM     10  O   UNL     1       7.664   4.725  14.969  0.00  0.00    +0.000 OA
ATOM     11  C   UNL     1       6.848   5.023  17.698  0.00  0.00    +0.000 C 
ATOM     12  C   UNL     1       8.217   4.364  17.870  0.00  0.00    +0.000 C 
ATOM     13  S   UNL     1       5.835   4.618  19.203  0.00  0.00    +0.000 S 
ATOM     14  H   UNL     1       3.404   4.094  19.820  0.00  0.00    +0.000 HD
ENDROOT
BRANCH  11  15
ATOM     15  C   UNL     1       6.893   6.524  17.591  0.00  0.00    +0.000 A 
ATOM     16  C   UNL     1       6.001   7.467  17.103  0.00  0.00    +0.000 A 
ATOM     17  C   UNL     1       6.565   8.737  17.364  0.00  0.00    +0.000 A 
ATOM     18  C   UNL     1       7.772   8.505  17.984  0.00  0.00    +0.000 A 
ATOM     19  C   UNL     1       8.834   9.390  18.499  0.00  0.00    +0.000 C 
ATOM     20  O   UNL     1       7.975   7.166  18.132  0.00  0.00    +0.000 OA
ENDBRANCH  11  15
TORSDOF 1
ENDMDL
MODEL 6
REMARK VINA RESULT:      -6.1      2.574      4.984
REMARK  Name = 
REMARK  5 active torsions:
REMARK  status: ('A' for Active; 'I' for Inactive)
REMARK    1  A    between atoms: C_1  and  C_2
REMARK    2  A    between atoms: C_8  and  C_9
REMARK    3  A    between atoms: C_11  and  C_12
REMARK    4  A    between atoms: C_11  and  C_13
REMARK    5  A    between atoms: C_16  and  C_17
REMARK                            x       y       z     vdW  Elec       q    Type
REMARK                         _______ _______ _______ _____ _____    ______ ____
ROOT
ATOM      1  C   UNL     1       3.954   0.574  19.007  0.00  0.00    +0.000 C 
ATOM      2  C   UNL     1       3.681   2.054  18.892  0.00  0.00    +0.000 C 
ATOM      3  O   UNL     1       2.910   2.621  19.654  0.00  0.00    +0.000 OA
ATOM      4  N   UNL     1       4.420   2.646  17.888  0.00  0.00    +0.000 N 
ATOM      5  C   UNL     1       4.420   3.968  17.562  0.00  0.00    +0.000 C 
ATOM      6  N   UNL     1       3.692   4.906  18.063  0.00  0.00    +0.000 NA
ATOM      7  N   UNL     1       4.029   6.134  17.515  0.00  0.00    +0.000 N 
ATOM      8  C   UNL     1       3.334   7.280  17.872  0.00  0.00    +0.000 C 
ATOM      9  C   UNL     1       2.154   7.116  18.803  0.00  0.00    +0.000 C 
ATOM     10  O   UNL     1       3.619   8.401  17.444  0.00  0.00    +0.000 OA
ATOM     11  C   UNL     1       5.225   6.165  16.653  0.00  0.00    +0.000 C 
ATOM     12  C   UNL     1       4.995   6.854  15.307  0.00  0.00    +0.000 C 
ATOM     13  S   UNL     1       5.554   4.367  16.316  0.00  0.00    +0.000 S 
ATOM     14  H   UNL     1       5.073   2.079  17.366  0.00  0.00    +0.000 HD
ENDROOT
BRANCH  11  15
ATOM     15  C   UNL     1       6.408   6.690  17.423  0.00  0.00    +0.000 A 
ATOM     16  C   UNL     1       7.306   6.102  18.299  0.00  0.00    +0.000 A 
ATOM     17  C   UNL     1       8.266   7.087  18.626  0.00  0.00    +0.000 A 
ATOM     18  C   UNL     1       7.900   8.225  17.943  0.00  0.00    +0.000 A 
ATOM     19  C   UNL     1       8.469   9.584  17.859  0.00  0.00    +0.000 C 
ATOM     20  O   UNL     1       6.779   7.991  17.205  0.00  0.00    +0.000 OA
ENDBRANCH  11  15
TORSDOF 1
ENDMDL
MODEL 7
REMARK VINA RESULT:      -5.9      7.796     10.343
REMARK  Name = 
REMARK  5 active torsions:
REMARK  status: ('A' for Active; 'I' for Inactive)
REMARK    1  A    between atoms: C_1  and  C_2
REMARK    2  A    between atoms: C_8  and  C_9
REMARK    3  A    between atoms: C_11  and  C_12
REMARK    4  A    between atoms: C_11  and  C_13
REMARK    5  A    between atoms: C_16  and  C_17
REMARK                            x       y       z     vdW  Elec       q    Type
REMARK                         _______ _______ _______ _____ _____    ______ ____
ROOT
ATOM      1  C   UNL     1      -2.914  10.389  15.130  0.00  0.00    +0.000 C 
ATOM      2  C   UNL     1      -3.201  10.879  16.528  0.00  0.00    +0.000 C 
ATOM      3  O   UNL     1      -4.323  10.803  17.013  0.00  0.00    +0.000 OA
ATOM      4  N   UNL     1      -2.071  11.357  17.159  0.00  0.00    +0.000 N 
ATOM      5  C   UNL     1      -2.000  11.833  18.433  0.00  0.00    +0.000 C 
ATOM      6  N   UNL     1      -2.967  12.003  19.268  0.00  0.00    +0.000 NA
ATOM      7  N   UNL     1      -2.486  12.448  20.490  0.00  0.00    +0.000 N 
ATOM      8  C   UNL     1      -3.360  12.748  21.524  0.00  0.00    +0.000 C 
ATOM      9  C   UNL     1      -4.841  12.651  21.234  0.00  0.00    +0.000 C 
ATOM     10  O   UNL     1      -2.983  13.109  22.641  0.00  0.00    +0.000 OA
ATOM     11  C   UNL     1      -1.021  12.457  20.658  0.00  0.00    +0.000 C 
ATOM     12  C   UNL     1      -0.472  13.781  21.192  0.00  0.00    +0.000 C 
ATOM     13  S   UNL     1      -0.392  12.246  18.922  0.00  0.00    +0.000 S 
ATOM     14  H   UNL     1      -1.186  11.307  16.673  0.00  0.00    +0.000 HD
ENDROOT
BRANCH  11  15
ATOM     15  C   UNL     1      -0.578  11.246  21.435  0.00  0.00    +0.000 A 
ATOM     16  C   UNL     1      -0.792  10.826  22.739  0.00  0.00    +0.000 A 
ATOM     17  C   UNL     1      -0.200   9.548  22.860  0.00  0.00    +0.000 A 
ATOM     18  C   UNL     1       0.353   9.260  21.633  0.00  0.00    +0.000 A 
ATOM     19  C   UNL     1       1.108   8.106  21.107  0.00  0.00    +0.000 C 
ATOM     20  O   UNL     1       0.121  10.280  20.761  0.00  0.00    +0.000 OA
ENDBRANCH  11  15
TORSDOF 1
ENDMDL
MODEL 8
REMARK VINA RESULT:      -5.8      2.844      3.874
REMARK  Name = 
REMARK  5 active torsions:
REMARK  status: ('A' for Active; 'I' for Inactive)
REMARK    1  A    between atoms: C_1  and  C_2
REMARK    2  A    between atoms: C_8  and  C_9
REMARK    3  A    between atoms: C_11  and  C_12
REMARK    4  A    between atoms: C_11  and  C_13
REMARK    5  A    between atoms: C_16  and  C_17
REMARK                            x       y       z     vdW  Elec       q    Type
REMARK                         _______ _______ _______ _____ _____    ______ ____
ROOT
ATOM      1  C   UNL     1       8.478   7.321  18.564  0.00  0.00    +0.000 C 
ATOM      2  C   UNL     1       7.628   6.128  18.924  0.00  0.00    +0.000 C 
ATOM      3  O   UNL     1       7.978   5.333  19.786  0.00  0.00    +0.000 OA
ATOM      4  N   UNL     1       6.446   6.092  18.212  0.00  0.00    +0.000 N 
ATOM      5  C   UNL     1       5.459   5.163  18.337  0.00  0.00    +0.000 C 
ATOM      6  N   UNL     1       5.456   4.107  19.076  0.00  0.00    +0.000 NA
ATOM      7  N   UNL     1       4.243   3.445  18.980  0.00  0.00    +0.000 N 
ATOM      8  C   UNL     1       4.036   2.250  19.653  0.00  0.00    +0.000 C 
ATOM      9  C   UNL     1       5.207   1.668  20.413  0.00  0.00    +0.000 C 
ATOM     10  O   UNL     1       2.964   1.642  19.633  0.00  0.00    +0.000 OA
ATOM     11  C   UNL     1       3.170   4.138  18.244  0.00  0.00    +0.000 C 
ATOM     12  C   UNL     1       2.487   3.268  17.187  0.00  0.00    +0.000 C 
ATOM     13  S   UNL     1       4.073   5.498  17.356  0.00  0.00    +0.000 S 
ATOM     14  H   UNL     1       6.242   6.846  17.570  0.00  0.00    +0.000 HD
ENDROOT
BRANCH  11  15
ATOM     15  C   UNL     1       2.220   4.800  19.207  0.00  0.00    +0.000 A 
ATOM     16  C   UNL     1       1.171   4.326  19.980  0.00  0.00    +0.000 A 
ATOM     17  C   UNL     1       0.716   5.411  20.763  0.00  0.00    +0.000 A 
ATOM     18  C   UNL     1       1.498   6.491  20.419  0.00  0.00    +0.000 A 
ATOM     19  C   UNL     1       1.531   7.899  20.858  0.00  0.00    +0.000 C 
ATOM     20  O   UNL     1       2.417   6.127  19.483  0.00  0.00    +0.000 OA
ENDBRANCH  11  15
TORSDOF 1
ENDMDL
MODEL 9
REMARK VINA RESULT:      -5.6      8.895     11.467
REMARK  Name = 
REMARK  5 active torsions:
REMARK  status: ('A' for Active; 'I' for Inactive)
REMARK    1  A    between atoms: C_1  and  C_2
REMARK    2  A    between atoms: C_8  and  C_9
REMARK    3  A    between atoms: C_11  and  C_12
REMARK    4  A    between atoms: C_11  and  C_13
REMARK    5  A    between atoms: C_16  and  C_17
REMARK                            x       y       z     vdW  Elec       q    Type
REMARK                         _______ _______ _______ _____ _____    ______ ____
ROOT
ATOM      1  C   UNL     1      -5.700  13.818  23.876  0.00  0.00    +0.000 C 
ATOM      2  C   UNL     1      -4.492  12.962  23.583  0.00  0.00    +0.000 C 
ATOM      3  O   UNL     1      -4.277  11.930  24.205  0.00  0.00    +0.000 OA
ATOM      4  N   UNL     1      -3.735  13.460  22.543  0.00  0.00    +0.000 N 
ATOM      5  C   UNL     1      -2.610  12.896  22.024  0.00  0.00    +0.000 C 
ATOM      6  N   UNL     1      -1.990  11.844  22.436  0.00  0.00    +0.000 NA
ATOM      7  N   UNL     1      -0.919  11.549  21.607  0.00  0.00    +0.000 N 
ATOM      8  C   UNL     1      -0.079  10.484  21.893  0.00  0.00    +0.000 C 
ATOM      9  C   UNL     1      -0.329   9.726  23.177  0.00  0.00    +0.000 C 
ATOM     10  O   UNL     1       0.863  10.156  21.168  0.00  0.00    +0.000 OA
ATOM     11  C   UNL     1      -0.811  12.337  20.366  0.00  0.00    +0.000 C 
ATOM     12  C   UNL     1       0.580  12.931  20.134  0.00  0.00    +0.000 C 
ATOM     13  S   UNL     1      -1.986  13.748  20.653  0.00  0.00    +0.000 S 
ATOM     14  H   UNL     1      -4.054  14.291  22.065  0.00  0.00    +0.000 HD
ENDROOT
BRANCH  11  15
ATOM     15  C   UNL     1      -1.348  11.549  19.200  0.00  0.00    +0.000 A 
ATOM     16  C   UNL     1      -0.875  10.451  18.500  0.00  0.00    +0.000 A 
ATOM     17  C   UNL     1      -1.875  10.099  17.564  0.00  0.00    +0.000 A 
ATOM     18  C   UNL     1      -2.898  11.005  17.733  0.00  0.00    +0.000 A 
ATOM     19  C   UNL     1      -4.205  11.192  17.074  0.00  0.00    +0.000 C 
ATOM     20  O   UNL     1      -2.590  11.883  18.727  0.00  0.00    +0.000 OA
ENDBRANCH  11  15
TORSDOF 1
ENDMDL
