MODEL 1
REMARK VINA RESULT:      -7.4      0.000      0.000
REMARK  Name = 
REMARK  6 active torsions:
REMARK  status: ('A' for Active; 'I' for Inactive)
REMARK    1  A    between atoms: C_1  and  C_2
REMARK    2  A    between atoms: C_2  and  C_3
REMARK    3  A    between atoms: C_9  and  C_10
REMARK    4  A    between atoms: C_10  and  O_11
REMARK    5  A    between atoms: O_11  and  C_12
REMARK    6  A    between atoms: C_12  and  C_14
REMARK                            x       y       z     vdW  Elec       q    Type
REMARK                         _______ _______ _______ _____ _____    ______ ____
ROOT
ATOM      1  C   UNL     1       6.607   4.535  14.022  0.00  0.00    +0.000 A 
ATOM      2  N   UNL     1       7.219   5.422  14.739  0.00  0.00    +0.000 NA
ATOM      3  N   UNL     1       6.502   5.625  15.896  0.00  0.00    +0.000 N 
ATOM      4  C   UNL     1       6.923   6.504  16.872  0.00  0.00    +0.000 A 
ATOM      5  O   UNL     1       7.944   7.185  16.855  0.00  0.00    +0.000 OA
ATOM      6  C   UNL     1       6.017   6.570  18.038  0.00  0.00    +0.000 A 
ATOM      7  C   UNL     1       4.919   5.794  18.078  0.00  0.00    +0.000 A 
ATOM      8  N   UNL     1       4.574   4.907  17.073  0.00  0.00    +0.000 NA
ATOM      9  C   UNL     1       5.366   4.880  16.056  0.00  0.00    +0.000 A 
ATOM     10  S   UNL     1       5.131   3.861  14.672  0.00  0.00    +0.000 S 
ENDROOT
BRANCH   1  12
ATOM     11  C   UNL     1       6.103   3.143  12.038  0.00  0.00    +0.000 C 
ATOM     12  C   UNL     1       7.126   4.044  12.706  0.00  0.00    +0.000 C 
ENDBRANCH   1  12
BRANCH   7  13
ATOM     13  C   UNL     1       3.964   5.860  19.260  0.00  0.00    +0.000 C 
BRANCH  13  14
ATOM     14  O   UNL     1       2.674   5.339  18.897  0.00  0.00    +0.000 OA
BRANCH  14  15
ATOM     15  C   UNL     1       1.918   4.914  19.936  0.00  0.00    +0.000 C 
ATOM     16  O   UNL     1       1.497   5.644  20.829  0.00  0.00    +0.000 OA
BRANCH  15  17
ATOM     17  C   UNL     1       1.669   3.412  19.914  0.00  0.00    +0.000 C 
ATOM     18  C   UNL     1       1.311   2.821  18.540  0.00  0.00    +0.000 C 
ATOM     19  C   UNL     1       2.477   2.264  17.721  0.00  0.00    +0.000 C 
ATOM     20  C   UNL     1       3.477   1.476  18.555  0.00  0.00    +0.000 C 
ATOM     21  C   UNL     1       3.957   2.303  19.739  0.00  0.00    +0.000 C 
ATOM     22  C   UNL     1       2.786   2.662  20.645  0.00  0.00    +0.000 C 
ENDBRANCH  15  17
ENDBRANCH  14  15
ENDBRANCH  13  14
ENDBRANCH   7  13
TORSDOF 5
ENDMDL
MODEL 2
REMARK VINA RESULT:      -7.3      4.310      6.718
REMARK  Name = 
REMARK  6 active torsions:
REMARK  status: ('A' for Active; 'I' for Inactive)
REMARK    1  A    between atoms: C_1  and  C_2
REMARK    2  A    between atoms: C_2  and  C_3
REMARK    3  A    between atoms: C_9  and  C_10
REMARK    4  A    between atoms: C_10  and  O_11
REMARK    5  A    between atoms: O_11  and  C_12
REMARK    6  A    between atoms: C_12  and  C_14
REMARK                            x       y       z     vdW  Elec       q    Type
REMARK                         _______ _______ _______ _____ _____    ______ ____
ROOT
ATOM      1  C   UNL     1       0.114   9.891  20.892  0.00  0.00    +0.000 A 
ATOM      2  N   UNL     1       0.608  10.162  19.727  0.00  0.00    +0.000 NA
ATOM      3  N   UNL     1       1.418   9.120  19.337  0.00  0.00    +0.000 N 
ATOM      4  C   UNL     1       2.067   9.114  18.121  0.00  0.00    +0.000 A 
ATOM      5  O   UNL     1       2.013   9.984  17.256  0.00  0.00    +0.000 OA
ATOM      6  C   UNL     1       2.880   7.901  17.890  0.00  0.00    +0.000 A 
ATOM      7  C   UNL     1       2.908   6.928  18.818  0.00  0.00    +0.000 A 
ATOM      8  N   UNL     1       2.203   6.986  20.007  0.00  0.00    +0.000 NA
ATOM      9  C   UNL     1       1.517   8.061  20.198  0.00  0.00    +0.000 A 
ATOM     10  S   UNL     1       0.566   8.365  21.617  0.00  0.00    +0.000 S 
ENDROOT
BRANCH   1  12
ATOM     11  C   UNL     1      -0.810  10.518  23.102  0.00  0.00    +0.000 C 
ATOM     12  C   UNL     1      -0.841  10.794  21.609  0.00  0.00    +0.000 C 
ENDBRANCH   1  12
BRANCH   7  13
ATOM     13  C   UNL     1       3.752   5.680  18.608  0.00  0.00    +0.000 C 
BRANCH  13  14
ATOM     14  O   UNL     1       3.934   4.980  19.851  0.00  0.00    +0.000 OA
BRANCH  14  15
ATOM     15  C   UNL     1       4.458   3.737  19.732  0.00  0.00    +0.000 C 
ATOM     16  O   UNL     1       5.596   3.500  19.338  0.00  0.00    +0.000 OA
BRANCH  15  17
ATOM     17  C   UNL     1       3.469   2.639  20.104  0.00  0.00    +0.000 C 
ATOM     18  C   UNL     1       2.355   3.055  21.079  0.00  0.00    +0.000 C 
ATOM     19  C   UNL     1       1.039   3.510  20.444  0.00  0.00    +0.000 C 
ATOM     20  C   UNL     1       0.616   2.655  19.258  0.00  0.00    +0.000 C 
ATOM     21  C   UNL     1       1.738   2.563  18.236  0.00  0.00    +0.000 C 
ATOM     22  C   UNL     1       2.968   1.910  18.855  0.00  0.00    +0.000 C 
ENDBRANCH  15  17
ENDBRANCH  14  15
ENDBRANCH  13  14
ENDBRANCH   7  13
TORSDOF 5
ENDMDL
MODEL 3
REMARK VINA RESULT:      -7.3      2.467      4.075
REMARK  Name = 
REMARK  6 active torsions:
REMARK  status: ('A' for Active; 'I' for Inactive)
REMARK    1  A    between atoms: C_1  and  C_2
REMARK    2  A    between atoms: C_2  and  C_3
REMARK    3  A    between atoms: C_9  and  C_10
REMARK    4  A    between atoms: C_10  and  O_11
REMARK    5  A    between atoms: O_11  and  C_12
REMARK    6  A    between atoms: C_12  and  C_14
REMARK                            x       y       z     vdW  Elec       q    Type
REMARK                         _______ _______ _______ _____ _____    ______ ____
ROOT
ATOM      1  C   UNL     1       7.701   6.877  18.060  0.00  0.00    +0.000 A 
ATOM      2  N   UNL     1       7.326   6.673  16.838  0.00  0.00    +0.000 NA
ATOM      3  N   UNL     1       6.498   5.574  16.808  0.00  0.00    +0.000 N 
ATOM      4  C   UNL     1       5.919   5.126  15.640  0.00  0.00    +0.000 A 
ATOM      5  O   UNL     1       6.045   5.620  14.522  0.00  0.00    +0.000 OA
ATOM      6  C   UNL     1       5.058   3.939  15.824  0.00  0.00    +0.000 A 
ATOM      7  C   UNL     1       4.886   3.422  17.053  0.00  0.00    +0.000 A 
ATOM      8  N   UNL     1       5.474   3.945  18.191  0.00  0.00    +0.000 NA
ATOM      9  C   UNL     1       6.237   4.967  18.006  0.00  0.00    +0.000 A 
ATOM     10  S   UNL     1       7.090   5.782  19.277  0.00  0.00    +0.000 S 
ENDROOT
BRANCH   1  12
ATOM     11  C   UNL     1       8.046   9.325  17.921  0.00  0.00    +0.000 C 
ATOM     12  C   UNL     1       8.586   8.015  18.467  0.00  0.00    +0.000 C 
ENDBRANCH   1  12
BRANCH   7  13
ATOM     13  C   UNL     1       4.018   2.189  17.261  0.00  0.00    +0.000 C 
BRANCH  13  14
ATOM     14  O   UNL     1       2.628   2.556  17.321  0.00  0.00    +0.000 OA
BRANCH  14  15
ATOM     15  C   UNL     1       2.099   2.578  18.567  0.00  0.00    +0.000 C 
ATOM     16  O   UNL     1       2.301   1.718  19.420  0.00  0.00    +0.000 OA
BRANCH  15  17
ATOM     17  C   UNL     1       1.183   3.772  18.801  0.00  0.00    +0.000 C 
ATOM     18  C   UNL     1       0.959   4.155  20.273  0.00  0.00    +0.000 C 
ATOM     19  C   UNL     1       1.888   5.231  20.839  0.00  0.00    +0.000 C 
ATOM     20  C   UNL     1       2.138   6.379  19.872  0.00  0.00    +0.000 C 
ATOM     21  C   UNL     1       2.627   5.854  18.531  0.00  0.00    +0.000 C 
ATOM     22  C   UNL     1       1.577   4.947  17.902  0.00  0.00    +0.000 C 
ENDBRANCH  15  17
ENDBRANCH  14  15
ENDBRANCH  13  14
ENDBRANCH   7  13
TORSDOF 5
ENDMDL
MODEL 4
REMARK VINA RESULT:      -7.2      1.215      1.627
REMARK  Name = 
REMARK  6 active torsions:
REMARK  status: ('A' for Active; 'I' for Inactive)
REMARK    1  A    between atoms: C_1  and  C_2
REMARK    2  A    between atoms: C_2  and  C_3
REMARK    3  A    between atoms: C_9  and  C_10
REMARK    4  A    between atoms: C_10  and  O_11
REMARK    5  A    between atoms: O_11  and  C_12
REMARK    6  A    between atoms: C_12  and  C_14
REMARK                            x       y       z     vdW  Elec       q    Type
REMARK                         _______ _______ _______ _____ _____    ______ ____
ROOT
ATOM      1  C   UNL     1       7.056   4.802  13.832  0.00  0.00    +0.000 A 
ATOM      2  N   UNL     1       7.494   5.688  14.668  0.00  0.00    +0.000 NA
ATOM      3  N   UNL     1       6.894   5.477  15.889  0.00  0.00    +0.000 N 
ATOM      4  C   UNL     1       7.183   6.256  16.990  0.00  0.00    +0.000 A 
ATOM      5  O   UNL     1       7.979   7.190  17.039  0.00  0.00    +0.000 OA
ATOM      6  C   UNL     1       6.439   5.862  18.205  0.00  0.00    +0.000 A 
ATOM      7  C   UNL     1       5.598   4.813  18.163  0.00  0.00    +0.000 A 
ATOM      8  N   UNL     1       5.380   4.053  17.028  0.00  0.00    +0.000 NA
ATOM      9  C   UNL     1       6.022   4.426  15.974  0.00  0.00    +0.000 A 
ATOM     10  S   UNL     1       5.899   3.638  14.434  0.00  0.00    +0.000 S 
ENDROOT
BRANCH   1  12
ATOM     11  C   UNL     1       6.895   3.514  11.724  0.00  0.00    +0.000 C 
ATOM     12  C   UNL     1       7.523   4.713  12.412  0.00  0.00    +0.000 C 
ENDBRANCH   1  12
BRANCH   7  13
ATOM     13  C   UNL     1       4.810   4.402  19.398  0.00  0.00    +0.000 C 
BRANCH  13  14
ATOM     14  O   UNL     1       3.862   5.424  19.755  0.00  0.00    +0.000 OA
BRANCH  14  15
ATOM     15  C   UNL     1       2.863   5.611  18.860  0.00  0.00    +0.000 C 
ATOM     16  O   UNL     1       2.941   6.346  17.880  0.00  0.00    +0.000 OA
BRANCH  15  17
ATOM     17  C   UNL     1       1.599   4.838  19.213  0.00  0.00    +0.000 C 
ATOM     18  C   UNL     1       1.490   3.432  18.598  0.00  0.00    +0.000 C 
ATOM     19  C   UNL     1       1.992   2.276  19.466  0.00  0.00    +0.000 C 
ATOM     20  C   UNL     1       1.596   2.407  20.930  0.00  0.00    +0.000 C 
ATOM     21  C   UNL     1       2.022   3.758  21.482  0.00  0.00    +0.000 C 
ATOM     22  C   UNL     1       1.334   4.884  20.720  0.00  0.00    +0.000 C 
ENDBRANCH  15  17
ENDBRANCH  14  15
ENDBRANCH  13  14
ENDBRANCH   7  13
TORSDOF 5
ENDMDL
MODEL 5
REMARK VINA RESULT:      -7.1      1.945      2.671
REMARK  Name = 
REMARK  6 active torsions:
REMARK  status: ('A' for Active; 'I' for Inactive)
REMARK    1  A    between atoms: C_1  and  C_2
REMARK    2  A    between atoms: C_2  and  C_3
REMARK    3  A    between atoms: C_9  and  C_10
REMARK    4  A    between atoms: C_10  and  O_11
REMARK    5  A    between atoms: O_11  and  C_12
REMARK    6  A    between atoms: C_12  and  C_14
REMARK                            x       y       z     vdW  Elec       q    Type
REMARK                         _______ _______ _______ _____ _____    ______ ____
ROOT
ATOM      1  C   UNL     1       6.078   5.565  16.448  0.00  0.00    +0.000 A 
ATOM      2  N   UNL     1       5.172   6.484  16.347  0.00  0.00    +0.000 NA
ATOM      3  N   UNL     1       4.357   6.425  17.455  0.00  0.00    +0.000 N 
ATOM      4  C   UNL     1       3.310   7.302  17.640  0.00  0.00    +0.000 A 
ATOM      5  O   UNL     1       2.977   8.216  16.890  0.00  0.00    +0.000 OA
ATOM      6  C   UNL     1       2.564   7.077  18.896  0.00  0.00    +0.000 A 
ATOM      7  C   UNL     1       2.953   6.103  19.738  0.00  0.00    +0.000 A 
ATOM      8  N   UNL     1       4.038   5.278  19.504  0.00  0.00    +0.000 NA
ATOM      9  C   UNL     1       4.662   5.477  18.394  0.00  0.00    +0.000 A 
ATOM     10  S   UNL     1       6.041   4.560  17.877  0.00  0.00    +0.000 S 
ENDROOT
BRANCH   1  12
ATOM     11  C   UNL     1       6.642   4.523  14.274  0.00  0.00    +0.000 C 
ATOM     12  C   UNL     1       7.157   5.362  15.430  0.00  0.00    +0.000 C 
ENDBRANCH   1  12
BRANCH   7  13
ATOM     13  C   UNL     1       2.188   5.843  21.028  0.00  0.00    +0.000 C 
BRANCH  13  14
ATOM     14  O   UNL     1       1.153   4.867  20.812  0.00  0.00    +0.000 OA
BRANCH  14  15
ATOM     15  C   UNL     1       1.515   3.588  21.064  0.00  0.00    +0.000 C 
ATOM     16  O   UNL     1       2.114   3.224  22.072  0.00  0.00    +0.000 OA
BRANCH  15  17
ATOM     17  C   UNL     1       1.137   2.632  19.939  0.00  0.00    +0.000 C 
ATOM     18  C   UNL     1       0.640   3.297  18.645  0.00  0.00    +0.000 C 
ATOM     19  C   UNL     1       1.698   3.552  17.569  0.00  0.00    +0.000 C 
ATOM     20  C   UNL     1       2.678   2.400  17.404  0.00  0.00    +0.000 C 
ATOM     21  C   UNL     1       3.304   2.033  18.741  0.00  0.00    +0.000 C 
ATOM     22  C   UNL     1       2.230   1.583  19.724  0.00  0.00    +0.000 C 
ENDBRANCH  15  17
ENDBRANCH  14  15
ENDBRANCH  13  14
ENDBRANCH   7  13
TORSDOF 5
ENDMDL
MODEL 6
REMARK VINA RESULT:      -7.0      1.480      2.149
REMARK  Name = 
REMARK  6 active torsions:
REMARK  status: ('A' for Active; 'I' for Inactive)
REMARK    1  A    between atoms: C_1  and  C_2
REMARK    2  A    between atoms: C_2  and  C_3
REMARK    3  A    between atoms: C_9  and  C_10
REMARK    4  A    between atoms: C_10  and  O_11
REMARK    5  A    between atoms: O_11  and  C_12
REMARK    6  A    between atoms: C_12  and  C_14
REMARK                            x       y       z     vdW  Elec       q    Type
REMARK                         _______ _______ _______ _____ _____    ______ ____
ROOT
ATOM      1  C   UNL     1       6.857   4.864  14.524  0.00  0.00    +0.000 A 
ATOM      2  N   UNL     1       7.289   5.483  15.576  0.00  0.00    +0.000 NA
ATOM      3  N   UNL     1       6.632   4.989  16.680  0.00  0.00    +0.000 N 
ATOM      4  C   UNL     1       6.901   5.442  17.954  0.00  0.00    +0.000 A 
ATOM      5  O   UNL     1       7.724   6.297  18.270  0.00  0.00    +0.000 OA
ATOM      6  C   UNL     1       6.094   4.778  19.000  0.00  0.00    +0.000 A 
ATOM      7  C   UNL     1       5.222   3.812  18.660  0.00  0.00    +0.000 A 
ATOM      8  N   UNL     1       5.027   3.383  17.359  0.00  0.00    +0.000 NA
ATOM      9  C   UNL     1       5.724   3.989  16.460  0.00  0.00    +0.000 A 
ATOM     10  S   UNL     1       5.639   3.634  14.764  0.00  0.00    +0.000 S 
ENDROOT
BRANCH   1  12
ATOM     11  C   UNL     1       6.990   3.997  12.209  0.00  0.00    +0.000 C 
ATOM     12  C   UNL     1       7.379   5.127  13.145  0.00  0.00    +0.000 C 
ENDBRANCH   1  12
BRANCH   7  13
ATOM     13  C   UNL     1       4.370   3.129  19.719  0.00  0.00    +0.000 C 
BRANCH  13  14
ATOM     14  O   UNL     1       3.841   4.097  20.642  0.00  0.00    +0.000 OA
BRANCH  14  15
ATOM     15  C   UNL     1       2.645   3.771  21.184  0.00  0.00    +0.000 C 
ATOM     16  O   UNL     1       2.503   3.038  22.159  0.00  0.00    +0.000 OA
BRANCH  15  17
ATOM     17  C   UNL     1       1.468   4.379  20.433  0.00  0.00    +0.000 C 
ATOM     18  C   UNL     1       1.777   5.665  19.649  0.00  0.00    +0.000 C 
ATOM     19  C   UNL     1       2.145   5.484  18.175  0.00  0.00    +0.000 C 
ATOM     20  C   UNL     1       1.285   4.449  17.463  0.00  0.00    +0.000 C 
ATOM     21  C   UNL     1       1.300   3.129  18.219  0.00  0.00    +0.000 C 
ATOM     22  C   UNL     1       0.729   3.313  19.620  0.00  0.00    +0.000 C 
ENDBRANCH  15  17
ENDBRANCH  14  15
ENDBRANCH  13  14
ENDBRANCH   7  13
TORSDOF 5
ENDMDL
MODEL 7
REMARK VINA RESULT:      -7.0      4.594      7.509
REMARK  Name = 
REMARK  6 active torsions:
REMARK  status: ('A' for Active; 'I' for Inactive)
REMARK    1  A    between atoms: C_1  and  C_2
REMARK    2  A    between atoms: C_2  and  C_3
REMARK    3  A    between atoms: C_9  and  C_10
REMARK    4  A    between atoms: C_10  and  O_11
REMARK    5  A    between atoms: O_11  and  C_12
REMARK    6  A    between atoms: C_12  and  C_14
REMARK                            x       y       z     vdW  Elec       q    Type
REMARK                         _______ _______ _______ _____ _____    ______ ____
ROOT
ATOM      1  C   UNL     1      -0.093  10.516  20.874  0.00  0.00    +0.000 A 
ATOM      2  N   UNL     1       0.473  10.485  19.710  0.00  0.00    +0.000 NA
ATOM      3  N   UNL     1       1.167   9.302  19.588  0.00  0.00    +0.000 N 
ATOM      4  C   UNL     1       1.855   8.974  18.439  0.00  0.00    +0.000 A 
ATOM      5  O   UNL     1       1.936   9.647  17.415  0.00  0.00    +0.000 OA
ATOM      6  C   UNL     1       2.527   7.659  18.508  0.00  0.00    +0.000 A 
ATOM      7  C   UNL     1       2.405   6.903  19.613  0.00  0.00    +0.000 A 
ATOM      8  N   UNL     1       1.668   7.282  20.721  0.00  0.00    +0.000 NA
ATOM      9  C   UNL     1       1.108   8.441  20.649  0.00  0.00    +0.000 A 
ATOM     10  S   UNL     1       0.148   9.134  21.917  0.00  0.00    +0.000 S 
ENDROOT
BRANCH   1  12
ATOM     11  C   UNL     1      -1.305  11.482  22.804  0.00  0.00    +0.000 C 
ATOM     12  C   UNL     1      -0.960  11.646  21.335  0.00  0.00    +0.000 C 
ENDBRANCH   1  12
BRANCH   7  13
ATOM     13  C   UNL     1       3.102   5.554  19.710  0.00  0.00    +0.000 C 
BRANCH  13  14
ATOM     14  O   UNL     1       4.528   5.715  19.613  0.00  0.00    +0.000 OA
BRANCH  14  15
ATOM     15  C   UNL     1       5.139   4.869  18.751  0.00  0.00    +0.000 C 
ATOM     16  O   UNL     1       4.869   3.676  18.644  0.00  0.00    +0.000 OA
BRANCH  15  17
ATOM     17  C   UNL     1       6.238   5.541  17.938  0.00  0.00    +0.000 C 
ATOM     18  C   UNL     1       7.296   4.595  17.347  0.00  0.00    +0.000 C 
ATOM     19  C   UNL     1       7.047   4.115  15.916  0.00  0.00    +0.000 C 
ATOM     20  C   UNL     1       6.529   5.211  14.995  0.00  0.00    +0.000 C 
ATOM     21  C   UNL     1       5.300   5.878  15.593  0.00  0.00    +0.000 C 
ATOM     22  C   UNL     1       5.645   6.527  16.928  0.00  0.00    +0.000 C 
ENDBRANCH  15  17
ENDBRANCH  14  15
ENDBRANCH  13  14
ENDBRANCH   7  13
TORSDOF 5
ENDMDL
MODEL 8
REMARK VINA RESULT:      -7.0      1.534      2.449
REMARK  Name = 
REMARK  6 active torsions:
REMARK  status: ('A' for Active; 'I' for Inactive)
REMARK    1  A    between atoms: C_1  and  C_2
REMARK    2  A    between atoms: C_2  and  C_3
REMARK    3  A    between atoms: C_9  and  C_10
REMARK    4  A    between atoms: C_10  and  O_11
REMARK    5  A    between atoms: O_11  and  C_12
REMARK    6  A    between atoms: C_12  and  C_14
REMARK                            x       y       z     vdW  Elec       q    Type
REMARK                         _______ _______ _______ _____ _____    ______ ____
ROOT
ATOM      1  C   UNL     1       7.111   4.895  13.979  0.00  0.00    +0.000 A 
ATOM      2  N   UNL     1       7.584   5.641  14.925  0.00  0.00    +0.000 NA
ATOM      3  N   UNL     1       6.890   5.378  16.084  0.00  0.00    +0.000 N 
ATOM      4  C   UNL     1       7.187   6.009  17.274  0.00  0.00    +0.000 A 
ATOM      5  O   UNL     1       8.070   6.841  17.461  0.00  0.00    +0.000 OA
ATOM      6  C   UNL     1       6.332   5.580  18.400  0.00  0.00    +0.000 A 
ATOM      7  C   UNL     1       5.392   4.638  18.206  0.00  0.00    +0.000 A 
ATOM      8  N   UNL     1       5.169   4.021  16.987  0.00  0.00    +0.000 NA
ATOM      9  C   UNL     1       5.911   4.424  16.013  0.00  0.00    +0.000 A 
ATOM     10  S   UNL     1       5.805   3.809  14.395  0.00  0.00    +0.000 S 
ENDROOT
BRANCH   1  12
ATOM     11  C   UNL     1       7.016   3.785  11.768  0.00  0.00    +0.000 C 
ATOM     12  C   UNL     1       7.654   4.895  12.584  0.00  0.00    +0.000 C 
ENDBRANCH   1  12
BRANCH   7  13
ATOM     13  C   UNL     1       4.490   4.195  19.348  0.00  0.00    +0.000 C 
BRANCH  13  14
ATOM     14  O   UNL     1       4.699   2.804  19.647  0.00  0.00    +0.000 OA
BRANCH  14  15
ATOM     15  C   UNL     1       3.758   1.967  19.150  0.00  0.00    +0.000 C 
ATOM     16  O   UNL     1       3.890   1.310  18.121  0.00  0.00    +0.000 OA
BRANCH  15  17
ATOM     17  C   UNL     1       2.483   1.948  19.982  0.00  0.00    +0.000 C 
ATOM     18  C   UNL     1       2.560   2.690  21.327  0.00  0.00    +0.000 C 
ATOM     19  C   UNL     1       2.090   4.146  21.321  0.00  0.00    +0.000 C 
ATOM     20  C   UNL     1       0.831   4.370  20.496  0.00  0.00    +0.000 C 
ATOM     21  C   UNL     1       1.008   3.824  19.088  0.00  0.00    +0.000 C 
ATOM     22  C   UNL     1       1.268   2.323  19.129  0.00  0.00    +0.000 C 
ENDBRANCH  15  17
ENDBRANCH  14  15
ENDBRANCH  13  14
ENDBRANCH   7  13
TORSDOF 5
ENDMDL
MODEL 9
REMARK VINA RESULT:      -7.0      4.596      6.586
REMARK  Name = 
REMARK  6 active torsions:
REMARK  status: ('A' for Active; 'I' for Inactive)
REMARK    1  A    between atoms: C_1  and  C_2
REMARK    2  A    between atoms: C_2  and  C_3
REMARK    3  A    between atoms: C_9  and  C_10
REMARK    4  A    between atoms: C_10  and  O_11
REMARK    5  A    between atoms: O_11  and  C_12
REMARK    6  A    between atoms: C_12  and  C_14
REMARK                            x       y       z     vdW  Elec       q    Type
REMARK                         _______ _______ _______ _____ _____    ______ ____
ROOT
ATOM      1  C   UNL     1       0.246  10.862  19.855  0.00  0.00    +0.000 A 
ATOM      2  N   UNL     1       0.934  10.377  18.872  0.00  0.00    +0.000 NA
ATOM      3  N   UNL     1       1.391   9.128  19.227  0.00  0.00    +0.000 N 
ATOM      4  C   UNL     1       2.139   8.352  18.367  0.00  0.00    +0.000 A 
ATOM      5  O   UNL     1       2.477   8.642  17.222  0.00  0.00    +0.000 OA
ATOM      6  C   UNL     1       2.523   7.042  18.935  0.00  0.00    +0.000 A 
ATOM      7  C   UNL     1       2.118   6.706  20.173  0.00  0.00    +0.000 A 
ATOM      8  N   UNL     1       1.339   7.524  20.971  0.00  0.00    +0.000 NA
ATOM      9  C   UNL     1       1.032   8.669  20.465  0.00  0.00    +0.000 A 
ATOM     10  S   UNL     1       0.078   9.866  21.282  0.00  0.00    +0.000 S 
ENDROOT
BRANCH   1  12
ATOM     11  C   UNL     1      -0.060  13.026  21.020  0.00  0.00    +0.000 C 
ATOM     12  C   UNL     1      -0.431  12.197  19.803  0.00  0.00    +0.000 C 
ENDBRANCH   1  12
BRANCH   7  13
ATOM     13  C   UNL     1       2.518   5.370  20.783  0.00  0.00    +0.000 C 
BRANCH  13  14
ATOM     14  O   UNL     1       1.379   4.496  20.874  0.00  0.00    +0.000 OA
BRANCH  14  15
ATOM     15  C   UNL     1       1.678   3.189  21.054  0.00  0.00    +0.000 C 
ATOM     16  O   UNL     1       1.985   2.692  22.134  0.00  0.00    +0.000 OA
BRANCH  15  17
ATOM     17  C   UNL     1       1.635   2.386  19.761  0.00  0.00    +0.000 C 
ATOM     18  C   UNL     1       0.744   2.968  18.651  0.00  0.00    +0.000 C 
ATOM     19  C   UNL     1       1.441   3.871  17.631  0.00  0.00    +0.000 C 
ATOM     20  C   UNL     1       2.805   3.351  17.200  0.00  0.00    +0.000 C 
ATOM     21  C   UNL     1       3.683   3.080  18.412  0.00  0.00    +0.000 C 
ATOM     22  C   UNL     1       3.047   2.017  19.300  0.00  0.00    +0.000 C 
ENDBRANCH  15  17
ENDBRANCH  14  15
ENDBRANCH  13  14
ENDBRANCH   7  13
TORSDOF 5
ENDMDL
