MODEL 1
REMARK VINA RESULT:      -6.9      0.000      0.000
REMARK  Name = 
REMARK  7 active torsions:
REMARK  status: ('A' for Active; 'I' for Inactive)
REMARK    1  A    between atoms: C_1  and  C_2
REMARK    2  A    between atoms: C_2  and  N_3
REMARK    3  A    between atoms: C_4  and  C_6
REMARK    4  A    between atoms: N_10  and  C_11
REMARK    5  A    between atoms: C_14  and  O_15
REMARK    6  A    between atoms: O_15  and  C_16
REMARK    7  A    between atoms: C_16  and  C_17
REMARK                            x       y       z     vdW  Elec       q    Type
REMARK                         _______ _______ _______ _____ _____    ______ ____
ROOT
ATOM      1  C   UNL     1       5.082   4.147  17.385  0.00  0.00    +0.000 C 
ATOM      2  C   UNL     1       3.814   3.305  17.309  0.00  0.00    +0.000 C 
ATOM      3  C   UNL     1       2.727   4.296  17.605  0.00  0.00    +0.000 C 
ATOM      4  O   UNL     1       1.549   4.096  17.333  0.00  0.00    +0.000 OA
ATOM      5  N   UNL     1       3.315   5.418  18.199  0.00  0.00    +0.000 N 
ATOM      6  C   UNL     1       4.723   5.192  18.418  0.00  0.00    +0.000 C 
ENDROOT
BRANCH   5   7
ATOM      7  C   UNL     1       2.622   6.481  18.810  0.00  0.00    +0.000 A 
ATOM      8  C   UNL     1       2.136   6.357  20.106  0.00  0.00    +0.000 A 
ATOM      9  C   UNL     1       1.480   7.405  20.734  0.00  0.00    +0.000 A 
ATOM     10  C   UNL     1       1.297   8.618  20.068  0.00  0.00    +0.000 A 
ATOM     11  C   UNL     1       1.759   8.754  18.762  0.00  0.00    +0.000 A 
ATOM     12  C   UNL     1       2.432   7.701  18.137  0.00  0.00    +0.000 A 
BRANCH  10  13
ATOM     13  O   UNL     1       0.640   9.575  20.789  0.00  0.00    +0.000 OA
BRANCH  13  14
ATOM     14  C   UNL     1      -0.255   9.093  21.793  0.00  0.00    +0.000 C 
ATOM     15  C   UNL     1      -0.320  10.116  22.913  0.00  0.00    +0.000 C 
ENDBRANCH  13  14
ENDBRANCH  10  13
ENDBRANCH   5   7
BRANCH   1  17
ATOM     16  N   UNL     1       6.106   3.889  15.143  0.00  0.00    +0.000 N 
ATOM     17  C   UNL     1       5.460   4.714  16.028  0.00  0.00    +0.000 C 
ATOM     18  O   UNL     1       5.181   5.889  15.739  0.00  0.00    +0.000 OA
ATOM     19  H   UNL     1       6.442   2.967  15.425  0.00  0.00    +0.000 HD
BRANCH  16  21
ATOM     20  C   UNL     1       5.801   3.466  12.749  0.00  0.00    +0.000 C 
ATOM     21  C   UNL     1       6.443   4.337  13.812  0.00  0.00    +0.000 C 
ENDBRANCH  16  21
ENDBRANCH   1  17
TORSDOF 5
ENDMDL
MODEL 2
REMARK VINA RESULT:      -6.8      1.431      2.000
REMARK  Name = 
REMARK  7 active torsions:
REMARK  status: ('A' for Active; 'I' for Inactive)
REMARK    1  A    between atoms: C_1  and  C_2
REMARK    2  A    between atoms: C_2  and  N_3
REMARK    3  A    between atoms: C_4  and  C_6
REMARK    4  A    between atoms: N_10  and  C_11
REMARK    5  A    between atoms: C_14  and  O_15
REMARK    6  A    between atoms: O_15  and  C_16
REMARK    7  A    between atoms: C_16  and  C_17
REMARK                            x       y       z     vdW  Elec       q    Type
REMARK                         _______ _______ _______ _____ _____    ______ ____
ROOT
ATOM      1  C   UNL     1       4.904   4.220  18.637  0.00  0.00    +0.000 C 
ATOM      2  C   UNL     1       3.595   3.526  18.275  0.00  0.00    +0.000 C 
ATOM      3  C   UNL     1       2.629   4.666  18.141  0.00  0.00    +0.000 C 
ATOM      4  O   UNL     1       1.556   4.567  17.556  0.00  0.00    +0.000 OA
ATOM      5  N   UNL     1       3.190   5.785  18.768  0.00  0.00    +0.000 N 
ATOM      6  C   UNL     1       4.432   5.431  19.411  0.00  0.00    +0.000 C 
ENDROOT
BRANCH   5   7
ATOM      7  C   UNL     1       2.521   6.993  19.042  0.00  0.00    +0.000 A 
ATOM      8  C   UNL     1       2.406   7.975  18.065  0.00  0.00    +0.000 A 
ATOM      9  C   UNL     1       1.723   9.157  18.306  0.00  0.00    +0.000 A 
ATOM     10  C   UNL     1       1.129   9.383  19.549  0.00  0.00    +0.000 A 
ATOM     11  C   UNL     1       1.251   8.420  20.547  0.00  0.00    +0.000 A 
ATOM     12  C   UNL     1       1.928   7.223  20.296  0.00  0.00    +0.000 A 
BRANCH  10  13
ATOM     13  O   UNL     1       0.483  10.581  19.667  0.00  0.00    +0.000 OA
BRANCH  13  14
ATOM     14  C   UNL     1      -0.264  11.000  18.523  0.00  0.00    +0.000 C 
ATOM     15  C   UNL     1      -1.627  10.333  18.565  0.00  0.00    +0.000 C 
ENDBRANCH  13  14
ENDBRANCH  10  13
ENDBRANCH   5   7
BRANCH   1  17
ATOM     16  N   UNL     1       5.811   3.600  16.416  0.00  0.00    +0.000 N 
ATOM     17  C   UNL     1       5.723   4.549  17.400  0.00  0.00    +0.000 C 
ATOM     18  O   UNL     1       6.286   5.650  17.297  0.00  0.00    +0.000 OA
ATOM     19  H   UNL     1       5.451   2.654  16.555  0.00  0.00    +0.000 HD
BRANCH  16  21
ATOM     20  C   UNL     1       5.574   4.233  14.060  0.00  0.00    +0.000 C 
ATOM     21  C   UNL     1       6.520   3.861  15.185  0.00  0.00    +0.000 C 
ENDBRANCH  16  21
ENDBRANCH   1  17
TORSDOF 5
ENDMDL
MODEL 3
REMARK VINA RESULT:      -6.7      1.340      1.516
REMARK  Name = 
REMARK  7 active torsions:
REMARK  status: ('A' for Active; 'I' for Inactive)
REMARK    1  A    between atoms: C_1  and  C_2
REMARK    2  A    between atoms: C_2  and  N_3
REMARK    3  A    between atoms: C_4  and  C_6
REMARK    4  A    between atoms: N_10  and  C_11
REMARK    5  A    between atoms: C_14  and  O_15
REMARK    6  A    between atoms: O_15  and  C_16
REMARK    7  A    between atoms: C_16  and  C_17
REMARK                            x       y       z     vdW  Elec       q    Type
REMARK                         _______ _______ _______ _____ _____    ______ ____
ROOT
ATOM      1  C   UNL     1       5.111   4.138  18.444  0.00  0.00    +0.000 C 
ATOM      2  C   UNL     1       3.826   3.397  18.092  0.00  0.00    +0.000 C 
ATOM      3  C   UNL     1       2.809   4.496  18.005  0.00  0.00    +0.000 C 
ATOM      4  O   UNL     1       1.729   4.363  17.441  0.00  0.00    +0.000 OA
ATOM      5  N   UNL     1       3.334   5.623  18.648  0.00  0.00    +0.000 N 
ATOM      6  C   UNL     1       4.604   5.309  19.257  0.00  0.00    +0.000 C 
ENDROOT
BRANCH   5   7
ATOM      7  C   UNL     1       2.620   6.794  18.964  0.00  0.00    +0.000 A 
ATOM      8  C   UNL     1       2.102   6.986  20.240  0.00  0.00    +0.000 A 
ATOM      9  C   UNL     1       1.424   8.148  20.577  0.00  0.00    +0.000 A 
ATOM     10  C   UNL     1       1.251   9.158  19.631  0.00  0.00    +0.000 A 
ATOM     11  C   UNL     1       1.745   8.976  18.342  0.00  0.00    +0.000 A 
ATOM     12  C   UNL     1       2.440   7.810  18.009  0.00  0.00    +0.000 A 
BRANCH  10  13
ATOM     13  O   UNL     1       0.571  10.254  20.081  0.00  0.00    +0.000 OA
BRANCH  13  14
ATOM     14  C   UNL     1       0.170  11.192  19.080  0.00  0.00    +0.000 C 
ATOM     15  C   UNL     1      -1.286  10.937  18.734  0.00  0.00    +0.000 C 
ENDBRANCH  13  14
ENDBRANCH  10  13
ENDBRANCH   5   7
BRANCH   1  17
ATOM     16  N   UNL     1       5.946   3.632  16.167  0.00  0.00    +0.000 N 
ATOM     17  C   UNL     1       5.888   4.531  17.199  0.00  0.00    +0.000 C 
ATOM     18  O   UNL     1       6.444   5.639  17.131  0.00  0.00    +0.000 OA
ATOM     19  H   UNL     1       5.594   2.679  16.271  0.00  0.00    +0.000 HD
BRANCH  16  21
ATOM     20  C   UNL     1       5.648   3.981  13.759  0.00  0.00    +0.000 C 
ATOM     21  C   UNL     1       6.614   3.956  14.928  0.00  0.00    +0.000 C 
ENDBRANCH  16  21
ENDBRANCH   1  17
TORSDOF 5
ENDMDL
MODEL 4
REMARK VINA RESULT:      -6.6      1.209      1.293
REMARK  Name = 
REMARK  7 active torsions:
REMARK  status: ('A' for Active; 'I' for Inactive)
REMARK    1  A    between atoms: C_1  and  C_2
REMARK    2  A    between atoms: C_2  and  N_3
REMARK    3  A    between atoms: C_4  and  C_6
REMARK    4  A    between atoms: N_10  and  C_11
REMARK    5  A    between atoms: C_14  and  O_15
REMARK    6  A    between atoms: O_15  and  C_16
REMARK    7  A    between atoms: C_16  and  C_17
REMARK                            x       y       z     vdW  Elec       q    Type
REMARK                         _______ _______ _______ _____ _____    ______ ____
ROOT
ATOM      1  C   UNL     1       5.557   4.586  17.208  0.00  0.00    +0.000 C 
ATOM      2  C   UNL     1       4.385   3.623  17.359  0.00  0.00    +0.000 C 
ATOM      3  C   UNL     1       3.213   4.537  17.560  0.00  0.00    +0.000 C 
ATOM      4  O   UNL     1       2.052   4.178  17.406  0.00  0.00    +0.000 OA
ATOM      5  N   UNL     1       3.705   5.798  17.919  0.00  0.00    +0.000 N 
ATOM      6  C   UNL     1       5.139   5.753  18.075  0.00  0.00    +0.000 C 
ENDROOT
BRANCH   5   7
ATOM      7  C   UNL     1       2.932   6.876  18.389  0.00  0.00    +0.000 A 
ATOM      8  C   UNL     1       2.399   6.858  19.673  0.00  0.00    +0.000 A 
ATOM      9  C   UNL     1       1.663   7.926  20.165  0.00  0.00    +0.000 A 
ATOM     10  C   UNL     1       1.445   9.052  19.370  0.00  0.00    +0.000 A 
ATOM     11  C   UNL     1       1.954   9.080  18.074  0.00  0.00    +0.000 A 
ATOM     12  C   UNL     1       2.707   8.009  17.587  0.00  0.00    +0.000 A 
BRANCH  10  13
ATOM     13  O   UNL     1       0.710  10.039  19.963  0.00  0.00    +0.000 OA
BRANCH  13  14
ATOM     14  C   UNL     1       0.415  11.173  19.146  0.00  0.00    +0.000 C 
ATOM     15  C   UNL     1      -0.921  11.748  19.582  0.00  0.00    +0.000 C 
ENDBRANCH  13  14
ENDBRANCH  10  13
ENDBRANCH   5   7
BRANCH   1  17
ATOM     16  N   UNL     1       6.316   3.977  14.930  0.00  0.00    +0.000 N 
ATOM     17  C   UNL     1       5.802   4.945  15.753  0.00  0.00    +0.000 C 
ATOM     18  O   UNL     1       5.535   6.082  15.335  0.00  0.00    +0.000 OA
ATOM     19  H   UNL     1       6.648   3.085  15.301  0.00  0.00    +0.000 HD
BRANCH  16  21
ATOM     20  C   UNL     1       5.521   3.464  12.669  0.00  0.00    +0.000 C 
ATOM     21  C   UNL     1       6.520   4.223  13.521  0.00  0.00    +0.000 C 
ENDBRANCH  16  21
ENDBRANCH   1  17
TORSDOF 5
ENDMDL
MODEL 5
REMARK VINA RESULT:      -6.6      1.798      2.221
REMARK  Name = 
REMARK  7 active torsions:
REMARK  status: ('A' for Active; 'I' for Inactive)
REMARK    1  A    between atoms: C_1  and  C_2
REMARK    2  A    between atoms: C_2  and  N_3
REMARK    3  A    between atoms: C_4  and  C_6
REMARK    4  A    between atoms: N_10  and  C_11
REMARK    5  A    between atoms: C_14  and  O_15
REMARK    6  A    between atoms: O_15  and  C_16
REMARK    7  A    between atoms: C_16  and  C_17
REMARK                            x       y       z     vdW  Elec       q    Type
REMARK                         _______ _______ _______ _____ _____    ______ ____
ROOT
ATOM      1  C   UNL     1       4.668   4.046  19.237  0.00  0.00    +0.000 C 
ATOM      2  C   UNL     1       3.442   3.447  19.916  0.00  0.00    +0.000 C 
ATOM      3  C   UNL     1       2.384   4.487  19.693  0.00  0.00    +0.000 C 
ATOM      4  O   UNL     1       1.186   4.256  19.804  0.00  0.00    +0.000 OA
ATOM      5  N   UNL     1       3.022   5.683  19.342  0.00  0.00    +0.000 N 
ATOM      6  C   UNL     1       4.454   5.532  19.422  0.00  0.00    +0.000 C 
ENDROOT
BRANCH   5   7
ATOM      7  C   UNL     1       2.404   6.945  19.249  0.00  0.00    +0.000 A 
ATOM      8  C   UNL     1       1.813   7.528  20.364  0.00  0.00    +0.000 A 
ATOM      9  C   UNL     1       1.230   8.785  20.298  0.00  0.00    +0.000 A 
ATOM     10  C   UNL     1       1.229   9.495  19.097  0.00  0.00    +0.000 A 
ATOM     11  C   UNL     1       1.797   8.918  17.964  0.00  0.00    +0.000 A 
ATOM     12  C   UNL     1       2.397   7.658  18.037  0.00  0.00    +0.000 A 
BRANCH  10  13
ATOM     13  O   UNL     1       0.628  10.720  19.156  0.00  0.00    +0.000 OA
BRANCH  13  14
ATOM     14  C   UNL     1      -0.752  10.720  19.525  0.00  0.00    +0.000 C 
ATOM     15  C   UNL     1      -1.578  10.340  18.309  0.00  0.00    +0.000 C 
ENDBRANCH  13  14
ENDBRANCH  10  13
ENDBRANCH   5   7
BRANCH   1  17
ATOM     16  N   UNL     1       5.793   4.128  17.031  0.00  0.00    +0.000 N 
ATOM     17  C   UNL     1       4.777   3.605  17.787  0.00  0.00    +0.000 C 
ATOM     18  O   UNL     1       3.965   2.792  17.318  0.00  0.00    +0.000 OA
ATOM     19  H   UNL     1       6.382   4.885  17.381  0.00  0.00    +0.000 HD
BRANCH  16  21
ATOM     20  C   UNL     1       6.797   4.734  14.879  0.00  0.00    +0.000 C 
ATOM     21  C   UNL     1       5.998   3.711  15.663  0.00  0.00    +0.000 C 
ENDBRANCH  16  21
ENDBRANCH   1  17
TORSDOF 5
ENDMDL
MODEL 6
REMARK VINA RESULT:      -6.5      0.452      1.162
REMARK  Name = 
REMARK  7 active torsions:
REMARK  status: ('A' for Active; 'I' for Inactive)
REMARK    1  A    between atoms: C_1  and  C_2
REMARK    2  A    between atoms: C_2  and  N_3
REMARK    3  A    between atoms: C_4  and  C_6
REMARK    4  A    between atoms: N_10  and  C_11
REMARK    5  A    between atoms: C_14  and  O_15
REMARK    6  A    between atoms: O_15  and  C_16
REMARK    7  A    between atoms: C_16  and  C_17
REMARK                            x       y       z     vdW  Elec       q    Type
REMARK                         _______ _______ _______ _____ _____    ______ ____
ROOT
ATOM      1  C   UNL     1       5.288   3.956  17.497  0.00  0.00    +0.000 C 
ATOM      2  C   UNL     1       4.019   3.134  17.305  0.00  0.00    +0.000 C 
ATOM      3  C   UNL     1       2.926   4.111  17.625  0.00  0.00    +0.000 C 
ATOM      4  O   UNL     1       1.759   3.943  17.288  0.00  0.00    +0.000 OA
ATOM      5  N   UNL     1       3.495   5.181  18.325  0.00  0.00    +0.000 N 
ATOM      6  C   UNL     1       4.891   4.926  18.587  0.00  0.00    +0.000 C 
ENDROOT
BRANCH   5   7
ATOM      7  C   UNL     1       2.783   6.204  18.980  0.00  0.00    +0.000 A 
ATOM      8  C   UNL     1       2.663   7.464  18.406  0.00  0.00    +0.000 A 
ATOM      9  C   UNL     1       1.938   8.473  19.022  0.00  0.00    +0.000 A 
ATOM     10  C   UNL     1       1.306   8.236  20.244  0.00  0.00    +0.000 A 
ATOM     11  C   UNL     1       1.431   6.986  20.844  0.00  0.00    +0.000 A 
ATOM     12  C   UNL     1       2.150   5.967  20.214  0.00  0.00    +0.000 A 
BRANCH  10  13
ATOM     13  O   UNL     1       0.620   9.303  20.751  0.00  0.00    +0.000 OA
BRANCH  13  14
ATOM     14  C   UNL     1       0.913   9.644  22.107  0.00  0.00    +0.000 C 
ATOM     15  C   UNL     1      -0.393   9.935  22.825  0.00  0.00    +0.000 C 
ENDBRANCH  13  14
ENDBRANCH  10  13
ENDBRANCH   5   7
BRANCH   1  17
ATOM     16  N   UNL     1       6.063   3.805  15.148  0.00  0.00    +0.000 N 
ATOM     17  C   UNL     1       5.728   4.616  16.202  0.00  0.00    +0.000 C 
ATOM     18  O   UNL     1       5.773   5.853  16.113  0.00  0.00    +0.000 OA
ATOM     19  H   UNL     1       6.143   2.793  15.261  0.00  0.00    +0.000 HD
BRANCH  16  21
ATOM     20  C   UNL     1       5.968   3.480  12.721  0.00  0.00    +0.000 C 
ATOM     21  C   UNL     1       6.433   4.359  13.866  0.00  0.00    +0.000 C 
ENDBRANCH  16  21
ENDBRANCH   1  17
TORSDOF 5
ENDMDL
MODEL 7
REMARK VINA RESULT:      -6.5      3.438      4.420
REMARK  Name = 
REMARK  7 active torsions:
REMARK  status: ('A' for Active; 'I' for Inactive)
REMARK    1  A    between atoms: C_1  and  C_2
REMARK    2  A    between atoms: C_2  and  N_3
REMARK    3  A    between atoms: C_4  and  C_6
REMARK    4  A    between atoms: N_10  and  C_11
REMARK    5  A    between atoms: C_14  and  O_15
REMARK    6  A    between atoms: O_15  and  C_16
REMARK    7  A    between atoms: C_16  and  C_17
REMARK                            x       y       z     vdW  Elec       q    Type
REMARK                         _______ _______ _______ _____ _____    ______ ____
ROOT
ATOM      1  C   UNL     1       6.504   6.182  15.429  0.00  0.00    +0.000 C 
ATOM      2  C   UNL     1       7.362   5.972  16.671  0.00  0.00    +0.000 C 
ATOM      3  C   UNL     1       6.564   4.990  17.477  0.00  0.00    +0.000 C 
ATOM      4  O   UNL     1       7.045   4.325  18.387  0.00  0.00    +0.000 OA
ATOM      5  N   UNL     1       5.253   4.991  16.985  0.00  0.00    +0.000 N 
ATOM      6  C   UNL     1       5.100   5.998  15.963  0.00  0.00    +0.000 C 
ENDROOT
BRANCH   5   7
ATOM      7  C   UNL     1       4.149   4.364  17.592  0.00  0.00    +0.000 A 
ATOM      8  C   UNL     1       3.099   5.118  18.103  0.00  0.00    +0.000 A 
ATOM      9  C   UNL     1       1.988   4.516  18.674  0.00  0.00    +0.000 A 
ATOM     10  C   UNL     1       1.903   3.125  18.745  0.00  0.00    +0.000 A 
ATOM     11  C   UNL     1       2.954   2.353  18.257  0.00  0.00    +0.000 A 
ATOM     12  C   UNL     1       4.065   2.962  17.668  0.00  0.00    +0.000 A 
BRANCH  10  13
ATOM     13  O   UNL     1       0.762   2.649  19.326  0.00  0.00    +0.000 OA
BRANCH  13  14
ATOM     14  C   UNL     1       0.525   3.070  20.670  0.00  0.00    +0.000 C 
ATOM     15  C   UNL     1       1.644   2.537  21.548  0.00  0.00    +0.000 C 
ENDBRANCH  13  14
ENDBRANCH  10  13
ENDBRANCH   5   7
BRANCH   1  17
ATOM     16  N   UNL     1       5.940   4.314  13.903  0.00  0.00    +0.000 N 
ATOM     17  C   UNL     1       6.882   5.218  14.318  0.00  0.00    +0.000 C 
ATOM     18  O   UNL     1       8.012   5.264  13.807  0.00  0.00    +0.000 OA
ATOM     19  H   UNL     1       5.058   4.197  14.405  0.00  0.00    +0.000 HD
BRANCH  16  21
ATOM     20  C   UNL     1       5.010   3.282  11.884  0.00  0.00    +0.000 C 
ATOM     21  C   UNL     1       6.203   3.406  12.811  0.00  0.00    +0.000 C 
ENDBRANCH  16  21
ENDBRANCH   1  17
TORSDOF 5
ENDMDL
MODEL 8
REMARK VINA RESULT:      -6.5      1.285      1.842
REMARK  Name = 
REMARK  7 active torsions:
REMARK  status: ('A' for Active; 'I' for Inactive)
REMARK    1  A    between atoms: C_1  and  C_2
REMARK    2  A    between atoms: C_2  and  N_3
REMARK    3  A    between atoms: C_4  and  C_6
REMARK    4  A    between atoms: N_10  and  C_11
REMARK    5  A    between atoms: C_14  and  O_15
REMARK    6  A    between atoms: O_15  and  C_16
REMARK    7  A    between atoms: C_16  and  C_17
REMARK                            x       y       z     vdW  Elec       q    Type
REMARK                         _______ _______ _______ _____ _____    ______ ____
ROOT
ATOM      1  C   UNL     1       5.610   4.682  17.577  0.00  0.00    +0.000 C 
ATOM      2  C   UNL     1       4.414   3.736  17.577  0.00  0.00    +0.000 C 
ATOM      3  C   UNL     1       3.241   4.667  17.663  0.00  0.00    +0.000 C 
ATOM      4  O   UNL     1       2.099   4.330  17.372  0.00  0.00    +0.000 OA
ATOM      5  N   UNL     1       3.708   5.913  18.098  0.00  0.00    +0.000 N 
ATOM      6  C   UNL     1       5.114   5.841  18.414  0.00  0.00    +0.000 C 
ENDROOT
BRANCH   5   7
ATOM      7  C   UNL     1       2.903   6.996  18.500  0.00  0.00    +0.000 A 
ATOM      8  C   UNL     1       2.610   8.027  17.615  0.00  0.00    +0.000 A 
ATOM      9  C   UNL     1       1.792   9.084  17.983  0.00  0.00    +0.000 A 
ATOM     10  C   UNL     1       1.240   9.130  19.264  0.00  0.00    +0.000 A 
ATOM     11  C   UNL     1       1.538   8.117  20.171  0.00  0.00    +0.000 A 
ATOM     12  C   UNL     1       2.351   7.045  19.792  0.00  0.00    +0.000 A 
BRANCH  10  13
ATOM     13  O   UNL     1       0.451  10.218  19.509  0.00  0.00    +0.000 OA
BRANCH  13  14
ATOM     14  C   UNL     1       1.139  11.425  19.841  0.00  0.00    +0.000 C 
ATOM     15  C   UNL     1       0.723  12.504  18.856  0.00  0.00    +0.000 C 
ENDBRANCH  13  14
ENDBRANCH  10  13
ENDBRANCH   5   7
BRANCH   1  17
ATOM     16  N   UNL     1       6.227   4.052  15.261  0.00  0.00    +0.000 N 
ATOM     17  C   UNL     1       6.022   5.062  16.165  0.00  0.00    +0.000 C 
ATOM     18  O   UNL     1       6.160   6.255  15.852  0.00  0.00    +0.000 OA
ATOM     19  H   UNL     1       6.233   3.072  15.551  0.00  0.00    +0.000 HD
BRANCH  16  21
ATOM     20  C   UNL     1       5.675   3.567  12.923  0.00  0.00    +0.000 C 
ATOM     21  C   UNL     1       6.561   4.335  13.885  0.00  0.00    +0.000 C 
ENDBRANCH  16  21
ENDBRANCH   1  17
TORSDOF 5
ENDMDL
MODEL 9
REMARK VINA RESULT:      -6.4      1.742      2.298
REMARK  Name = 
REMARK  7 active torsions:
REMARK  status: ('A' for Active; 'I' for Inactive)
REMARK    1  A    between atoms: C_1  and  C_2
REMARK    2  A    between atoms: C_2  and  N_3
REMARK    3  A    between atoms: C_4  and  C_6
REMARK    4  A    between atoms: N_10  and  C_11
REMARK    5  A    between atoms: C_14  and  O_15
REMARK    6  A    between atoms: O_15  and  C_16
REMARK    7  A    between atoms: C_16  and  C_17
REMARK                            x       y       z     vdW  Elec       q    Type
REMARK                         _______ _______ _______ _____ _____    ______ ____
ROOT
ATOM      1  C   UNL     1       4.738   4.199  18.881  0.00  0.00    +0.000 C 
ATOM      2  C   UNL     1       3.530   3.510  19.506  0.00  0.00    +0.000 C 
ATOM      3  C   UNL     1       2.450   4.546  19.395  0.00  0.00    +0.000 C 
ATOM      4  O   UNL     1       1.258   4.280  19.492  0.00  0.00    +0.000 OA
ATOM      5  N   UNL     1       3.060   5.783  19.159  0.00  0.00    +0.000 N 
ATOM      6  C   UNL     1       4.497   5.654  19.213  0.00  0.00    +0.000 C 
ENDROOT
BRANCH   5   7
ATOM      7  C   UNL     1       2.418   7.035  19.196  0.00  0.00    +0.000 A 
ATOM      8  C   UNL     1       2.305   7.807  18.045  0.00  0.00    +0.000 A 
ATOM      9  C   UNL     1       1.646   9.027  18.056  0.00  0.00    +0.000 A 
ATOM     10  C   UNL     1       1.075   9.506  19.237  0.00  0.00    +0.000 A 
ATOM     11  C   UNL     1       1.196   8.756  20.404  0.00  0.00    +0.000 A 
ATOM     12  C   UNL     1       1.848   7.520  20.386  0.00  0.00    +0.000 A 
BRANCH  10  13
ATOM     13  O   UNL     1       0.452  10.716  19.123  0.00  0.00    +0.000 OA
BRANCH  13  14
ATOM     14  C   UNL     1      -0.951  10.721  19.391  0.00  0.00    +0.000 C 
ATOM     15  C   UNL     1      -1.694  10.898  18.078  0.00  0.00    +0.000 C 
ENDBRANCH  13  14
ENDBRANCH  10  13
ENDBRANCH   5   7
BRANCH   1  17
ATOM     16  N   UNL     1       6.069   4.030  16.798  0.00  0.00    +0.000 N 
ATOM     17  C   UNL     1       4.842   3.905  17.394  0.00  0.00    +0.000 C 
ATOM     18  O   UNL     1       3.837   3.559  16.752  0.00  0.00    +0.000 OA
ATOM     19  H   UNL     1       6.865   4.431  17.297  0.00  0.00    +0.000 HD
BRANCH  16  21
ATOM     20  C   UNL     1       6.318   4.958  14.543  0.00  0.00    +0.000 C 
ATOM     21  C   UNL     1       6.260   3.709  15.402  0.00  0.00    +0.000 C 
ENDBRANCH  16  21
ENDBRANCH   1  17
TORSDOF 5
ENDMDL
