MODEL 1
REMARK VINA RESULT:      -7.1      0.000      0.000
REMARK  Name = 
REMARK  5 active torsions:
REMARK  status: ('A' for Active; 'I' for Inactive)
REMARK    1  A    between atoms: C_2  and  OXT_3
REMARK    2  A    between atoms: C_2  and  CA_4
REMARK    3  A    between atoms: CA_4  and  N_11
REMARK    4  A    between atoms: C_5  and  C_6
REMARK    5  A    between atoms: C_12  and  C_14
REMARK                            x       y       z     vdW  Elec       q    Type
REMARK                         _______ _______ _______ _____ _____    ______ ____
ROOT
ATOM      1  CA  UNL     1       6.431   5.083  18.369  0.00  0.00    +0.000 C 
ATOM      2  C   UNL     1       5.464   4.641  19.184  0.00  0.00    +0.000 C 
ENDROOT
BRANCH   2   3
ATOM      3  C   UNL     1       4.453   3.704  18.827  0.00  0.00    +0.000 A 
ATOM      4  C   UNL     1       4.135   2.501  19.451  0.00  0.00    +0.000 A 
ATOM      5  C   UNL     1       3.178   1.833  18.654  0.00  0.00    +0.000 A 
ATOM      6  C   UNL     1       2.917   2.675  17.606  0.00  0.00    +0.000 A 
ATOM      7  O   UNL     1       3.662   3.803  17.703  0.00  0.00    +0.000 OA
ENDBRANCH   2   3
BRANCH   1   8
ATOM      8  N   UNL     1       6.598   4.761  17.035  0.00  0.00    +0.000 N 
ATOM      9  C   UNL     1       6.098   5.529  15.998  0.00  0.00    +0.000 C 
ATOM     10  O   UNL     1       5.629   6.649  16.178  0.00  0.00    +0.000 OA
ATOM     11  H   UNL     1       6.882   3.811  16.811  0.00  0.00    +0.000 HD
BRANCH   9  12
ATOM     12  C   UNL     1       6.285   4.951  14.679  0.00  0.00    +0.000 A 
ATOM     13  C   UNL     1       7.413   4.824  13.883  0.00  0.00    +0.000 A 
ATOM     14  C   UNL     1       7.009   4.136  12.712  0.00  0.00    +0.000 A 
ATOM     15  C   UNL     1       5.667   3.880  12.862  0.00  0.00    +0.000 A 
ATOM     16 BR   UNL     1       4.596   2.986  11.623  0.00  0.00    +0.000 Br
ATOM     17  O   UNL     1       5.218   4.365  14.050  0.00  0.00    +0.000 OA
ENDBRANCH   9  12
ENDBRANCH   1   8
BRANCH   1  19
ATOM     18  O   UNL     1       8.071   6.840  18.535  0.00  0.00    +0.000 OA
ATOM     19  C   UNL     1       7.523   5.869  19.032  0.00  0.00    +0.000 C 
BRANCH  19  20
ATOM     20  OXT UNL     1       7.795   5.427  20.278  0.00  0.00    +0.000 OA
ATOM     21  HXT UNL     1       7.126   5.735  20.919  0.00  0.00    +0.000 HD
ENDBRANCH  19  20
ENDBRANCH   1  19
TORSDOF 5
ENDMDL
MODEL 2
REMARK VINA RESULT:      -7.1      1.671      2.070
REMARK  Name = 
REMARK  5 active torsions:
REMARK  status: ('A' for Active; 'I' for Inactive)
REMARK    1  A    between atoms: C_2  and  OXT_3
REMARK    2  A    between atoms: C_2  and  CA_4
REMARK    3  A    between atoms: CA_4  and  N_11
REMARK    4  A    between atoms: C_5  and  C_6
REMARK    5  A    between atoms: C_12  and  C_14
REMARK                            x       y       z     vdW  Elec       q    Type
REMARK                         _______ _______ _______ _____ _____    ______ ____
ROOT
ATOM      1  CA  UNL     1       6.078   6.454  17.199  0.00  0.00    +0.000 C 
ATOM      2  C   UNL     1       5.085   6.293  18.084  0.00  0.00    +0.000 C 
ENDROOT
BRANCH   2   3
ATOM      3  C   UNL     1       3.924   5.495  17.881  0.00  0.00    +0.000 A 
ATOM      4  C   UNL     1       2.603   5.801  18.195  0.00  0.00    +0.000 A 
ATOM      5  C   UNL     1       1.819   4.647  17.965  0.00  0.00    +0.000 A 
ATOM      6  C   UNL     1       2.684   3.705  17.475  0.00  0.00    +0.000 A 
ATOM      7  O   UNL     1       3.942   4.201  17.407  0.00  0.00    +0.000 OA
ENDBRANCH   2   3
BRANCH   1   8
ATOM      8  N   UNL     1       6.139   5.928  15.923  0.00  0.00    +0.000 N 
ATOM      9  C   UNL     1       7.035   4.943  15.546  0.00  0.00    +0.000 C 
ATOM     10  O   UNL     1       7.720   4.332  16.362  0.00  0.00    +0.000 OA
ATOM     11  H   UNL     1       5.681   6.445  15.177  0.00  0.00    +0.000 HD
BRANCH   9  12
ATOM     12  C   UNL     1       7.008   4.616  14.132  0.00  0.00    +0.000 A 
ATOM     13  C   UNL     1       7.684   5.157  13.050  0.00  0.00    +0.000 A 
ATOM     14  C   UNL     1       7.296   4.409  11.911  0.00  0.00    +0.000 A 
ATOM     15  C   UNL     1       6.415   3.455  12.362  0.00  0.00    +0.000 A 
ATOM     16 BR   UNL     1       5.578   2.173  11.296  0.00  0.00    +0.000 Br
ATOM     17  O   UNL     1       6.234   3.568  13.705  0.00  0.00    +0.000 OA
ENDBRANCH   9  12
ENDBRANCH   1   8
BRANCH   1  19
ATOM     18  O   UNL     1       7.981   6.714  18.654  0.00  0.00    +0.000 OA
ATOM     19  C   UNL     1       7.307   7.133  17.726  0.00  0.00    +0.000 C 
BRANCH  19  20
ATOM     20  OXT UNL     1       7.633   8.235  17.019  0.00  0.00    +0.000 OA
ATOM     21  HXT UNL     1       8.006   8.001  16.148  0.00  0.00    +0.000 HD
ENDBRANCH  19  20
ENDBRANCH   1  19
TORSDOF 5
ENDMDL
MODEL 3
REMARK VINA RESULT:      -7.1      2.881      5.240
REMARK  Name = 
REMARK  5 active torsions:
REMARK  status: ('A' for Active; 'I' for Inactive)
REMARK    1  A    between atoms: C_2  and  OXT_3
REMARK    2  A    between atoms: C_2  and  CA_4
REMARK    3  A    between atoms: CA_4  and  N_11
REMARK    4  A    between atoms: C_5  and  C_6
REMARK    5  A    between atoms: C_12  and  C_14
REMARK                            x       y       z     vdW  Elec       q    Type
REMARK                         _______ _______ _______ _____ _____    ______ ____
ROOT
ATOM      1  CA  UNL     1       6.972   5.012  18.217  0.00  0.00    +0.000 C 
ATOM      2  C   UNL     1       7.601   4.980  17.034  0.00  0.00    +0.000 C 
ENDROOT
BRANCH   2   3
ATOM      3  C   UNL     1       7.025   4.541  15.808  0.00  0.00    +0.000 A 
ATOM      4  C   UNL     1       7.331   4.956  14.516  0.00  0.00    +0.000 A 
ATOM      5  C   UNL     1       6.395   4.370  13.633  0.00  0.00    +0.000 A 
ATOM      6  C   UNL     1       5.590   3.586  14.417  0.00  0.00    +0.000 A 
ATOM      7  O   UNL     1       5.963   3.668  15.716  0.00  0.00    +0.000 OA
ENDBRANCH   2   3
BRANCH   1   8
ATOM      8  N   UNL     1       5.684   4.582  18.479  0.00  0.00    +0.000 N 
ATOM      9  C   UNL     1       4.570   5.392  18.346  0.00  0.00    +0.000 C 
ATOM     10  O   UNL     1       4.620   6.495  17.810  0.00  0.00    +0.000 OA
ATOM     11  H   UNL     1       5.572   3.727  19.015  0.00  0.00    +0.000 HD
BRANCH   9  12
ATOM     12  C   UNL     1       3.328   4.779  18.781  0.00  0.00    +0.000 A 
ATOM     13  C   UNL     1       2.092   4.668  18.164  0.00  0.00    +0.000 A 
ATOM     14  C   UNL     1       1.262   3.928  19.043  0.00  0.00    +0.000 A 
ATOM     15  C   UNL     1       2.037   3.628  20.138  0.00  0.00    +0.000 A 
ATOM     16 BR   UNL     1       1.468   2.656  21.625  0.00  0.00    +0.000 Br
ATOM     17  O   UNL     1       3.290   4.134  19.990  0.00  0.00    +0.000 OA
ENDBRANCH   9  12
ENDBRANCH   1   8
BRANCH   1  19
ATOM     18  O   UNL     1       7.813   5.326  20.453  0.00  0.00    +0.000 OA
ATOM     19  C   UNL     1       7.693   5.742  19.310  0.00  0.00    +0.000 C 
BRANCH  19  20
ATOM     20  OXT UNL     1       8.260   6.889  18.881  0.00  0.00    +0.000 OA
ATOM     21  HXT UNL     1       9.234   6.839  18.914  0.00  0.00    +0.000 HD
ENDBRANCH  19  20
ENDBRANCH   1  19
TORSDOF 5
ENDMDL
MODEL 4
REMARK VINA RESULT:      -7.0      0.728      1.161
REMARK  Name = 
REMARK  5 active torsions:
REMARK  status: ('A' for Active; 'I' for Inactive)
REMARK    1  A    between atoms: C_2  and  OXT_3
REMARK    2  A    between atoms: C_2  and  CA_4
REMARK    3  A    between atoms: CA_4  and  N_11
REMARK    4  A    between atoms: C_5  and  C_6
REMARK    5  A    between atoms: C_12  and  C_14
REMARK                            x       y       z     vdW  Elec       q    Type
REMARK                         _______ _______ _______ _____ _____    ______ ____
ROOT
ATOM      1  CA  UNL     1       5.999   5.100  18.304  0.00  0.00    +0.000 C 
ATOM      2  C   UNL     1       4.892   4.847  19.016  0.00  0.00    +0.000 C 
ENDROOT
BRANCH   2   3
ATOM      3  C   UNL     1       3.770   4.103  18.554  0.00  0.00    +0.000 A 
ATOM      4  C   UNL     1       2.421   4.439  18.638  0.00  0.00    +0.000 A 
ATOM      5  C   UNL     1       1.665   3.329  18.198  0.00  0.00    +0.000 A 
ATOM      6  C   UNL     1       2.582   2.384  17.819  0.00  0.00    +0.000 A 
ATOM      7  O   UNL     1       3.843   2.838  18.015  0.00  0.00    +0.000 OA
ENDBRANCH   2   3
BRANCH   1   8
ATOM      8  N   UNL     1       6.235   4.740  16.990  0.00  0.00    +0.000 N 
ATOM      9  C   UNL     1       5.959   5.563  15.913  0.00  0.00    +0.000 C 
ATOM     10  O   UNL     1       5.655   6.745  16.051  0.00  0.00    +0.000 OA
ATOM     11  H   UNL     1       6.387   3.755  16.792  0.00  0.00    +0.000 HD
BRANCH   9  12
ATOM     12  C   UNL     1       6.173   4.947  14.616  0.00  0.00    +0.000 A 
ATOM     13  C   UNL     1       7.326   4.750  13.872  0.00  0.00    +0.000 A 
ATOM     14  C   UNL     1       6.940   4.055  12.699  0.00  0.00    +0.000 A 
ATOM     15  C   UNL     1       5.582   3.864  12.797  0.00  0.00    +0.000 A 
ATOM     16 BR   UNL     1       4.523   2.993  11.532  0.00  0.00    +0.000 Br
ATOM     17  O   UNL     1       5.107   4.397  13.954  0.00  0.00    +0.000 OA
ENDBRANCH   9  12
ENDBRANCH   1   8
BRANCH   1  19
ATOM     18  O   UNL     1       7.482   5.313  20.191  0.00  0.00    +0.000 OA
ATOM     19  C   UNL     1       7.144   5.683  19.077  0.00  0.00    +0.000 C 
BRANCH  19  20
ATOM     20  OXT UNL     1       7.813   6.626  18.380  0.00  0.00    +0.000 OA
ATOM     21  HXT UNL     1       8.647   6.274  18.017  0.00  0.00    +0.000 HD
ENDBRANCH  19  20
ENDBRANCH   1  19
TORSDOF 5
ENDMDL
MODEL 5
REMARK VINA RESULT:      -6.9      2.340      3.464
REMARK  Name = 
REMARK  5 active torsions:
REMARK  status: ('A' for Active; 'I' for Inactive)
REMARK    1  A    between atoms: C_2  and  OXT_3
REMARK    2  A    between atoms: C_2  and  CA_4
REMARK    3  A    between atoms: CA_4  and  N_11
REMARK    4  A    between atoms: C_5  and  C_6
REMARK    5  A    between atoms: C_12  and  C_14
REMARK                            x       y       z     vdW  Elec       q    Type
REMARK                         _______ _______ _______ _____ _____    ______ ____
ROOT
ATOM      1  CA  UNL     1       4.418   3.624  18.914  0.00  0.00    +0.000 C 
ATOM      2  C   UNL     1       3.757   4.552  19.620  0.00  0.00    +0.000 C 
ENDROOT
BRANCH   2   3
ATOM      3  C   UNL     1       3.391   5.843  19.142  0.00  0.00    +0.000 A 
ATOM      4  C   UNL     1       2.418   6.702  19.644  0.00  0.00    +0.000 A 
ATOM      5  C   UNL     1       2.296   7.794  18.754  0.00  0.00    +0.000 A 
ATOM      6  C   UNL     1       3.232   7.579  17.777  0.00  0.00    +0.000 A 
ATOM      7  O   UNL     1       3.902   6.425  18.003  0.00  0.00    +0.000 OA
ENDBRANCH   2   3
BRANCH   1   8
ATOM      8  N   UNL     1       4.908   3.760  17.629  0.00  0.00    +0.000 N 
ATOM      9  C   UNL     1       6.187   4.207  17.345  0.00  0.00    +0.000 C 
ATOM     10  O   UNL     1       7.043   4.342  18.215  0.00  0.00    +0.000 OA
ATOM     11  H   UNL     1       4.237   3.766  16.866  0.00  0.00    +0.000 HD
BRANCH   9  12
ATOM     12  C   UNL     1       6.460   4.386  15.931  0.00  0.00    +0.000 A 
ATOM     13  C   UNL     1       7.350   5.213  15.264  0.00  0.00    +0.000 A 
ATOM     14  C   UNL     1       7.212   4.931  13.882  0.00  0.00    +0.000 A 
ATOM     15  C   UNL     1       6.254   3.950  13.786  0.00  0.00    +0.000 A 
ATOM     16 BR   UNL     1       5.661   3.176  12.196  0.00  0.00    +0.000 Br
ATOM     17  O   UNL     1       5.793   3.609  15.019  0.00  0.00    +0.000 OA
ENDBRANCH   9  12
ENDBRANCH   1   8
BRANCH   1  19
ATOM     18  O   UNL     1       4.806   2.041  20.688  0.00  0.00    +0.000 OA
ATOM     19  C   UNL     1       4.471   2.260  19.534  0.00  0.00    +0.000 C 
BRANCH  19  20
ATOM     20  OXT UNL     1       4.042   1.293  18.696  0.00  0.00    +0.000 OA
ATOM     21  HXT UNL     1       4.791   0.822  18.284  0.00  0.00    +0.000 HD
ENDBRANCH  19  20
ENDBRANCH   1  19
TORSDOF 5
ENDMDL
MODEL 6
REMARK VINA RESULT:      -6.8      1.253      1.530
REMARK  Name = 
REMARK  5 active torsions:
REMARK  status: ('A' for Active; 'I' for Inactive)
REMARK    1  A    between atoms: C_2  and  OXT_3
REMARK    2  A    between atoms: C_2  and  CA_4
REMARK    3  A    between atoms: CA_4  and  N_11
REMARK    4  A    between atoms: C_5  and  C_6
REMARK    5  A    between atoms: C_12  and  C_14
REMARK                            x       y       z     vdW  Elec       q    Type
REMARK                         _______ _______ _______ _____ _____    ______ ____
ROOT
ATOM      1  CA  UNL     1       6.294   6.107  17.552  0.00  0.00    +0.000 C 
ATOM      2  C   UNL     1       5.567   5.657  18.584  0.00  0.00    +0.000 C 
ENDROOT
BRANCH   2   3
ATOM      3  C   UNL     1       4.601   4.613  18.516  0.00  0.00    +0.000 A 
ATOM      4  C   UNL     1       4.527   3.458  19.290  0.00  0.00    +0.000 A 
ATOM      5  C   UNL     1       3.504   2.640  18.760  0.00  0.00    +0.000 A 
ATOM      6  C   UNL     1       2.967   3.349  17.718  0.00  0.00    +0.000 A 
ATOM      7  O   UNL     1       3.604   4.535  17.570  0.00  0.00    +0.000 OA
ENDBRANCH   2   3
BRANCH   1   8
ATOM      8  N   UNL     1       6.208   5.687  16.238  0.00  0.00    +0.000 N 
ATOM      9  C   UNL     1       7.064   4.753  15.680  0.00  0.00    +0.000 C 
ATOM     10  O   UNL     1       7.845   4.092  16.357  0.00  0.00    +0.000 OA
ATOM     11  H   UNL     1       5.661   6.253  15.596  0.00  0.00    +0.000 HD
BRANCH   9  12
ATOM     12  C   UNL     1       6.874   4.540  14.257  0.00  0.00    +0.000 A 
ATOM     13  C   UNL     1       7.672   4.848  13.166  0.00  0.00    +0.000 A 
ATOM     14  C   UNL     1       6.998   4.366  12.017  0.00  0.00    +0.000 A 
ATOM     15  C   UNL     1       5.835   3.790  12.470  0.00  0.00    +0.000 A 
ATOM     16 BR   UNL     1       4.545   2.979  11.394  0.00  0.00    +0.000 Br
ATOM     17  O   UNL     1       5.749   3.886  13.824  0.00  0.00    +0.000 OA
ENDBRANCH   9  12
ENDBRANCH   1   8
BRANCH   1  19
ATOM     18  O   UNL     1       8.224   6.825  18.802  0.00  0.00    +0.000 OA
ATOM     19  C   UNL     1       7.416   7.034  17.910  0.00  0.00    +0.000 C 
BRANCH  19  20
ATOM     20  OXT UNL     1       7.484   8.106  17.092  0.00  0.00    +0.000 OA
ATOM     21  HXT UNL     1       6.833   8.787  17.344  0.00  0.00    +0.000 HD
ENDBRANCH  19  20
ENDBRANCH   1  19
TORSDOF 5
ENDMDL
MODEL 7
REMARK VINA RESULT:      -6.8      2.712      5.304
REMARK  Name = 
REMARK  5 active torsions:
REMARK  status: ('A' for Active; 'I' for Inactive)
REMARK    1  A    between atoms: C_2  and  OXT_3
REMARK    2  A    between atoms: C_2  and  CA_4
REMARK    3  A    between atoms: CA_4  and  N_11
REMARK    4  A    between atoms: C_5  and  C_6
REMARK    5  A    between atoms: C_12  and  C_14
REMARK                            x       y       z     vdW  Elec       q    Type
REMARK                         _______ _______ _______ _____ _____    ______ ____
ROOT
ATOM      1  CA  UNL     1       6.664   4.629  16.270  0.00  0.00    +0.000 C 
ATOM      2  C   UNL     1       7.054   4.655  14.988  0.00  0.00    +0.000 C 
ENDROOT
BRANCH   2   3
ATOM      3  C   UNL     1       6.345   4.070  13.900  0.00  0.00    +0.000 A 
ATOM      4  C   UNL     1       6.858   3.580  12.703  0.00  0.00    +0.000 A 
ATOM      5  C   UNL     1       5.770   3.248  11.864  0.00  0.00    +0.000 A 
ATOM      6  C   UNL     1       4.643   3.503  12.601  0.00  0.00    +0.000 A 
ATOM      7  O   UNL     1       4.972   3.982  13.824  0.00  0.00    +0.000 OA
ENDBRANCH   2   3
BRANCH   1   8
ATOM      8  N   UNL     1       5.546   3.995  16.779  0.00  0.00    +0.000 N 
ATOM      9  C   UNL     1       4.407   4.668  17.185  0.00  0.00    +0.000 C 
ATOM     10  O   UNL     1       4.232   5.861  16.953  0.00  0.00    +0.000 OA
ATOM     11  H   UNL     1       5.650   3.034  17.091  0.00  0.00    +0.000 HD
BRANCH   9  12
ATOM     12  C   UNL     1       3.396   3.824  17.795  0.00  0.00    +0.000 A 
ATOM     13  C   UNL     1       2.616   2.802  17.276  0.00  0.00    +0.000 A 
ATOM     14  C   UNL     1       1.832   2.304  18.346  0.00  0.00    +0.000 A 
ATOM     15  C   UNL     1       2.179   3.043  19.451  0.00  0.00    +0.000 A 
ATOM     16 BR   UNL     1       1.467   2.823  21.161  0.00  0.00    +0.000 Br
ATOM     17  O   UNL     1       3.127   3.964  19.131  0.00  0.00    +0.000 OA
ENDBRANCH   9  12
ENDBRANCH   1   8
BRANCH   1  19
ATOM     18  O   UNL     1       7.680   6.696  16.977  0.00  0.00    +0.000 OA
ATOM     19  C   UNL     1       7.436   5.519  17.197  0.00  0.00    +0.000 C 
BRANCH  19  20
ATOM     20  OXT UNL     1       7.780   4.898  18.344  0.00  0.00    +0.000 OA
ATOM     21  HXT UNL     1       8.700   5.104  18.597  0.00  0.00    +0.000 HD
ENDBRANCH  19  20
ENDBRANCH   1  19
TORSDOF 5
ENDMDL
MODEL 8
REMARK VINA RESULT:      -6.7      4.377      6.553
REMARK  Name = 
REMARK  5 active torsions:
REMARK  status: ('A' for Active; 'I' for Inactive)
REMARK    1  A    between atoms: C_2  and  OXT_3
REMARK    2  A    between atoms: C_2  and  CA_4
REMARK    3  A    between atoms: CA_4  and  N_11
REMARK    4  A    between atoms: C_5  and  C_6
REMARK    5  A    between atoms: C_12  and  C_14
REMARK                            x       y       z     vdW  Elec       q    Type
REMARK                         _______ _______ _______ _____ _____    ______ ____
ROOT
ATOM      1  CA  UNL     1       4.272   4.813  17.351  0.00  0.00    +0.000 C 
ATOM      2  C   UNL     1       5.602   4.651  17.304  0.00  0.00    +0.000 C 
ENDROOT
BRANCH   2   3
ATOM      3  C   UNL     1       6.564   5.671  17.553  0.00  0.00    +0.000 A 
ATOM      4  C   UNL     1       7.503   5.736  18.578  0.00  0.00    +0.000 A 
ATOM      5  C   UNL     1       8.128   7.003  18.520  0.00  0.00    +0.000 A 
ATOM      6  C   UNL     1       7.579   7.636  17.436  0.00  0.00    +0.000 A 
ATOM      7  O   UNL     1       6.653   6.847  16.841  0.00  0.00    +0.000 OA
ENDBRANCH   2   3
BRANCH   1   8
ATOM      8  N   UNL     1       3.593   5.992  17.593  0.00  0.00    +0.000 N 
ATOM      9  C   UNL     1       3.151   6.373  18.848  0.00  0.00    +0.000 C 
ATOM     10  O   UNL     1       3.487   5.781  19.870  0.00  0.00    +0.000 OA
ATOM     11  H   UNL     1       3.193   6.479  16.796  0.00  0.00    +0.000 HD
BRANCH   9  12
ATOM     12  C   UNL     1       2.360   7.590  18.862  0.00  0.00    +0.000 A 
ATOM     13  C   UNL     1       2.008   8.469  17.850  0.00  0.00    +0.000 A 
ATOM     14  C   UNL     1       1.186   9.461  18.439  0.00  0.00    +0.000 A 
ATOM     15  C   UNL     1       1.079   9.130  19.769  0.00  0.00    +0.000 A 
ATOM     16 BR   UNL     1       0.105  10.083  21.042  0.00  0.00    +0.000 Br
ATOM     17  O   UNL     1       1.783   7.997  20.037  0.00  0.00    +0.000 OA
ENDBRANCH   9  12
ENDBRANCH   1   8
BRANCH   1  19
ATOM     18  O   UNL     1       2.307   3.486  16.923  0.00  0.00    +0.000 OA
ATOM     19  C   UNL     1       3.467   3.549  17.300  0.00  0.00    +0.000 C 
BRANCH  19  20
ATOM     20  OXT UNL     1       4.185   2.463  17.656  0.00  0.00    +0.000 OA
ATOM     21  HXT UNL     1       4.073   1.736  17.014  0.00  0.00    +0.000 HD
ENDBRANCH  19  20
ENDBRANCH   1  19
TORSDOF 5
ENDMDL
MODEL 9
REMARK VINA RESULT:      -6.7      2.684      5.249
REMARK  Name = 
REMARK  5 active torsions:
REMARK  status: ('A' for Active; 'I' for Inactive)
REMARK    1  A    between atoms: C_2  and  OXT_3
REMARK    2  A    between atoms: C_2  and  CA_4
REMARK    3  A    between atoms: CA_4  and  N_11
REMARK    4  A    between atoms: C_5  and  C_6
REMARK    5  A    between atoms: C_12  and  C_14
REMARK                            x       y       z     vdW  Elec       q    Type
REMARK                         _______ _______ _______ _____ _____    ______ ____
ROOT
ATOM      1  CA  UNL     1       6.719   5.886  16.679  0.00  0.00    +0.000 C 
ATOM      2  C   UNL     1       7.291   5.556  15.513  0.00  0.00    +0.000 C 
ENDROOT
BRANCH   2   3
ATOM      3  C   UNL     1       6.699   4.738  14.509  0.00  0.00    +0.000 A 
ATOM      4  C   UNL     1       7.230   4.366  13.278  0.00  0.00    +0.000 A 
ATOM      5  C   UNL     1       6.224   3.690  12.552  0.00  0.00    +0.000 A 
ATOM      6  C   UNL     1       5.139   3.635  13.387  0.00  0.00    +0.000 A 
ATOM      7  O   UNL     1       5.413   4.246  14.564  0.00  0.00    +0.000 OA
ENDBRANCH   2   3
BRANCH   1   8
ATOM      8  N   UNL     1       5.489   5.460  17.144  0.00  0.00    +0.000 N 
ATOM      9  C   UNL     1       5.337   4.487  18.116  0.00  0.00    +0.000 C 
ATOM     10  O   UNL     1       6.284   4.059  18.769  0.00  0.00    +0.000 OA
ATOM     11  H   UNL     1       4.669   5.690  16.588  0.00  0.00    +0.000 HD
BRANCH   9  12
ATOM     12  C   UNL     1       3.960   4.107  18.375  0.00  0.00    +0.000 A 
ATOM     13  C   UNL     1       2.875   3.947  17.527  0.00  0.00    +0.000 A 
ATOM     14  C   UNL     1       1.789   3.522  18.331  0.00  0.00    +0.000 A 
ATOM     15  C   UNL     1       2.271   3.443  19.616  0.00  0.00    +0.000 A 
ATOM     16 BR   UNL     1       1.280   2.925  21.108  0.00  0.00    +0.000 Br
ATOM     17  O   UNL     1       3.585   3.792  19.655  0.00  0.00    +0.000 OA
ENDBRANCH   9  12
ENDBRANCH   1   8
BRANCH   1  19
ATOM     18  O   UNL     1       7.478   8.127  17.131  0.00  0.00    +0.000 OA
ATOM     19  C   UNL     1       7.423   6.953  17.462  0.00  0.00    +0.000 C 
BRANCH  19  20
ATOM     20  OXT UNL     1       7.940   6.490  18.620  0.00  0.00    +0.000 OA
ATOM     21  HXT UNL     1       8.611   5.800  18.458  0.00  0.00    +0.000 HD
ENDBRANCH  19  20
ENDBRANCH   1  19
TORSDOF 5
ENDMDL
