MODEL 1
REMARK VINA RESULT:      -8.0      0.000      0.000
REMARK  Name = 
REMARK  11 active torsions:
REMARK  status: ('A' for Active; 'I' for Inactive)
REMARK    1  A    between atoms: C_1  and  C_2
REMARK    2  A    between atoms: C_2  and  O_3
REMARK    3  A    between atoms: O_3  and  C_4
REMARK    4  A    between atoms: C_4  and  C_6
REMARK    5  A    between atoms: C_8  and  C_9
REMARK    6  A    between atoms: C_9  and  N_10
REMARK    7  A    between atoms: C_13  and  C_14
REMARK    8  A    between atoms: C_14  and  N_15
REMARK    9  A    between atoms: C_16  and  C_18
REMARK   10  A    between atoms: C_24  and  O_25
REMARK   11  A    between atoms: O_25  and  C_26
REMARK                            x       y       z     vdW  Elec       q    Type
REMARK                         _______ _______ _______ _____ _____    ______ ____
ROOT
ATOM      1  N   UNL     1       2.625   2.343  18.819  0.00  0.00    +0.000 NA
ATOM      2  C   UNL     1       3.040   2.269  20.223  0.00  0.00    +0.000 C 
ATOM      3  C   UNL     1       1.901   2.603  21.188  0.00  0.00    +0.000 C 
ATOM      4  C   UNL     1       1.266   3.966  20.876  0.00  0.00    +0.000 C 
ATOM      5  C   UNL     1       0.801   3.942  19.415  0.00  0.00    +0.000 C 
ATOM      6  C   UNL     1       1.936   3.584  18.452  0.00  0.00    +0.000 C 
ENDROOT
BRANCH   1   7
ATOM      7  C   UNL     1       3.732   2.001  17.901  0.00  0.00    +0.000 C 
BRANCH   7  10
ATOM      8  C   UNL     1       6.102   4.778  17.908  0.00  0.00    +0.000 A 
ATOM      9  N   UNL     1       5.487   3.732  18.436  0.00  0.00    +0.000 NA
ATOM     10  C   UNL     1       4.588   3.185  17.515  0.00  0.00    +0.000 A 
ATOM     11  C   UNL     1       4.578   3.821  16.286  0.00  0.00    +0.000 A 
ATOM     12  S   UNL     1       5.641   5.158  16.295  0.00  0.00    +0.000 S 
BRANCH   8  13
ATOM     13  C   UNL     1       7.150   5.569  18.544  0.00  0.00    +0.000 C 
ATOM     14  O   UNL     1       7.899   5.180  19.437  0.00  0.00    +0.000 OA
BRANCH  13  15
ATOM     15  O   UNL     1       7.155   6.851  18.067  0.00  0.00    +0.000 OA
BRANCH  15  17
ATOM     16  C   UNL     1       8.208   9.095  17.959  0.00  0.00    +0.000 C 
ATOM     17  C   UNL     1       8.266   7.668  18.476  0.00  0.00    +0.000 C 
ENDBRANCH  15  17
ENDBRANCH  13  15
ENDBRANCH   8  13
ENDBRANCH   7  10
ENDBRANCH   1   7
BRANCH   4  18
ATOM     18  C   UNL     1       2.216   5.152  21.140  0.00  0.00    +0.000 C 
BRANCH  18  19
ATOM     19  N   UNL     1       1.762   6.380  20.524  0.00  0.00    +0.000 N 
ATOM     20  C   UNL     1       2.467   7.047  19.548  0.00  0.00    +0.000 C 
ATOM     21  O   UNL     1       3.563   6.686  19.137  0.00  0.00    +0.000 OA
ATOM     22  H   UNL     1       0.853   6.773  20.750  0.00  0.00    +0.000 HD
BRANCH  20  23
ATOM     23  C   UNL     1       1.771   8.250  19.051  0.00  0.00    +0.000 A 
ATOM     24  N   UNL     1       1.725   8.528  17.728  0.00  0.00    +0.000 NA
ATOM     25  N   UNL     1       1.025   9.671  17.665  0.00  0.00    +0.000 N 
ATOM     26  C   UNL     1       0.603  10.147  18.875  0.00  0.00    +0.000 A 
ATOM     27  C   UNL     1      -0.148  11.275  19.214  0.00  0.00    +0.000 A 
ATOM     28  C   UNL     1      -0.415  11.485  20.571  0.00  0.00    +0.000 A 
ATOM     29  C   UNL     1       0.053  10.603  21.548  0.00  0.00    +0.000 A 
ATOM     30  C   UNL     1       0.808   9.479  21.176  0.00  0.00    +0.000 A 
ATOM     31  C   UNL     1       1.083   9.242  19.814  0.00  0.00    +0.000 A 
ATOM     32  H   UNL     1       0.864  10.089  16.754  0.00  0.00    +0.000 HD
BRANCH  29  33
ATOM     33  O   UNL     1      -0.161  10.727  22.896  0.00  0.00    +0.000 OA
ATOM     34  C   UNL     1      -0.044   9.546  23.681  0.00  0.00    +0.000 C 
ENDBRANCH  29  33
ENDBRANCH  20  23
ENDBRANCH  18  19
ENDBRANCH   4  18
TORSDOF 9
ENDMDL
MODEL 2
REMARK VINA RESULT:      -7.8      2.654      7.898
REMARK  Name = 
REMARK  11 active torsions:
REMARK  status: ('A' for Active; 'I' for Inactive)
REMARK    1  A    between atoms: C_1  and  C_2
REMARK    2  A    between atoms: C_2  and  O_3
REMARK    3  A    between atoms: O_3  and  C_4
REMARK    4  A    between atoms: C_4  and  C_6
REMARK    5  A    between atoms: C_8  and  C_9
REMARK    6  A    between atoms: C_9  and  N_10
REMARK    7  A    between atoms: C_13  and  C_14
REMARK    8  A    between atoms: C_14  and  N_15
REMARK    9  A    between atoms: C_16  and  C_18
REMARK   10  A    between atoms: C_24  and  O_25
REMARK   11  A    between atoms: O_25  and  C_26
REMARK                            x       y       z     vdW  Elec       q    Type
REMARK                         _______ _______ _______ _____ _____    ______ ____
ROOT
ATOM      1  N   UNL     1       1.658   5.622  19.394  0.00  0.00    +0.000 NA
ATOM      2  C   UNL     1       1.838   4.995  18.081  0.00  0.00    +0.000 C 
ATOM      3  C   UNL     1       0.937   3.774  17.887  0.00  0.00    +0.000 C 
ATOM      4  C   UNL     1       1.114   2.746  19.013  0.00  0.00    +0.000 C 
ATOM      5  C   UNL     1       0.845   3.459  20.344  0.00  0.00    +0.000 C 
ATOM      6  C   UNL     1       1.732   4.695  20.527  0.00  0.00    +0.000 C 
ENDROOT
BRANCH   1   7
ATOM      7  C   UNL     1       2.523   6.809  19.559  0.00  0.00    +0.000 C 
BRANCH   7  10
ATOM      8  C   UNL     1       0.615   9.402  21.278  0.00  0.00    +0.000 A 
ATOM      9  N   UNL     1       1.277   8.259  21.203  0.00  0.00    +0.000 NA
ATOM     10  C   UNL     1       1.765   8.068  19.907  0.00  0.00    +0.000 A 
ATOM     11  C   UNL     1       1.486   9.108  19.037  0.00  0.00    +0.000 A 
ATOM     12  S   UNL     1       0.543  10.302  19.813  0.00  0.00    +0.000 S 
BRANCH   8  13
ATOM     13  C   UNL     1       0.014   9.970  22.481  0.00  0.00    +0.000 C 
ATOM     14  O   UNL     1       0.359   9.730  23.636  0.00  0.00    +0.000 OA
BRANCH  13  15
ATOM     15  O   UNL     1      -1.054  10.765  22.168  0.00  0.00    +0.000 OA
BRANCH  15  17
ATOM     16  C   UNL     1      -2.872  12.283  22.908  0.00  0.00    +0.000 C 
ATOM     17  C   UNL     1      -1.573  11.568  23.242  0.00  0.00    +0.000 C 
ENDBRANCH  15  17
ENDBRANCH  13  15
ENDBRANCH   8  13
ENDBRANCH   7  10
ENDBRANCH   1   7
BRANCH   4  18
ATOM     18  C   UNL     1       2.502   2.074  19.010  0.00  0.00    +0.000 C 
BRANCH  18  19
ATOM     19  N   UNL     1       3.566   2.990  18.660  0.00  0.00    +0.000 N 
ATOM     20  C   UNL     1       4.740   3.098  19.370  0.00  0.00    +0.000 C 
ATOM     21  O   UNL     1       4.979   2.458  20.387  0.00  0.00    +0.000 OA
ATOM     22  H   UNL     1       3.510   3.559  17.821  0.00  0.00    +0.000 HD
BRANCH  20  23
ATOM     23  C   UNL     1       5.682   4.072  18.785  0.00  0.00    +0.000 A 
ATOM     24  N   UNL     1       6.453   4.853  19.577  0.00  0.00    +0.000 NA
ATOM     25  N   UNL     1       7.159   5.592  18.708  0.00  0.00    +0.000 N 
ATOM     26  C   UNL     1       6.898   5.327  17.392  0.00  0.00    +0.000 A 
ATOM     27  C   UNL     1       7.430   5.864  16.218  0.00  0.00    +0.000 A 
ATOM     28  C   UNL     1       6.940   5.368  15.004  0.00  0.00    +0.000 A 
ATOM     29  C   UNL     1       5.956   4.377  14.970  0.00  0.00    +0.000 A 
ATOM     30  C   UNL     1       5.438   3.859  16.168  0.00  0.00    +0.000 A 
ATOM     31  C   UNL     1       5.922   4.338  17.403  0.00  0.00    +0.000 A 
ATOM     32  H   UNL     1       7.816   6.273  19.075  0.00  0.00    +0.000 HD
BRANCH  29  33
ATOM     33  O   UNL     1       5.419   3.832  13.833  0.00  0.00    +0.000 OA
ATOM     34  C   UNL     1       6.305   3.613  12.741  0.00  0.00    +0.000 C 
ENDBRANCH  29  33
ENDBRANCH  20  23
ENDBRANCH  18  19
ENDBRANCH   4  18
TORSDOF 9
ENDMDL
MODEL 3
REMARK VINA RESULT:      -7.6      2.395      7.665
REMARK  Name = 
REMARK  11 active torsions:
REMARK  status: ('A' for Active; 'I' for Inactive)
REMARK    1  A    between atoms: C_1  and  C_2
REMARK    2  A    between atoms: C_2  and  O_3
REMARK    3  A    between atoms: O_3  and  C_4
REMARK    4  A    between atoms: C_4  and  C_6
REMARK    5  A    between atoms: C_8  and  C_9
REMARK    6  A    between atoms: C_9  and  N_10
REMARK    7  A    between atoms: C_13  and  C_14
REMARK    8  A    between atoms: C_14  and  N_15
REMARK    9  A    between atoms: C_16  and  C_18
REMARK   10  A    between atoms: C_24  and  O_25
REMARK   11  A    between atoms: O_25  and  C_26
REMARK                            x       y       z     vdW  Elec       q    Type
REMARK                         _______ _______ _______ _____ _____    ______ ____
ROOT
ATOM      1  N   UNL     1       1.755   5.468  19.465  0.00  0.00    +0.000 NA
ATOM      2  C   UNL     1       1.950   4.987  18.094  0.00  0.00    +0.000 C 
ATOM      3  C   UNL     1       1.030   3.815  17.748  0.00  0.00    +0.000 C 
ATOM      4  C   UNL     1       1.163   2.664  18.755  0.00  0.00    +0.000 C 
ATOM      5  C   UNL     1       0.880   3.231  20.153  0.00  0.00    +0.000 C 
ATOM      6  C   UNL     1       1.786   4.419  20.489  0.00  0.00    +0.000 C 
ENDROOT
BRANCH   1   7
ATOM      7  C   UNL     1       2.639   6.610  19.778  0.00  0.00    +0.000 C 
BRANCH   7  10
ATOM      8  C   UNL     1       0.867   9.795  19.577  0.00  0.00    +0.000 A 
ATOM      9  N   UNL     1       1.265   8.686  20.180  0.00  0.00    +0.000 NA
ATOM     10  C   UNL     1       2.089   7.944  19.329  0.00  0.00    +0.000 A 
ATOM     11  C   UNL     1       2.324   8.541  18.103  0.00  0.00    +0.000 A 
ATOM     12  S   UNL     1       1.453  10.005  17.974  0.00  0.00    +0.000 S 
BRANCH   8  13
ATOM     13  C   UNL     1       0.047  10.847  20.169  0.00  0.00    +0.000 C 
ATOM     14  O   UNL     1       0.121  12.046  19.908  0.00  0.00    +0.000 OA
BRANCH  13  15
ATOM     15  O   UNL     1      -0.788  10.340  21.127  0.00  0.00    +0.000 OA
BRANCH  15  17
ATOM     16  C   UNL     1      -0.164   9.563  23.399  0.00  0.00    +0.000 C 
ATOM     17  C   UNL     1      -0.497  10.727  22.481  0.00  0.00    +0.000 C 
ENDBRANCH  15  17
ENDBRANCH  13  15
ENDBRANCH   8  13
ENDBRANCH   7  10
ENDBRANCH   1   7
BRANCH   4  18
ATOM     18  C   UNL     1       2.537   1.968  18.704  0.00  0.00    +0.000 C 
BRANCH  18  19
ATOM     19  N   UNL     1       3.610   2.872  18.353  0.00  0.00    +0.000 N 
ATOM     20  C   UNL     1       4.724   3.071  19.137  0.00  0.00    +0.000 C 
ATOM     21  O   UNL     1       4.893   2.532  20.225  0.00  0.00    +0.000 OA
ATOM     22  H   UNL     1       3.612   3.361  17.463  0.00  0.00    +0.000 HD
BRANCH  20  23
ATOM     23  C   UNL     1       5.692   4.010  18.539  0.00  0.00    +0.000 A 
ATOM     24  N   UNL     1       6.513   4.752  19.319  0.00  0.00    +0.000 NA
ATOM     25  N   UNL     1       7.230   5.467  18.439  0.00  0.00    +0.000 N 
ATOM     26  C   UNL     1       6.930   5.224  17.128  0.00  0.00    +0.000 A 
ATOM     27  C   UNL     1       7.458   5.747  15.946  0.00  0.00    +0.000 A 
ATOM     28  C   UNL     1       6.922   5.281  14.740  0.00  0.00    +0.000 A 
ATOM     29  C   UNL     1       5.897   4.333  14.720  0.00  0.00    +0.000 A 
ATOM     30  C   UNL     1       5.383   3.828  15.926  0.00  0.00    +0.000 A 
ATOM     31  C   UNL     1       5.914   4.276  17.153  0.00  0.00    +0.000 A 
ATOM     32  H   UNL     1       7.922   6.118  18.797  0.00  0.00    +0.000 HD
BRANCH  29  33
ATOM     33  O   UNL     1       5.313   3.819  13.592  0.00  0.00    +0.000 OA
ATOM     34  C   UNL     1       6.182   3.445  12.528  0.00  0.00    +0.000 C 
ENDBRANCH  29  33
ENDBRANCH  20  23
ENDBRANCH  18  19
ENDBRANCH   4  18
TORSDOF 9
ENDMDL
MODEL 4
REMARK VINA RESULT:      -7.6      2.855      7.916
REMARK  Name = 
REMARK  11 active torsions:
REMARK  status: ('A' for Active; 'I' for Inactive)
REMARK    1  A    between atoms: C_1  and  C_2
REMARK    2  A    between atoms: C_2  and  O_3
REMARK    3  A    between atoms: O_3  and  C_4
REMARK    4  A    between atoms: C_4  and  C_6
REMARK    5  A    between atoms: C_8  and  C_9
REMARK    6  A    between atoms: C_9  and  N_10
REMARK    7  A    between atoms: C_13  and  C_14
REMARK    8  A    between atoms: C_14  and  N_15
REMARK    9  A    between atoms: C_16  and  C_18
REMARK   10  A    between atoms: C_24  and  O_25
REMARK   11  A    between atoms: O_25  and  C_26
REMARK                            x       y       z     vdW  Elec       q    Type
REMARK                         _______ _______ _______ _____ _____    ______ ____
ROOT
ATOM      1  N   UNL     1       1.669   5.689  19.481  0.00  0.00    +0.000 NA
ATOM      2  C   UNL     1       1.946   5.175  18.136  0.00  0.00    +0.000 C 
ATOM      3  C   UNL     1       1.073   3.970  17.779  0.00  0.00    +0.000 C 
ATOM      4  C   UNL     1       1.182   2.852  18.826  0.00  0.00    +0.000 C 
ATOM      5  C   UNL     1       0.815   3.451  20.190  0.00  0.00    +0.000 C 
ATOM      6  C   UNL     1       1.674   4.671  20.536  0.00  0.00    +0.000 C 
ENDROOT
BRANCH   1   7
ATOM      7  C   UNL     1       2.508   6.863  19.804  0.00  0.00    +0.000 C 
BRANCH   7  10
ATOM      8  C   UNL     1       0.679  10.020  19.709  0.00  0.00    +0.000 A 
ATOM      9  N   UNL     1       1.328   9.000  19.171  0.00  0.00    +0.000 NA
ATOM     10  C   UNL     1       1.713   8.095  20.166  0.00  0.00    +0.000 A 
ATOM     11  C   UNL     1       1.304   8.444  21.441  0.00  0.00    +0.000 A 
ATOM     12  S   UNL     1       0.496   9.949  21.419  0.00  0.00    +0.000 S 
BRANCH   8  13
ATOM     13  C   UNL     1       0.072  11.131  18.983  0.00  0.00    +0.000 C 
ATOM     14  O   UNL     1       0.650  12.155  18.628  0.00  0.00    +0.000 OA
BRANCH  13  15
ATOM     15  O   UNL     1      -1.269  10.925  18.802  0.00  0.00    +0.000 OA
BRANCH  15  17
ATOM     16  C   UNL     1      -3.073   9.787  17.536  0.00  0.00    +0.000 C 
ATOM     17  C   UNL     1      -1.646  10.307  17.560  0.00  0.00    +0.000 C 
ENDBRANCH  15  17
ENDBRANCH  13  15
ENDBRANCH   8  13
ENDBRANCH   7  10
ENDBRANCH   1   7
BRANCH   4  18
ATOM     18  C   UNL     1       2.575   2.190  18.864  0.00  0.00    +0.000 C 
BRANCH  18  19
ATOM     19  N   UNL     1       3.631   3.082  18.439  0.00  0.00    +0.000 N 
ATOM     20  C   UNL     1       4.828   3.215  19.105  0.00  0.00    +0.000 C 
ATOM     21  O   UNL     1       5.097   2.619  20.141  0.00  0.00    +0.000 OA
ATOM     22  H   UNL     1       3.550   3.614  17.577  0.00  0.00    +0.000 HD
BRANCH  20  23
ATOM     23  C   UNL     1       5.755   4.156  18.446  0.00  0.00    +0.000 A 
ATOM     24  N   UNL     1       6.509   5.011  19.175  0.00  0.00    +0.000 NA
ATOM     25  N   UNL     1       7.205   5.691  18.251  0.00  0.00    +0.000 N 
ATOM     26  C   UNL     1       6.954   5.317  16.961  0.00  0.00    +0.000 A 
ATOM     27  C   UNL     1       7.482   5.767  15.748  0.00  0.00    +0.000 A 
ATOM     28  C   UNL     1       7.006   5.167  14.577  0.00  0.00    +0.000 A 
ATOM     29  C   UNL     1       6.040   4.159  14.619  0.00  0.00    +0.000 A 
ATOM     30  C   UNL     1       5.526   3.730  15.854  0.00  0.00    +0.000 A 
ATOM     31  C   UNL     1       5.996   4.314  17.048  0.00  0.00    +0.000 A 
ATOM     32  H   UNL     1       7.848   6.411  18.565  0.00  0.00    +0.000 HD
BRANCH  29  33
ATOM     33  O   UNL     1       5.518   3.515  13.528  0.00  0.00    +0.000 OA
ATOM     34  C   UNL     1       6.322   3.476  12.355  0.00  0.00    +0.000 C 
ENDBRANCH  29  33
ENDBRANCH  20  23
ENDBRANCH  18  19
ENDBRANCH   4  18
TORSDOF 9
ENDMDL
MODEL 5
REMARK VINA RESULT:      -7.5      1.767      2.155
REMARK  Name = 
REMARK  11 active torsions:
REMARK  status: ('A' for Active; 'I' for Inactive)
REMARK    1  A    between atoms: C_1  and  C_2
REMARK    2  A    between atoms: C_2  and  O_3
REMARK    3  A    between atoms: O_3  and  C_4
REMARK    4  A    between atoms: C_4  and  C_6
REMARK    5  A    between atoms: C_8  and  C_9
REMARK    6  A    between atoms: C_9  and  N_10
REMARK    7  A    between atoms: C_13  and  C_14
REMARK    8  A    between atoms: C_14  and  N_15
REMARK    9  A    between atoms: C_16  and  C_18
REMARK   10  A    between atoms: C_24  and  O_25
REMARK   11  A    between atoms: O_25  and  C_26
REMARK                            x       y       z     vdW  Elec       q    Type
REMARK                         _______ _______ _______ _____ _____    ______ ____
ROOT
ATOM      1  N   UNL     1       2.482   2.376  18.854  0.00  0.00    +0.000 NA
ATOM      2  C   UNL     1       2.893   2.270  20.257  0.00  0.00    +0.000 C 
ATOM      3  C   UNL     1       1.758   2.607  21.225  0.00  0.00    +0.000 C 
ATOM      4  C   UNL     1       1.147   3.985  20.937  0.00  0.00    +0.000 C 
ATOM      5  C   UNL     1       0.683   3.994  19.474  0.00  0.00    +0.000 C 
ATOM      6  C   UNL     1       1.815   3.634  18.507  0.00  0.00    +0.000 C 
ENDROOT
BRANCH   1   7
ATOM      7  C   UNL     1       3.585   2.031  17.931  0.00  0.00    +0.000 C 
BRANCH   7  10
ATOM      8  C   UNL     1       5.752   4.621  16.543  0.00  0.00    +0.000 A 
ATOM      9  N   UNL     1       4.807   3.696  16.483  0.00  0.00    +0.000 NA
ATOM     10  C   UNL     1       4.592   3.142  17.749  0.00  0.00    +0.000 A 
ATOM     11  C   UNL     1       5.366   3.702  18.751  0.00  0.00    +0.000 A 
ATOM     12  S   UNL     1       6.426   4.875  18.106  0.00  0.00    +0.000 S 
BRANCH   8  13
ATOM     13  C   UNL     1       6.207   5.457  15.437  0.00  0.00    +0.000 C 
ATOM     14  O   UNL     1       5.649   6.473  15.030  0.00  0.00    +0.000 OA
BRANCH  13  15
ATOM     15  O   UNL     1       7.319   4.924  14.844  0.00  0.00    +0.000 OA
BRANCH  15  17
ATOM     16  C   UNL     1       8.245   5.689  12.673  0.00  0.00    +0.000 C 
ATOM     17  C   UNL     1       7.264   4.795  13.413  0.00  0.00    +0.000 C 
ENDBRANCH  15  17
ENDBRANCH  13  15
ENDBRANCH   8  13
ENDBRANCH   7  10
ENDBRANCH   1   7
BRANCH   4  18
ATOM     18  C   UNL     1       2.115   5.151  21.222  0.00  0.00    +0.000 C 
BRANCH  18  19
ATOM     19  N   UNL     1       1.710   6.384  20.584  0.00  0.00    +0.000 N 
ATOM     20  C   UNL     1       2.454   7.020  19.617  0.00  0.00    +0.000 C 
ATOM     21  O   UNL     1       3.548   6.624  19.233  0.00  0.00    +0.000 OA
ATOM     22  H   UNL     1       0.808   6.805  20.788  0.00  0.00    +0.000 HD
BRANCH  20  23
ATOM     23  C   UNL     1       1.803   8.237  19.094  0.00  0.00    +0.000 A 
ATOM     24  N   UNL     1       1.819   8.518  17.770  0.00  0.00    +0.000 NA
ATOM     25  N   UNL     1       1.145   9.674  17.680  0.00  0.00    +0.000 N 
ATOM     26  C   UNL     1       0.681  10.157  18.872  0.00  0.00    +0.000 A 
ATOM     27  C   UNL     1      -0.061  11.299  19.181  0.00  0.00    +0.000 A 
ATOM     28  C   UNL     1      -0.383  11.512  20.526  0.00  0.00    +0.000 A 
ATOM     29  C   UNL     1       0.026  10.620  21.520  0.00  0.00    +0.000 A 
ATOM     30  C   UNL     1       0.775   9.482  21.179  0.00  0.00    +0.000 A 
ATOM     31  C   UNL     1       1.103   9.242  19.829  0.00  0.00    +0.000 A 
ATOM     32  H   UNL     1       1.031  10.096  16.764  0.00  0.00    +0.000 HD
BRANCH  29  33
ATOM     33  O   UNL     1      -0.242  10.747  22.858  0.00  0.00    +0.000 OA
ATOM     34  C   UNL     1      -1.318  11.603  23.223  0.00  0.00    +0.000 C 
ENDBRANCH  29  33
ENDBRANCH  20  23
ENDBRANCH  18  19
ENDBRANCH   4  18
TORSDOF 9
ENDMDL
MODEL 6
REMARK VINA RESULT:      -7.3      4.651     10.291
REMARK  Name = 
REMARK  11 active torsions:
REMARK  status: ('A' for Active; 'I' for Inactive)
REMARK    1  A    between atoms: C_1  and  C_2
REMARK    2  A    between atoms: C_2  and  O_3
REMARK    3  A    between atoms: O_3  and  C_4
REMARK    4  A    between atoms: C_4  and  C_6
REMARK    5  A    between atoms: C_8  and  C_9
REMARK    6  A    between atoms: C_9  and  N_10
REMARK    7  A    between atoms: C_13  and  C_14
REMARK    8  A    between atoms: C_14  and  N_15
REMARK    9  A    between atoms: C_16  and  C_18
REMARK   10  A    between atoms: C_24  and  O_25
REMARK   11  A    between atoms: O_25  and  C_26
REMARK                            x       y       z     vdW  Elec       q    Type
REMARK                         _______ _______ _______ _____ _____    ______ ____
ROOT
ATOM      1  N   UNL     1      -0.999  11.265  22.151  0.00  0.00    +0.000 NA
ATOM      2  C   UNL     1      -0.557  11.190  20.755  0.00  0.00    +0.000 C 
ATOM      3  C   UNL     1      -0.741   9.794  20.158  0.00  0.00    +0.000 C 
ATOM      4  C   UNL     1      -0.058   8.712  21.007  0.00  0.00    +0.000 C 
ATOM      5  C   UNL     1      -0.619   8.812  22.431  0.00  0.00    +0.000 C 
ATOM      6  C   UNL     1      -0.456  10.217  23.020  0.00  0.00    +0.000 C 
ENDROOT
BRANCH   1   7
ATOM      7  C   UNL     1      -0.831  12.625  22.709  0.00  0.00    +0.000 C 
BRANCH   7  10
ATOM      8  C   UNL     1      -4.334  13.318  23.464  0.00  0.00    +0.000 A 
ATOM      9  N   UNL     1      -3.337  12.590  22.987  0.00  0.00    +0.000 NA
ATOM     10  C   UNL     1      -2.118  13.241  23.203  0.00  0.00    +0.000 A 
ATOM     11  C   UNL     1      -2.228  14.442  23.882  0.00  0.00    +0.000 A 
ATOM     12  S   UNL     1      -3.868  14.807  24.191  0.00  0.00    +0.000 S 
BRANCH   8  13
ATOM     13  C   UNL     1      -5.744  12.941  23.477  0.00  0.00    +0.000 C 
ATOM     14  O   UNL     1      -6.275  12.185  24.286  0.00  0.00    +0.000 OA
BRANCH  13  15
ATOM     15  O   UNL     1      -6.407  13.485  22.411  0.00  0.00    +0.000 OA
BRANCH  15  17
ATOM     16  C   UNL     1      -6.922  11.703  20.764  0.00  0.00    +0.000 C 
ATOM     17  C   UNL     1      -7.431  12.663  21.825  0.00  0.00    +0.000 C 
ENDBRANCH  15  17
ENDBRANCH  13  15
ENDBRANCH   8  13
ENDBRANCH   7  10
ENDBRANCH   1   7
BRANCH   4  18
ATOM     18  C   UNL     1       1.480   8.820  21.005  0.00  0.00    +0.000 C 
BRANCH  18  19
ATOM     19  N   UNL     1       2.110   7.810  20.184  0.00  0.00    +0.000 N 
ATOM     20  C   UNL     1       2.300   7.943  18.827  0.00  0.00    +0.000 C 
ATOM     21  O   UNL     1       1.917   8.910  18.180  0.00  0.00    +0.000 OA
ATOM     22  H   UNL     1       2.502   6.969  20.598  0.00  0.00    +0.000 HD
BRANCH  20  23
ATOM     23  C   UNL     1       3.005   6.793  18.226  0.00  0.00    +0.000 A 
ATOM     24  N   UNL     1       3.989   6.981  17.317  0.00  0.00    +0.000 NA
ATOM     25  N   UNL     1       4.380   5.736  17.006  0.00  0.00    +0.000 N 
ATOM     26  C   UNL     1       3.711   4.747  17.672  0.00  0.00    +0.000 A 
ATOM     27  C   UNL     1       3.839   3.357  17.633  0.00  0.00    +0.000 A 
ATOM     28  C   UNL     1       2.986   2.609  18.453  0.00  0.00    +0.000 A 
ATOM     29  C   UNL     1       2.042   3.230  19.275  0.00  0.00    +0.000 A 
ATOM     30  C   UNL     1       1.935   4.630  19.290  0.00  0.00    +0.000 A 
ATOM     31  C   UNL     1       2.789   5.404  18.478  0.00  0.00    +0.000 A 
ATOM     32  H   UNL     1       5.119   5.619  16.321  0.00  0.00    +0.000 HD
BRANCH  29  33
ATOM     33  O   UNL     1       1.169   2.582  20.110  0.00  0.00    +0.000 OA
ATOM     34  C   UNL     1       1.455   2.624  21.503  0.00  0.00    +0.000 C 
ENDBRANCH  29  33
ENDBRANCH  20  23
ENDBRANCH  18  19
ENDBRANCH   4  18
TORSDOF 9
ENDMDL
MODEL 7
REMARK VINA RESULT:      -7.3      2.478      3.497
REMARK  Name = 
REMARK  11 active torsions:
REMARK  status: ('A' for Active; 'I' for Inactive)
REMARK    1  A    between atoms: C_1  and  C_2
REMARK    2  A    between atoms: C_2  and  O_3
REMARK    3  A    between atoms: O_3  and  C_4
REMARK    4  A    between atoms: C_4  and  C_6
REMARK    5  A    between atoms: C_8  and  C_9
REMARK    6  A    between atoms: C_9  and  N_10
REMARK    7  A    between atoms: C_13  and  C_14
REMARK    8  A    between atoms: C_14  and  N_15
REMARK    9  A    between atoms: C_16  and  C_18
REMARK   10  A    between atoms: C_24  and  O_25
REMARK   11  A    between atoms: O_25  and  C_26
REMARK                            x       y       z     vdW  Elec       q    Type
REMARK                         _______ _______ _______ _____ _____    ______ ____
ROOT
ATOM      1  N   UNL     1       2.583   2.700  19.088  0.00  0.00    +0.000 NA
ATOM      2  C   UNL     1       3.217   2.905  20.394  0.00  0.00    +0.000 C 
ATOM      3  C   UNL     1       2.228   3.392  21.454  0.00  0.00    +0.000 C 
ATOM      4  C   UNL     1       1.480   4.655  21.004  0.00  0.00    +0.000 C 
ATOM      5  C   UNL     1       0.792   4.341  19.670  0.00  0.00    +0.000 C 
ATOM      6  C   UNL     1       1.780   3.831  18.616  0.00  0.00    +0.000 C 
ENDROOT
BRANCH   1   7
ATOM      7  C   UNL     1       3.549   2.214  18.079  0.00  0.00    +0.000 C 
BRANCH   7  10
ATOM      8  C   UNL     1       5.982   4.348  16.391  0.00  0.00    +0.000 A 
ATOM      9  N   UNL     1       4.974   3.492  16.437  0.00  0.00    +0.000 NA
ATOM     10  C   UNL     1       4.647   3.203  17.766  0.00  0.00    +0.000 A 
ATOM     11  C   UNL     1       5.404   3.889  18.699  0.00  0.00    +0.000 A 
ATOM     12  S   UNL     1       6.586   4.848  17.923  0.00  0.00    +0.000 S 
BRANCH   8  13
ATOM     13  C   UNL     1       6.561   4.929  15.184  0.00  0.00    +0.000 C 
ATOM     14  O   UNL     1       7.550   5.658  15.143  0.00  0.00    +0.000 OA
BRANCH  13  15
ATOM     15  O   UNL     1       5.813   4.618  14.082  0.00  0.00    +0.000 OA
BRANCH  15  17
ATOM     16  C   UNL     1       5.681   3.306  11.981  0.00  0.00    +0.000 C 
ATOM     17  C   UNL     1       6.148   3.384  13.425  0.00  0.00    +0.000 C 
ENDBRANCH  15  17
ENDBRANCH  13  15
ENDBRANCH   8  13
ENDBRANCH   7  10
ENDBRANCH   1   7
BRANCH   4  18
ATOM     18  C   UNL     1       2.393   5.892  20.883  0.00  0.00    +0.000 C 
BRANCH  18  19
ATOM     19  N   UNL     1       1.690   7.133  21.123  0.00  0.00    +0.000 N 
ATOM     20  C   UNL     1       1.613   8.153  20.202  0.00  0.00    +0.000 C 
ATOM     21  O   UNL     1       2.165   8.123  19.109  0.00  0.00    +0.000 OA
ATOM     22  H   UNL     1       1.162   7.277  21.979  0.00  0.00    +0.000 HD
BRANCH  20  23
ATOM     23  C   UNL     1       0.803   9.294  20.671  0.00  0.00    +0.000 A 
ATOM     24  N   UNL     1       0.930   9.762  21.935  0.00  0.00    +0.000 NA
ATOM     25  N   UNL     1       0.053  10.777  21.990  0.00  0.00    +0.000 N 
ATOM     26  C   UNL     1      -0.629  11.002  20.827  0.00  0.00    +0.000 A 
ATOM     27  C   UNL     1      -1.593  11.956  20.491  0.00  0.00    +0.000 A 
ATOM     28  C   UNL     1      -2.107  11.920  19.189  0.00  0.00    +0.000 A 
ATOM     29  C   UNL     1      -1.676  10.965  18.265  0.00  0.00    +0.000 A 
ATOM     30  C   UNL     1      -0.708  10.017  18.634  0.00  0.00    +0.000 A 
ATOM     31  C   UNL     1      -0.169  10.039  19.937  0.00  0.00    +0.000 A 
ATOM     32  H   UNL     1      -0.039  11.288  22.861  0.00  0.00    +0.000 HD
BRANCH  29  33
ATOM     33  O   UNL     1      -2.120  10.855  16.974  0.00  0.00    +0.000 OA
ATOM     34  C   UNL     1      -3.528  10.890  16.769  0.00  0.00    +0.000 C 
ENDBRANCH  29  33
ENDBRANCH  20  23
ENDBRANCH  18  19
ENDBRANCH   4  18
TORSDOF 9
ENDMDL
MODEL 8
REMARK VINA RESULT:      -7.1      3.019      4.118
REMARK  Name = 
REMARK  11 active torsions:
REMARK  status: ('A' for Active; 'I' for Inactive)
REMARK    1  A    between atoms: C_1  and  C_2
REMARK    2  A    between atoms: C_2  and  O_3
REMARK    3  A    between atoms: O_3  and  C_4
REMARK    4  A    between atoms: C_4  and  C_6
REMARK    5  A    between atoms: C_8  and  C_9
REMARK    6  A    between atoms: C_9  and  N_10
REMARK    7  A    between atoms: C_13  and  C_14
REMARK    8  A    between atoms: C_14  and  N_15
REMARK    9  A    between atoms: C_16  and  C_18
REMARK   10  A    between atoms: C_24  and  O_25
REMARK   11  A    between atoms: O_25  and  C_26
REMARK                            x       y       z     vdW  Elec       q    Type
REMARK                         _______ _______ _______ _____ _____    ______ ____
ROOT
ATOM      1  N   UNL     1       3.447   3.688  18.912  0.00  0.00    +0.000 NA
ATOM      2  C   UNL     1       3.279   4.060  20.319  0.00  0.00    +0.000 C 
ATOM      3  C   UNL     1       1.875   4.586  20.622  0.00  0.00    +0.000 C 
ATOM      4  C   UNL     1       1.486   5.749  19.698  0.00  0.00    +0.000 C 
ATOM      5  C   UNL     1       1.624   5.262  18.250  0.00  0.00    +0.000 C 
ATOM      6  C   UNL     1       3.023   4.714  17.954  0.00  0.00    +0.000 C 
ENDROOT
BRANCH   1   7
ATOM      7  C   UNL     1       4.804   3.167  18.639  0.00  0.00    +0.000 C 
BRANCH   7  10
ATOM      8  C   UNL     1       6.481   4.594  15.728  0.00  0.00    +0.000 A 
ATOM      9  N   UNL     1       5.696   3.727  16.348  0.00  0.00    +0.000 NA
ATOM     10  C   UNL     1       5.613   4.039  17.708  0.00  0.00    +0.000 A 
ATOM     11  C   UNL     1       6.317   5.173  18.074  0.00  0.00    +0.000 A 
ATOM     12  S   UNL     1       7.154   5.818  16.732  0.00  0.00    +0.000 S 
BRANCH   8  13
ATOM     13  C   UNL     1       6.760   4.627  14.295  0.00  0.00    +0.000 C 
ATOM     14  O   UNL     1       7.541   5.394  13.736  0.00  0.00    +0.000 OA
BRANCH  13  15
ATOM     15  O   UNL     1       5.978   3.730  13.621  0.00  0.00    +0.000 OA
BRANCH  15  17
ATOM     16  C   UNL     1       6.978   2.541  11.687  0.00  0.00    +0.000 C 
ATOM     17  C   UNL     1       6.142   3.705  12.193  0.00  0.00    +0.000 C 
ENDBRANCH  15  17
ENDBRANCH  13  15
ENDBRANCH   8  13
ENDBRANCH   7  10
ENDBRANCH   1   7
BRANCH   4  18
ATOM     18  C   UNL     1       2.321   7.022  19.940  0.00  0.00    +0.000 C 
BRANCH  18  19
ATOM     19  N   UNL     1       1.506   8.208  20.083  0.00  0.00    +0.000 N 
ATOM     20  C   UNL     1       1.352   9.149  19.090  0.00  0.00    +0.000 C 
ATOM     21  O   UNL     1       1.923   9.092  18.007  0.00  0.00    +0.000 OA
ATOM     22  H   UNL     1       0.952   8.364  20.920  0.00  0.00    +0.000 HD
BRANCH  20  23
ATOM     23  C   UNL     1       0.435  10.243  19.466  0.00  0.00    +0.000 A 
ATOM     24  N   UNL     1       0.739  11.084  20.481  0.00  0.00    +0.000 NA
ATOM     25  N   UNL     1      -0.308  11.923  20.526  0.00  0.00    +0.000 N 
ATOM     26  C   UNL     1      -1.271  11.680  19.587  0.00  0.00    +0.000 A 
ATOM     27  C   UNL     1      -2.476  12.330  19.310  0.00  0.00    +0.000 A 
ATOM     28  C   UNL     1      -3.254  11.824  18.262  0.00  0.00    +0.000 A 
ATOM     29  C   UNL     1      -2.842  10.711  17.525  0.00  0.00    +0.000 A 
ATOM     30  C   UNL     1      -1.627  10.077  17.830  0.00  0.00    +0.000 A 
ATOM     31  C   UNL     1      -0.823  10.574  18.876  0.00  0.00    +0.000 A 
ATOM     32  H   UNL     1      -0.311  12.654  21.230  0.00  0.00    +0.000 HD
BRANCH  29  33
ATOM     33  O   UNL     1      -3.534  10.149  16.484  0.00  0.00    +0.000 OA
ATOM     34  C   UNL     1      -3.058  10.418  15.171  0.00  0.00    +0.000 C 
ENDBRANCH  29  33
ENDBRANCH  20  23
ENDBRANCH  18  19
ENDBRANCH   4  18
TORSDOF 9
ENDMDL
MODEL 9
REMARK VINA RESULT:      -7.1      3.527      9.148
REMARK  Name = 
REMARK  11 active torsions:
REMARK  status: ('A' for Active; 'I' for Inactive)
REMARK    1  A    between atoms: C_1  and  C_2
REMARK    2  A    between atoms: C_2  and  O_3
REMARK    3  A    between atoms: O_3  and  C_4
REMARK    4  A    between atoms: C_4  and  C_6
REMARK    5  A    between atoms: C_8  and  C_9
REMARK    6  A    between atoms: C_9  and  N_10
REMARK    7  A    between atoms: C_13  and  C_14
REMARK    8  A    between atoms: C_14  and  N_15
REMARK    9  A    between atoms: C_16  and  C_18
REMARK   10  A    between atoms: C_24  and  O_25
REMARK   11  A    between atoms: O_25  and  C_26
REMARK                            x       y       z     vdW  Elec       q    Type
REMARK                         _______ _______ _______ _____ _____    ______ ____
ROOT
ATOM      1  N   UNL     1       1.646   6.971  20.057  0.00  0.00    +0.000 NA
ATOM      2  C   UNL     1       2.448   7.048  18.833  0.00  0.00    +0.000 C 
ATOM      3  C   UNL     1       2.333   5.785  17.978  0.00  0.00    +0.000 C 
ATOM      4  C   UNL     1       2.672   4.518  18.777  0.00  0.00    +0.000 C 
ATOM      5  C   UNL     1       1.749   4.476  20.001  0.00  0.00    +0.000 C 
ATOM      6  C   UNL     1       1.848   5.751  20.844  0.00  0.00    +0.000 C 
ENDROOT
BRANCH   1   7
ATOM      7  C   UNL     1       1.755   8.206  20.864  0.00  0.00    +0.000 C 
BRANCH   7  10
ATOM      8  C   UNL     1      -0.510  11.059  20.633  0.00  0.00    +0.000 A 
ATOM      9  N   UNL     1       0.228  10.169  21.278  0.00  0.00    +0.000 NA
ATOM     10  C   UNL     1       0.881   9.334  20.368  0.00  0.00    +0.000 A 
ATOM     11  C   UNL     1       0.645   9.646  19.040  0.00  0.00    +0.000 A 
ATOM     12  S   UNL     1      -0.460  10.943  18.917  0.00  0.00    +0.000 S 
BRANCH   8  13
ATOM     13  C   UNL     1      -1.288  12.134  21.243  0.00  0.00    +0.000 C 
ATOM     14  O   UNL     1      -1.909  13.002  20.634  0.00  0.00    +0.000 OA
BRANCH  13  15
ATOM     15  O   UNL     1      -1.182  12.104  22.606  0.00  0.00    +0.000 OA
BRANCH  15  17
ATOM     16  C   UNL     1      -3.409  12.353  23.671  0.00  0.00    +0.000 C 
ATOM     17  C   UNL     1      -2.070  12.980  23.322  0.00  0.00    +0.000 C 
ENDBRANCH  15  17
ENDBRANCH  13  15
ENDBRANCH   8  13
ENDBRANCH   7  10
ENDBRANCH   1   7
BRANCH   4  18
ATOM     18  C   UNL     1       4.155   4.442  19.193  0.00  0.00    +0.000 C 
BRANCH  18  19
ATOM     19  N   UNL     1       5.058   4.758  18.109  0.00  0.00    +0.000 N 
ATOM     20  C   UNL     1       5.168   3.999  16.965  0.00  0.00    +0.000 C 
ATOM     21  O   UNL     1       4.541   2.963  16.776  0.00  0.00    +0.000 OA
ATOM     22  H   UNL     1       5.615   5.607  18.123  0.00  0.00    +0.000 HD
BRANCH  20  23
ATOM     23  C   UNL     1       6.127   4.556  15.992  0.00  0.00    +0.000 A 
ATOM     24  N   UNL     1       7.069   5.447  16.379  0.00  0.00    +0.000 NA
ATOM     25  N   UNL     1       7.736   5.720  15.247  0.00  0.00    +0.000 N 
ATOM     26  C   UNL     1       7.287   5.045  14.146  0.00  0.00    +0.000 A 
ATOM     27  C   UNL     1       7.724   5.047  12.819  0.00  0.00    +0.000 A 
ATOM     28  C   UNL     1       7.037   4.228  11.915  0.00  0.00    +0.000 A 
ATOM     29  C   UNL     1       5.957   3.442  12.324  0.00  0.00    +0.000 A 
ATOM     30  C   UNL     1       5.540   3.464  13.664  0.00  0.00    +0.000 A 
ATOM     31  C   UNL     1       6.221   4.275  14.595  0.00  0.00    +0.000 A 
ATOM     32  H   UNL     1       8.501   6.385  15.286  0.00  0.00    +0.000 HD
BRANCH  29  33
ATOM     33  O   UNL     1       5.230   2.611  11.513  0.00  0.00    +0.000 OA
ATOM     34  C   UNL     1       3.935   3.056  11.126  0.00  0.00    +0.000 C 
ENDBRANCH  29  33
ENDBRANCH  20  23
ENDBRANCH  18  19
ENDBRANCH   4  18
TORSDOF 9
ENDMDL
