MODEL 1
REMARK VINA RESULT:      -9.1      0.000      0.000
REMARK  Name = 
REMARK  8 active torsions:
REMARK  status: ('A' for Active; 'I' for Inactive)
REMARK    1  A    between atoms: C_1  and  C_2
REMARK    2  A    between atoms: C_6  and  N_7
REMARK    3  A    between atoms: C_9  and  C_10
REMARK    4  A    between atoms: C_17  and  C_18
REMARK    5  A    between atoms: C_18  and  N_19
REMARK    6  A    between atoms: N_19  and  C_20
REMARK    7  A    between atoms: C_23  and  C_24
REMARK    8  A    between atoms: N_26  and  O_27
REMARK                            x       y       z     vdW  Elec       q    Type
REMARK                         _______ _______ _______ _____ _____    ______ ____
ROOT
ATOM      1  N   UNL     1       3.831   4.680  17.292  0.00  0.00    +0.000 N 
ATOM      2  N   UNL     1       4.520   3.944  16.378  0.00  0.00    +0.000 NA
ATOM      3  C   UNL     1       5.103   4.876  15.612  0.00  0.00    +0.000 A 
ATOM      4  N   UNL     1       4.917   6.158  16.065  0.00  0.00    +0.000 NA
ATOM      5  C   UNL     1       4.189   6.014  17.157  0.00  0.00    +0.000 A 
ENDROOT
BRANCH   1  11
ATOM      6  C   UNL     1       2.372   3.488  21.891  0.00  0.00    +0.000 C 
ATOM      7  C   UNL     1       2.162   3.444  20.405  0.00  0.00    +0.000 A 
ATOM      8  C   UNL     1       1.096   2.718  19.865  0.00  0.00    +0.000 A 
ATOM      9  C   UNL     1       0.920   2.654  18.487  0.00  0.00    +0.000 A 
ATOM     10  C   UNL     1       1.804   3.316  17.632  0.00  0.00    +0.000 A 
ATOM     11  C   UNL     1       2.877   4.053  18.148  0.00  0.00    +0.000 A 
ATOM     12  C   UNL     1       3.054   4.105  19.542  0.00  0.00    +0.000 A 
ENDBRANCH   1  11
BRANCH   3  13
ATOM     13  C   UNL     1       5.877   4.608  14.400  0.00  0.00    +0.000 A 
ATOM     14  C   UNL     1       7.116   5.218  14.161  0.00  0.00    +0.000 A 
ATOM     15  C   UNL     1       7.843   4.924  13.003  0.00  0.00    +0.000 A 
ATOM     16  C   UNL     1       7.341   4.015  12.069  0.00  0.00    +0.000 A 
ATOM     17  C   UNL     1       6.112   3.404  12.291  0.00  0.00    +0.000 A 
ATOM     18  C   UNL     1       5.385   3.699  13.448  0.00  0.00    +0.000 A 
ENDBRANCH   3  13
BRANCH   5  19
ATOM     19  C   UNL     1       3.890   7.094  18.149  0.00  0.00    +0.000 C 
BRANCH  19  20
ATOM     20  N   UNL     1       2.612   7.778  17.926  0.00  0.00    +0.000 N 
ATOM     21  H   UNL     1       2.038   7.251  17.268  0.00  0.00    +0.000 HD
BRANCH  20  22
ATOM     22  C   UNL     1       1.904   8.268  19.026  0.00  0.00    +0.000 A 
ATOM     23  C   UNL     1       1.928   7.646  20.281  0.00  0.00    +0.000 A 
ATOM     24  C   UNL     1       1.289   8.215  21.391  0.00  0.00    +0.000 A 
ATOM     25  C   UNL     1       0.617   9.433  21.264  0.00  0.00    +0.000 A 
ATOM     26  C   UNL     1       0.614  10.084  20.029  0.00  0.00    +0.000 A 
ATOM     27  C   UNL     1       1.260   9.509  18.927  0.00  0.00    +0.000 A 
BRANCH  25  28
ATOM     28  C   UNL     1      -0.051  10.087  22.420  0.00  0.00    +0.000 C 
ATOM     29  O   UNL     1       0.224   9.782  23.577  0.00  0.00    +0.000 OA
ATOM     30  N   UNL     1      -0.955  11.085  22.126  0.00  0.00    +0.000 N 
ATOM     31  H   UNL     1      -0.948  11.589  21.246  0.00  0.00    +0.000 HD
BRANCH  30  32
ATOM     32  O   UNL     1      -1.438  11.803  23.247  0.00  0.00    +0.000 OA
ATOM     33  H   UNL     1      -0.642  11.844  23.824  0.00  0.00    +0.000 HD
ENDBRANCH  30  32
ENDBRANCH  25  28
ENDBRANCH  20  22
ENDBRANCH  19  20
ENDBRANCH   5  19
TORSDOF 7
ENDMDL
MODEL 2
REMARK VINA RESULT:      -9.0      0.140      1.250
REMARK  Name = 
REMARK  8 active torsions:
REMARK  status: ('A' for Active; 'I' for Inactive)
REMARK    1  A    between atoms: C_1  and  C_2
REMARK    2  A    between atoms: C_6  and  N_7
REMARK    3  A    between atoms: C_9  and  C_10
REMARK    4  A    between atoms: C_17  and  C_18
REMARK    5  A    between atoms: C_18  and  N_19
REMARK    6  A    between atoms: N_19  and  C_20
REMARK    7  A    between atoms: C_23  and  C_24
REMARK    8  A    between atoms: N_26  and  O_27
REMARK                            x       y       z     vdW  Elec       q    Type
REMARK                         _______ _______ _______ _____ _____    ______ ____
ROOT
ATOM      1  N   UNL     1       3.739   4.596  17.357  0.00  0.00    +0.000 N 
ATOM      2  N   UNL     1       4.427   3.858  16.444  0.00  0.00    +0.000 NA
ATOM      3  C   UNL     1       5.004   4.789  15.672  0.00  0.00    +0.000 A 
ATOM      4  N   UNL     1       4.815   6.072  16.120  0.00  0.00    +0.000 NA
ATOM      5  C   UNL     1       4.092   5.930  17.215  0.00  0.00    +0.000 A 
ENDROOT
BRANCH   1  11
ATOM      6  C   UNL     1       2.312   3.402  21.966  0.00  0.00    +0.000 C 
ATOM      7  C   UNL     1       2.091   3.360  20.482  0.00  0.00    +0.000 A 
ATOM      8  C   UNL     1       1.021   2.635  19.949  0.00  0.00    +0.000 A 
ATOM      9  C   UNL     1       0.834   2.573  18.572  0.00  0.00    +0.000 A 
ATOM     10  C   UNL     1       1.713   3.234  17.711  0.00  0.00    +0.000 A 
ATOM     11  C   UNL     1       2.790   3.969  18.220  0.00  0.00    +0.000 A 
ATOM     12  C   UNL     1       2.978   4.019  19.612  0.00  0.00    +0.000 A 
ENDBRANCH   1  11
BRANCH   3  13
ATOM     13  C   UNL     1       5.775   4.518  14.457  0.00  0.00    +0.000 A 
ATOM     14  C   UNL     1       5.298   3.666  13.453  0.00  0.00    +0.000 A 
ATOM     15  C   UNL     1       6.048   3.444  12.292  0.00  0.00    +0.000 A 
ATOM     16  C   UNL     1       7.284   4.074  12.122  0.00  0.00    +0.000 A 
ATOM     17  C   UNL     1       7.770   4.921  13.113  0.00  0.00    +0.000 A 
ATOM     18  C   UNL     1       7.021   5.140  14.272  0.00  0.00    +0.000 A 
ENDBRANCH   3  13
BRANCH   5  19
ATOM     19  C   UNL     1       3.794   7.013  18.204  0.00  0.00    +0.000 C 
BRANCH  19  20
ATOM     20  N   UNL     1       2.506   7.683  17.991  0.00  0.00    +0.000 N 
ATOM     21  H   UNL     1       1.865   7.068  17.490  0.00  0.00    +0.000 HD
BRANCH  20  22
ATOM     22  C   UNL     1       1.914   8.368  19.055  0.00  0.00    +0.000 A 
ATOM     23  C   UNL     1       1.199   9.561  18.884  0.00  0.00    +0.000 A 
ATOM     24  C   UNL     1       0.532  10.173  19.955  0.00  0.00    +0.000 A 
ATOM     25  C   UNL     1       0.561   9.589  21.224  0.00  0.00    +0.000 A 
ATOM     26  C   UNL     1       1.240   8.382  21.403  0.00  0.00    +0.000 A 
ATOM     27  C   UNL     1       1.898   7.776  20.325  0.00  0.00    +0.000 A 
BRANCH  25  28
ATOM     28  C   UNL     1      -0.154  10.187  22.381  0.00  0.00    +0.000 C 
ATOM     29  O   UNL     1       0.097   9.847  23.535  0.00  0.00    +0.000 OA
ATOM     30  N   UNL     1      -1.073  11.173  22.097  0.00  0.00    +0.000 N 
ATOM     31  H   UNL     1      -1.055  11.707  21.235  0.00  0.00    +0.000 HD
BRANCH  30  32
ATOM     32  O   UNL     1      -1.604  11.839  23.228  0.00  0.00    +0.000 OA
ATOM     33  H   UNL     1      -2.479  11.403  23.334  0.00  0.00    +0.000 HD
ENDBRANCH  30  32
ENDBRANCH  25  28
ENDBRANCH  20  22
ENDBRANCH  19  20
ENDBRANCH   5  19
TORSDOF 7
ENDMDL
MODEL 3
REMARK VINA RESULT:      -8.8      0.681      1.456
REMARK  Name = 
REMARK  8 active torsions:
REMARK  status: ('A' for Active; 'I' for Inactive)
REMARK    1  A    between atoms: C_1  and  C_2
REMARK    2  A    between atoms: C_6  and  N_7
REMARK    3  A    between atoms: C_9  and  C_10
REMARK    4  A    between atoms: C_17  and  C_18
REMARK    5  A    between atoms: C_18  and  N_19
REMARK    6  A    between atoms: N_19  and  C_20
REMARK    7  A    between atoms: C_23  and  C_24
REMARK    8  A    between atoms: N_26  and  O_27
REMARK                            x       y       z     vdW  Elec       q    Type
REMARK                         _______ _______ _______ _____ _____    ______ ____
ROOT
ATOM      1  N   UNL     1       4.466   4.532  17.469  0.00  0.00    +0.000 N 
ATOM      2  N   UNL     1       5.163   3.848  16.521  0.00  0.00    +0.000 NA
ATOM      3  C   UNL     1       5.376   4.771  15.574  0.00  0.00    +0.000 A 
ATOM      4  N   UNL     1       4.956   6.030  15.925  0.00  0.00    +0.000 NA
ATOM      5  C   UNL     1       4.464   5.879  17.141  0.00  0.00    +0.000 A 
ENDROOT
BRANCH   1  11
ATOM      6  C   UNL     1       0.321   3.415  19.974  0.00  0.00    +0.000 C 
ATOM      7  C   UNL     1       1.806   3.295  19.793  0.00  0.00    +0.000 A 
ATOM      8  C   UNL     1       2.574   2.584  20.721  0.00  0.00    +0.000 A 
ATOM      9  C   UNL     1       3.954   2.497  20.569  0.00  0.00    +0.000 A 
ATOM     10  C   UNL     1       4.584   3.118  19.488  0.00  0.00    +0.000 A 
ATOM     11  C   UNL     1       3.837   3.832  18.543  0.00  0.00    +0.000 A 
ATOM     12  C   UNL     1       2.444   3.924  18.709  0.00  0.00    +0.000 A 
ENDBRANCH   1  11
BRANCH   3  13
ATOM     13  C   UNL     1       5.994   4.517  14.272  0.00  0.00    +0.000 A 
ATOM     14  C   UNL     1       7.177   5.156  13.876  0.00  0.00    +0.000 A 
ATOM     15  C   UNL     1       7.757   4.874  12.634  0.00  0.00    +0.000 A 
ATOM     16  C   UNL     1       7.160   3.950  11.773  0.00  0.00    +0.000 A 
ATOM     17  C   UNL     1       5.985   3.311  12.151  0.00  0.00    +0.000 A 
ATOM     18  C   UNL     1       5.406   3.593  13.392  0.00  0.00    +0.000 A 
ENDBRANCH   3  13
BRANCH   5  19
ATOM     19  C   UNL     1       4.069   6.992  18.060  0.00  0.00    +0.000 C 
BRANCH  19  20
ATOM     20  N   UNL     1       2.661   7.388  17.956  0.00  0.00    +0.000 N 
ATOM     21  H   UNL     1       2.096   6.605  17.627  0.00  0.00    +0.000 HD
BRANCH  20  22
ATOM     22  C   UNL     1       2.077   8.102  19.005  0.00  0.00    +0.000 A 
ATOM     23  C   UNL     1       1.429   9.330  18.817  0.00  0.00    +0.000 A 
ATOM     24  C   UNL     1       0.766   9.976  19.871  0.00  0.00    +0.000 A 
ATOM     25  C   UNL     1       0.734   9.392  21.139  0.00  0.00    +0.000 A 
ATOM     26  C   UNL     1       1.345   8.151  21.335  0.00  0.00    +0.000 A 
ATOM     27  C   UNL     1       1.999   7.513  20.274  0.00  0.00    +0.000 A 
BRANCH  25  28
ATOM     28  C   UNL     1       0.020  10.026  22.279  0.00  0.00    +0.000 C 
ATOM     29  O   UNL     1       0.310   9.762  23.444  0.00  0.00    +0.000 OA
ATOM     30  N   UNL     1      -0.944  10.958  21.963  0.00  0.00    +0.000 N 
ATOM     31  H   UNL     1      -0.966  11.442  21.072  0.00  0.00    +0.000 HD
BRANCH  30  32
ATOM     32  O   UNL     1      -1.476  11.666  23.067  0.00  0.00    +0.000 OA
ATOM     33  H   UNL     1      -2.216  11.082  23.350  0.00  0.00    +0.000 HD
ENDBRANCH  30  32
ENDBRANCH  25  28
ENDBRANCH  20  22
ENDBRANCH  19  20
ENDBRANCH   5  19
TORSDOF 7
ENDMDL
MODEL 4
REMARK VINA RESULT:      -8.8      0.505      1.750
REMARK  Name = 
REMARK  8 active torsions:
REMARK  status: ('A' for Active; 'I' for Inactive)
REMARK    1  A    between atoms: C_1  and  C_2
REMARK    2  A    between atoms: C_6  and  N_7
REMARK    3  A    between atoms: C_9  and  C_10
REMARK    4  A    between atoms: C_17  and  C_18
REMARK    5  A    between atoms: C_18  and  N_19
REMARK    6  A    between atoms: N_19  and  C_20
REMARK    7  A    between atoms: C_23  and  C_24
REMARK    8  A    between atoms: N_26  and  O_27
REMARK                            x       y       z     vdW  Elec       q    Type
REMARK                         _______ _______ _______ _____ _____    ______ ____
ROOT
ATOM      1  N   UNL     1       4.142   5.070  17.430  0.00  0.00    +0.000 N 
ATOM      2  N   UNL     1       4.853   4.267  16.591  0.00  0.00    +0.000 NA
ATOM      3  C   UNL     1       5.233   5.105  15.617  0.00  0.00    +0.000 A 
ATOM      4  N   UNL     1       4.903   6.416  15.855  0.00  0.00    +0.000 NA
ATOM      5  C   UNL     1       4.294   6.388  17.026  0.00  0.00    +0.000 A 
ENDROOT
BRANCH   1  11
ATOM      6  C   UNL     1       0.384   2.130  18.821  0.00  0.00    +0.000 C 
ATOM      7  C   UNL     1       1.499   3.072  19.171  0.00  0.00    +0.000 A 
ATOM      8  C   UNL     1       1.705   3.458  20.499  0.00  0.00    +0.000 A 
ATOM      9  C   UNL     1       2.721   4.354  20.817  0.00  0.00    +0.000 A 
ATOM     10  C   UNL     1       3.543   4.874  19.815  0.00  0.00    +0.000 A 
ATOM     11  C   UNL     1       3.359   4.500  18.478  0.00  0.00    +0.000 A 
ATOM     12  C   UNL     1       2.324   3.602  18.162  0.00  0.00    +0.000 A 
ENDBRANCH   1  11
BRANCH   3  13
ATOM     13  C   UNL     1       5.937   4.713  14.395  0.00  0.00    +0.000 A 
ATOM     14  C   UNL     1       5.409   3.767  13.507  0.00  0.00    +0.000 A 
ATOM     15  C   UNL     1       6.095   3.430  12.335  0.00  0.00    +0.000 A 
ATOM     16  C   UNL     1       7.318   4.037  12.036  0.00  0.00    +0.000 A 
ATOM     17  C   UNL     1       7.855   4.976  12.910  0.00  0.00    +0.000 A 
ATOM     18  C   UNL     1       7.169   5.311  14.082  0.00  0.00    +0.000 A 
ENDBRANCH   3  13
BRANCH   5  19
ATOM     19  C   UNL     1       3.925   7.589  17.840  0.00  0.00    +0.000 C 
BRANCH  19  20
ATOM     20  N   UNL     1       2.497   7.924  17.804  0.00  0.00    +0.000 N 
ATOM     21  H   UNL     1       1.956   7.134  17.455  0.00  0.00    +0.000 HD
BRANCH  20  22
ATOM     22  C   UNL     1       1.922   8.558  18.908  0.00  0.00    +0.000 A 
ATOM     23  C   UNL     1       1.251   9.785  18.813  0.00  0.00    +0.000 A 
ATOM     24  C   UNL     1       0.597  10.348  19.918  0.00  0.00    +0.000 A 
ATOM     25  C   UNL     1       0.596   9.681  21.145  0.00  0.00    +0.000 A 
ATOM     26  C   UNL     1       1.229   8.440  21.247  0.00  0.00    +0.000 A 
ATOM     27  C   UNL     1       1.874   7.884  20.136  0.00  0.00    +0.000 A 
BRANCH  25  28
ATOM     28  C   UNL     1      -0.107  10.226  22.336  0.00  0.00    +0.000 C 
ATOM     29  O   UNL     1       0.186   9.866  23.474  0.00  0.00    +0.000 OA
ATOM     30  N   UNL     1      -1.064  11.188  22.102  0.00  0.00    +0.000 N 
ATOM     31  H   UNL     1      -1.086  11.744  21.253  0.00  0.00    +0.000 HD
BRANCH  30  32
ATOM     32  O   UNL     1      -1.586  11.808  23.263  0.00  0.00    +0.000 OA
ATOM     33  H   UNL     1      -1.036  11.410  23.975  0.00  0.00    +0.000 HD
ENDBRANCH  30  32
ENDBRANCH  25  28
ENDBRANCH  20  22
ENDBRANCH  19  20
ENDBRANCH   5  19
TORSDOF 7
ENDMDL
MODEL 5
REMARK VINA RESULT:      -8.8      0.724      1.480
REMARK  Name = 
REMARK  8 active torsions:
REMARK  status: ('A' for Active; 'I' for Inactive)
REMARK    1  A    between atoms: C_1  and  C_2
REMARK    2  A    between atoms: C_6  and  N_7
REMARK    3  A    between atoms: C_9  and  C_10
REMARK    4  A    between atoms: C_17  and  C_18
REMARK    5  A    between atoms: C_18  and  N_19
REMARK    6  A    between atoms: N_19  and  C_20
REMARK    7  A    between atoms: C_23  and  C_24
REMARK    8  A    between atoms: N_26  and  O_27
REMARK                            x       y       z     vdW  Elec       q    Type
REMARK                         _______ _______ _______ _____ _____    ______ ____
ROOT
ATOM      1  N   UNL     1       4.521   4.526  17.436  0.00  0.00    +0.000 N 
ATOM      2  N   UNL     1       5.189   3.819  16.484  0.00  0.00    +0.000 NA
ATOM      3  C   UNL     1       5.419   4.732  15.531  0.00  0.00    +0.000 A 
ATOM      4  N   UNL     1       5.038   6.004  15.881  0.00  0.00    +0.000 NA
ATOM      5  C   UNL     1       4.554   5.872  17.102  0.00  0.00    +0.000 A 
ENDROOT
BRANCH   1  11
ATOM      6  C   UNL     1       0.363   3.499  19.956  0.00  0.00    +0.000 C 
ATOM      7  C   UNL     1       1.846   3.356  19.777  0.00  0.00    +0.000 A 
ATOM      8  C   UNL     1       2.604   2.647  20.714  0.00  0.00    +0.000 A 
ATOM      9  C   UNL     1       3.983   2.540  20.562  0.00  0.00    +0.000 A 
ATOM     10  C   UNL     1       4.621   3.138  19.473  0.00  0.00    +0.000 A 
ATOM     11  C   UNL     1       3.884   3.850  18.519  0.00  0.00    +0.000 A 
ATOM     12  C   UNL     1       2.492   3.962  18.685  0.00  0.00    +0.000 A 
ENDBRANCH   1  11
BRANCH   3  13
ATOM     13  C   UNL     1       6.016   4.455  14.224  0.00  0.00    +0.000 A 
ATOM     14  C   UNL     1       5.455   3.531  13.334  0.00  0.00    +0.000 A 
ATOM     15  C   UNL     1       6.037   3.304  12.081  0.00  0.00    +0.000 A 
ATOM     16  C   UNL     1       7.188   4.001  11.704  0.00  0.00    +0.000 A 
ATOM     17  C   UNL     1       7.757   4.919  12.579  0.00  0.00    +0.000 A 
ATOM     18  C   UNL     1       7.176   5.144  13.831  0.00  0.00    +0.000 A 
ENDBRANCH   3  13
BRANCH   5  19
ATOM     19  C   UNL     1       4.200   7.000  18.020  0.00  0.00    +0.000 C 
BRANCH  19  20
ATOM     20  N   UNL     1       2.896   7.612  17.746  0.00  0.00    +0.000 N 
ATOM     21  H   UNL     1       2.378   7.054  17.068  0.00  0.00    +0.000 HD
BRANCH  20  22
ATOM     22  C   UNL     1       2.119   8.061  18.817  0.00  0.00    +0.000 A 
ATOM     23  C   UNL     1       2.079   7.402  20.053  0.00  0.00    +0.000 A 
ATOM     24  C   UNL     1       1.369   7.930  21.140  0.00  0.00    +0.000 A 
ATOM     25  C   UNL     1       0.690   9.144  21.010  0.00  0.00    +0.000 A 
ATOM     26  C   UNL     1       0.749   9.831  19.795  0.00  0.00    +0.000 A 
ATOM     27  C   UNL     1       1.466   9.297  18.718  0.00  0.00    +0.000 A 
BRANCH  25  28
ATOM     28  C   UNL     1      -0.053   9.756  22.143  0.00  0.00    +0.000 C 
ATOM     29  O   UNL     1      -0.005   9.279  23.274  0.00  0.00    +0.000 OA
ATOM     30  N   UNL     1      -0.753  10.911  21.870  0.00  0.00    +0.000 N 
ATOM     31  H   UNL     1      -0.540  11.506  21.077  0.00  0.00    +0.000 HD
BRANCH  30  32
ATOM     32  O   UNL     1      -1.299  11.561  23.003  0.00  0.00    +0.000 OA
ATOM     33  H   UNL     1      -1.598  10.801  23.553  0.00  0.00    +0.000 HD
ENDBRANCH  30  32
ENDBRANCH  25  28
ENDBRANCH  20  22
ENDBRANCH  19  20
ENDBRANCH   5  19
TORSDOF 7
ENDMDL
MODEL 6
REMARK VINA RESULT:      -8.7      0.609      1.279
REMARK  Name = 
REMARK  8 active torsions:
REMARK  status: ('A' for Active; 'I' for Inactive)
REMARK    1  A    between atoms: C_1  and  C_2
REMARK    2  A    between atoms: C_6  and  N_7
REMARK    3  A    between atoms: C_9  and  C_10
REMARK    4  A    between atoms: C_17  and  C_18
REMARK    5  A    between atoms: C_18  and  N_19
REMARK    6  A    between atoms: N_19  and  C_20
REMARK    7  A    between atoms: C_23  and  C_24
REMARK    8  A    between atoms: N_26  and  O_27
REMARK                            x       y       z     vdW  Elec       q    Type
REMARK                         _______ _______ _______ _____ _____    ______ ____
ROOT
ATOM      1  N   UNL     1       4.170   5.111  17.428  0.00  0.00    +0.000 N 
ATOM      2  N   UNL     1       4.868   4.307  16.580  0.00  0.00    +0.000 NA
ATOM      3  C   UNL     1       5.251   5.148  15.609  0.00  0.00    +0.000 A 
ATOM      4  N   UNL     1       4.934   6.460  15.858  0.00  0.00    +0.000 NA
ATOM      5  C   UNL     1       4.332   6.431  17.032  0.00  0.00    +0.000 A 
ENDROOT
BRANCH   1  11
ATOM      6  C   UNL     1       0.443   2.134  18.826  0.00  0.00    +0.000 C 
ATOM      7  C   UNL     1       1.543   3.096  19.173  0.00  0.00    +0.000 A 
ATOM      8  C   UNL     1       1.734   3.500  20.498  0.00  0.00    +0.000 A 
ATOM      9  C   UNL     1       2.735   4.413  20.814  0.00  0.00    +0.000 A 
ATOM     10  C   UNL     1       3.556   4.933  19.811  0.00  0.00    +0.000 A 
ATOM     11  C   UNL     1       3.388   4.542  18.478  0.00  0.00    +0.000 A 
ATOM     12  C   UNL     1       2.368   3.626  18.165  0.00  0.00    +0.000 A 
ENDBRANCH   1  11
BRANCH   3  13
ATOM     13  C   UNL     1       5.944   4.757  14.381  0.00  0.00    +0.000 A 
ATOM     14  C   UNL     1       7.182   5.305  14.023  0.00  0.00    +0.000 A 
ATOM     15  C   UNL     1       7.831   4.895  12.853  0.00  0.00    +0.000 A 
ATOM     16  C   UNL     1       7.250   3.930  12.028  0.00  0.00    +0.000 A 
ATOM     17  C   UNL     1       6.019   3.379  12.369  0.00  0.00    +0.000 A 
ATOM     18  C   UNL     1       5.371   3.790  13.538  0.00  0.00    +0.000 A 
ENDBRANCH   3  13
BRANCH   5  19
ATOM     19  C   UNL     1       3.979   7.629  17.856  0.00  0.00    +0.000 C 
BRANCH  19  20
ATOM     20  N   UNL     1       2.628   8.149  17.614  0.00  0.00    +0.000 N 
ATOM     21  H   UNL     1       2.128   7.545  16.963  0.00  0.00    +0.000 HD
BRANCH  20  22
ATOM     22  C   UNL     1       1.858   8.565  18.702  0.00  0.00    +0.000 A 
ATOM     23  C   UNL     1       1.899   7.927  19.949  0.00  0.00    +0.000 A 
ATOM     24  C   UNL     1       1.190   8.428  21.050  0.00  0.00    +0.000 A 
ATOM     25  C   UNL     1       0.429   9.592  20.923  0.00  0.00    +0.000 A 
ATOM     26  C   UNL     1       0.406  10.260  19.696  0.00  0.00    +0.000 A 
ATOM     27  C   UNL     1       1.122   9.754  18.604  0.00  0.00    +0.000 A 
BRANCH  25  28
ATOM     28  C   UNL     1      -0.316  10.175  22.069  0.00  0.00    +0.000 C 
ATOM     29  O   UNL     1      -0.745   9.471  22.980  0.00  0.00    +0.000 OA
ATOM     30  N   UNL     1      -0.455  11.546  22.082  0.00  0.00    +0.000 N 
ATOM     31  H   UNL     1       0.159  12.164  21.563  0.00  0.00    +0.000 HD
BRANCH  30  32
ATOM     32  O   UNL     1      -1.012  12.079  23.269  0.00  0.00    +0.000 OA
ATOM     33  H   UNL     1      -1.976  11.941  23.126  0.00  0.00    +0.000 HD
ENDBRANCH  30  32
ENDBRANCH  25  28
ENDBRANCH  20  22
ENDBRANCH  19  20
ENDBRANCH   5  19
TORSDOF 7
ENDMDL
MODEL 7
REMARK VINA RESULT:      -8.6      0.996      1.505
REMARK  Name = 
REMARK  8 active torsions:
REMARK  status: ('A' for Active; 'I' for Inactive)
REMARK    1  A    between atoms: C_1  and  C_2
REMARK    2  A    between atoms: C_6  and  N_7
REMARK    3  A    between atoms: C_9  and  C_10
REMARK    4  A    between atoms: C_17  and  C_18
REMARK    5  A    between atoms: C_18  and  N_19
REMARK    6  A    between atoms: N_19  and  C_20
REMARK    7  A    between atoms: C_23  and  C_24
REMARK    8  A    between atoms: N_26  and  O_27
REMARK                            x       y       z     vdW  Elec       q    Type
REMARK                         _______ _______ _______ _____ _____    ______ ____
ROOT
ATOM      1  N   UNL     1       4.566   4.431  17.242  0.00  0.00    +0.000 N 
ATOM      2  N   UNL     1       5.265   3.772  16.278  0.00  0.00    +0.000 NA
ATOM      3  C   UNL     1       5.532   4.733  15.384  0.00  0.00    +0.000 A 
ATOM      4  N   UNL     1       5.144   5.986  15.787  0.00  0.00    +0.000 NA
ATOM      5  C   UNL     1       4.615   5.792  16.981  0.00  0.00    +0.000 A 
ENDROOT
BRANCH   1  11
ATOM      6  C   UNL     1       0.318   2.596  19.056  0.00  0.00    +0.000 C 
ATOM      7  C   UNL     1       1.798   2.813  19.173  0.00  0.00    +0.000 A 
ATOM      8  C   UNL     1       2.485   2.387  20.315  0.00  0.00    +0.000 A 
ATOM      9  C   UNL     1       3.852   2.615  20.435  0.00  0.00    +0.000 A 
ATOM     10  C   UNL     1       4.550   3.268  19.418  0.00  0.00    +0.000 A 
ATOM     11  C   UNL     1       3.887   3.701  18.263  0.00  0.00    +0.000 A 
ATOM     12  C   UNL     1       2.503   3.476  18.153  0.00  0.00    +0.000 A 
ENDBRANCH   1  11
BRANCH   3  13
ATOM     13  C   UNL     1       6.176   4.523  14.086  0.00  0.00    +0.000 A 
ATOM     14  C   UNL     1       7.310   5.247  13.696  0.00  0.00    +0.000 A 
ATOM     15  C   UNL     1       7.917   5.008  12.458  0.00  0.00    +0.000 A 
ATOM     16  C   UNL     1       7.398   4.039  11.596  0.00  0.00    +0.000 A 
ATOM     17  C   UNL     1       6.271   3.314  11.969  0.00  0.00    +0.000 A 
ATOM     18  C   UNL     1       5.665   3.555  13.206  0.00  0.00    +0.000 A 
ENDBRANCH   3  13
BRANCH   5  19
ATOM     19  C   UNL     1       4.232   6.871  17.945  0.00  0.00    +0.000 C 
BRANCH  19  20
ATOM     20  N   UNL     1       3.128   7.722  17.487  0.00  0.00    +0.000 N 
ATOM     21  H   UNL     1       2.667   7.302  16.681  0.00  0.00    +0.000 HD
BRANCH  20  22
ATOM     22  C   UNL     1       2.243   8.251  18.430  0.00  0.00    +0.000 A 
ATOM     23  C   UNL     1       2.081   7.700  19.709  0.00  0.00    +0.000 A 
ATOM     24  C   UNL     1       1.260   8.310  20.668  0.00  0.00    +0.000 A 
ATOM     25  C   UNL     1       0.590   9.497  20.364  0.00  0.00    +0.000 A 
ATOM     26  C   UNL     1       0.770  10.078  19.106  0.00  0.00    +0.000 A 
ATOM     27  C   UNL     1       1.596   9.463  18.157  0.00  0.00    +0.000 A 
BRANCH  25  28
ATOM     28  C   UNL     1      -0.268  10.194  21.357  0.00  0.00    +0.000 C 
ATOM     29  O   UNL     1      -0.953  11.165  21.045  0.00  0.00    +0.000 OA
ATOM     30  N   UNL     1      -0.293   9.666  22.629  0.00  0.00    +0.000 N 
ATOM     31  H   UNL     1      -0.035   8.706  22.829  0.00  0.00    +0.000 HD
BRANCH  30  32
ATOM     32  O   UNL     1      -1.250  10.244  23.498  0.00  0.00    +0.000 OA
ATOM     33  H   UNL     1      -0.686  10.600  24.221  0.00  0.00    +0.000 HD
ENDBRANCH  30  32
ENDBRANCH  25  28
ENDBRANCH  20  22
ENDBRANCH  19  20
ENDBRANCH   5  19
TORSDOF 7
ENDMDL
MODEL 8
REMARK VINA RESULT:      -8.6      0.665      1.222
REMARK  Name = 
REMARK  8 active torsions:
REMARK  status: ('A' for Active; 'I' for Inactive)
REMARK    1  A    between atoms: C_1  and  C_2
REMARK    2  A    between atoms: C_6  and  N_7
REMARK    3  A    between atoms: C_9  and  C_10
REMARK    4  A    between atoms: C_17  and  C_18
REMARK    5  A    between atoms: C_18  and  N_19
REMARK    6  A    between atoms: N_19  and  C_20
REMARK    7  A    between atoms: C_23  and  C_24
REMARK    8  A    between atoms: N_26  and  O_27
REMARK                            x       y       z     vdW  Elec       q    Type
REMARK                         _______ _______ _______ _____ _____    ______ ____
ROOT
ATOM      1  N   UNL     1       3.832   4.574  17.295  0.00  0.00    +0.000 N 
ATOM      2  N   UNL     1       4.528   3.839  16.387  0.00  0.00    +0.000 NA
ATOM      3  C   UNL     1       5.097   4.771  15.610  0.00  0.00    +0.000 A 
ATOM      4  N   UNL     1       4.894   6.055  16.052  0.00  0.00    +0.000 NA
ATOM      5  C   UNL     1       4.171   5.911  17.147  0.00  0.00    +0.000 A 
ENDROOT
BRANCH   1  11
ATOM      6  C   UNL     1       2.374   3.450  21.912  0.00  0.00    +0.000 C 
ATOM      7  C   UNL     1       2.174   3.367  20.426  0.00  0.00    +0.000 A 
ATOM      8  C   UNL     1       1.130   2.602  19.897  0.00  0.00    +0.000 A 
ATOM      9  C   UNL     1       0.964   2.503  18.519  0.00  0.00    +0.000 A 
ATOM     10  C   UNL     1       1.837   3.167  17.654  0.00  0.00    +0.000 A 
ATOM     11  C   UNL     1       2.887   3.943  18.160  0.00  0.00    +0.000 A 
ATOM     12  C   UNL     1       3.055   4.030  19.553  0.00  0.00    +0.000 A 
ENDBRANCH   1  11
BRANCH   3  13
ATOM     13  C   UNL     1       5.871   4.502  14.398  0.00  0.00    +0.000 A 
ATOM     14  C   UNL     1       5.426   3.604  13.419  0.00  0.00    +0.000 A 
ATOM     15  C   UNL     1       6.179   3.385  12.260  0.00  0.00    +0.000 A 
ATOM     16  C   UNL     1       7.385   4.062  12.065  0.00  0.00    +0.000 A 
ATOM     17  C   UNL     1       7.841   4.953  13.031  0.00  0.00    +0.000 A 
ATOM     18  C   UNL     1       7.089   5.171  14.189  0.00  0.00    +0.000 A 
ENDBRANCH   3  13
BRANCH   5  19
ATOM     19  C   UNL     1       3.860   6.996  18.129  0.00  0.00    +0.000 C 
BRANCH  19  20
ATOM     20  N   UNL     1       2.927   8.012  17.628  0.00  0.00    +0.000 N 
ATOM     21  H   UNL     1       2.493   7.697  16.761  0.00  0.00    +0.000 HD
BRANCH  20  22
ATOM     22  C   UNL     1       2.035   8.611  18.520  0.00  0.00    +0.000 A 
ATOM     23  C   UNL     1       1.825   8.130  19.820  0.00  0.00    +0.000 A 
ATOM     24  C   UNL     1       0.998   8.810  20.725  0.00  0.00    +0.000 A 
ATOM     25  C   UNL     1       0.370   9.999  20.345  0.00  0.00    +0.000 A 
ATOM     26  C   UNL     1       0.598  10.510  19.065  0.00  0.00    +0.000 A 
ATOM     27  C   UNL     1       1.430   9.826  18.170  0.00  0.00    +0.000 A 
BRANCH  25  28
ATOM     28  C   UNL     1      -0.492  10.768  21.280  0.00  0.00    +0.000 C 
ATOM     29  O   UNL     1      -1.363  11.531  20.869  0.00  0.00    +0.000 OA
ATOM     30  N   UNL     1      -0.298  10.543  22.625  0.00  0.00    +0.000 N 
ATOM     31  H   UNL     1       0.141   9.701  22.982  0.00  0.00    +0.000 HD
BRANCH  30  32
ATOM     32  O   UNL     1      -1.249  11.155  23.477  0.00  0.00    +0.000 OA
ATOM     33  H   UNL     1      -0.889  12.067  23.567  0.00  0.00    +0.000 HD
ENDBRANCH  30  32
ENDBRANCH  25  28
ENDBRANCH  20  22
ENDBRANCH  19  20
ENDBRANCH   5  19
TORSDOF 7
ENDMDL
MODEL 9
REMARK VINA RESULT:      -8.6      1.558      2.025
REMARK  Name = 
REMARK  8 active torsions:
REMARK  status: ('A' for Active; 'I' for Inactive)
REMARK    1  A    between atoms: C_1  and  C_2
REMARK    2  A    between atoms: C_6  and  N_7
REMARK    3  A    between atoms: C_9  and  C_10
REMARK    4  A    between atoms: C_17  and  C_18
REMARK    5  A    between atoms: C_18  and  N_19
REMARK    6  A    between atoms: N_19  and  C_20
REMARK    7  A    between atoms: C_23  and  C_24
REMARK    8  A    between atoms: N_26  and  O_27
REMARK                            x       y       z     vdW  Elec       q    Type
REMARK                         _______ _______ _______ _____ _____    ______ ____
ROOT
ATOM      1  N   UNL     1       3.930   4.504  17.343  0.00  0.00    +0.000 N 
ATOM      2  N   UNL     1       4.496   3.774  16.343  0.00  0.00    +0.000 NA
ATOM      3  C   UNL     1       5.158   4.694  15.630  0.00  0.00    +0.000 A 
ATOM      4  N   UNL     1       5.140   5.947  16.191  0.00  0.00    +0.000 NA
ATOM      5  C   UNL     1       4.437   5.795  17.299  0.00  0.00    +0.000 A 
ENDROOT
BRANCH   1  11
ATOM      6  C   UNL     1       2.736   2.396  21.682  0.00  0.00    +0.000 C 
ATOM      7  C   UNL     1       2.346   2.864  20.310  0.00  0.00    +0.000 A 
ATOM      8  C   UNL     1       1.050   2.644  19.832  0.00  0.00    +0.000 A 
ATOM      9  C   UNL     1       0.698   3.052  18.550  0.00  0.00    +0.000 A 
ATOM     10  C   UNL     1       1.635   3.685  17.730  0.00  0.00    +0.000 A 
ATOM     11  C   UNL     1       2.937   3.921  18.186  0.00  0.00    +0.000 A 
ATOM     12  C   UNL     1       3.289   3.496  19.480  0.00  0.00    +0.000 A 
ENDBRANCH   1  11
BRANCH   3  13
ATOM     13  C   UNL     1       5.854   4.442  14.367  0.00  0.00    +0.000 A 
ATOM     14  C   UNL     1       5.343   3.564  13.403  0.00  0.00    +0.000 A 
ATOM     15  C   UNL     1       6.020   3.361  12.195  0.00  0.00    +0.000 A 
ATOM     16  C   UNL     1       7.216   4.036  11.937  0.00  0.00    +0.000 A 
ATOM     17  C   UNL     1       7.736   4.908  12.887  0.00  0.00    +0.000 A 
ATOM     18  C   UNL     1       7.059   5.110  14.093  0.00  0.00    +0.000 A 
ENDBRANCH   3  13
BRANCH   5  19
ATOM     19  C   UNL     1       4.301   6.814  18.386  0.00  0.00    +0.000 C 
BRANCH  19  20
ATOM     20  N   UNL     1       3.073   6.689  19.177  0.00  0.00    +0.000 N 
ATOM     21  H   UNL     1       3.284   6.318  20.104  0.00  0.00    +0.000 HD
BRANCH  20  22
ATOM     22  C   UNL     1       2.162   7.748  19.189  0.00  0.00    +0.000 A 
ATOM     23  C   UNL     1       1.548   8.207  20.362  0.00  0.00    +0.000 A 
ATOM     24  C   UNL     1       0.716   9.336  20.357  0.00  0.00    +0.000 A 
ATOM     25  C   UNL     1       0.490  10.035  19.169  0.00  0.00    +0.000 A 
ATOM     26  C   UNL     1       1.123   9.611  17.998  0.00  0.00    +0.000 A 
ATOM     27  C   UNL     1       1.957   8.486  18.015  0.00  0.00    +0.000 A 
BRANCH  25  28
ATOM     28  C   UNL     1      -0.362  11.252  19.122  0.00  0.00    +0.000 C 
ATOM     29  O   UNL     1      -0.773  11.788  20.148  0.00  0.00    +0.000 OA
ATOM     30  N   UNL     1      -0.624  11.774  17.874  0.00  0.00    +0.000 N 
ATOM     31  H   UNL     1      -0.041  11.582  17.066  0.00  0.00    +0.000 HD
BRANCH  30  32
ATOM     32  O   UNL     1      -1.286  13.025  17.877  0.00  0.00    +0.000 OA
ATOM     33  H   UNL     1      -0.779  13.529  17.201  0.00  0.00    +0.000 HD
ENDBRANCH  30  32
ENDBRANCH  25  28
ENDBRANCH  20  22
ENDBRANCH  19  20
ENDBRANCH   5  19
TORSDOF 7
ENDMDL
