MODEL 1
REMARK VINA RESULT:      -6.8      0.000      0.000
REMARK  Name = 
REMARK  9 active torsions:
REMARK  status: ('A' for Active; 'I' for Inactive)
REMARK    1  A    between atoms: C_1  and  C_2
REMARK    2  A    between atoms: C_3  and  N_4
REMARK    3  A    between atoms: N_4  and  C_5
REMARK    4  A    between atoms: C_5  and  C_6
REMARK    5  A    between atoms: C_6  and  C_7
REMARK    6  A    between atoms: C_7  and  O_8
REMARK    7  A    between atoms: O_8  and  C_9
REMARK    8  A    between atoms: C_13  and  C_14
REMARK    9  A    between atoms: C_20  and  C_21
REMARK                            x       y       z     vdW  Elec       q    Type
REMARK                         _______ _______ _______ _____ _____    ______ ____
ROOT
ATOM      1  N   UNL     1       2.811   5.802  20.422  0.00  0.00    +0.000 N 
ATOM      2  H   UNL     1       2.899   6.100  21.390  0.00  0.00    +0.000 HD
ENDROOT
BRANCH   1   5
ATOM      3  C   UNL     1       1.009   7.964  21.363  0.00  0.00    +0.000 C 
ATOM      4  C   UNL     1       1.648   7.951  19.994  0.00  0.00    +0.000 A 
ATOM      5  C   UNL     1       2.476   6.879  19.562  0.00  0.00    +0.000 A 
ATOM      6  C   UNL     1       3.065   6.979  18.284  0.00  0.00    +0.000 A 
ATOM      7  C   UNL     1       2.830   8.050  17.429  0.00  0.00    +0.000 A 
ATOM      8  C   UNL     1       2.019   9.089  17.846  0.00  0.00    +0.000 A 
ATOM      9  C   UNL     1       1.420   9.055  19.116  0.00  0.00    +0.000 A 
BRANCH   9  10
ATOM     10  C   UNL     1       0.592  10.242  19.514  0.00  0.00    +0.000 C 
ATOM     11  N   UNL     1       1.261  11.332  20.011  0.00  0.00    +0.000 N 
ATOM     12  O   UNL     1      -0.627  10.278  19.420  0.00  0.00    +0.000 OA
ATOM     13  H   UNL     1       2.264  11.439  19.978  0.00  0.00    +0.000 HD
ATOM     14  H   UNL     1       0.701  12.143  20.238  0.00  0.00    +0.000 HD
ENDBRANCH   9  10
ENDBRANCH   1   5
BRANCH   1  15
ATOM     15  C   UNL     1       2.063   4.551  20.253  0.00  0.00    +0.000 C 
BRANCH  15  16
ATOM     16  C   UNL     1       2.925   3.301  20.395  0.00  0.00    +0.000 C 
BRANCH  16  17
ATOM     17  C   UNL     1       3.927   3.232  19.233  0.00  0.00    +0.000 C 
BRANCH  17  18
ATOM     18  O   UNL     1       5.144   3.881  19.616  0.00  0.00    +0.000 OA
BRANCH  18  19
ATOM     19  C   UNL     1       5.811   4.602  18.662  0.00  0.00    +0.000 A 
ATOM     20  C   UNL     1       6.672   5.673  18.900  0.00  0.00    +0.000 A 
ATOM     21  C   UNL     1       7.311   6.317  17.834  0.00  0.00    +0.000 A 
ATOM     22  C   UNL     1       7.085   5.897  16.522  0.00  0.00    +0.000 A 
ATOM     23  C   UNL     1       6.215   4.831  16.271  0.00  0.00    +0.000 A 
ATOM     24  C   UNL     1       5.582   4.190  17.343  0.00  0.00    +0.000 A 
BRANCH  23  25
ATOM     25  C   UNL     1       5.980   4.397  14.920  0.00  0.00    +0.000 C 
ATOM     26  N   UNL     1       5.787   4.044  13.830  0.00  0.00    +0.000 NA
ENDBRANCH  23  25
ENDBRANCH  18  19
ENDBRANCH  17  18
ENDBRANCH  16  17
ENDBRANCH  15  16
ENDBRANCH   1  15
TORSDOF 8
ENDMDL
MODEL 2
REMARK VINA RESULT:      -6.7      1.019      1.081
REMARK  Name = 
REMARK  9 active torsions:
REMARK  status: ('A' for Active; 'I' for Inactive)
REMARK    1  A    between atoms: C_1  and  C_2
REMARK    2  A    between atoms: C_3  and  N_4
REMARK    3  A    between atoms: N_4  and  C_5
REMARK    4  A    between atoms: C_5  and  C_6
REMARK    5  A    between atoms: C_6  and  C_7
REMARK    6  A    between atoms: C_7  and  O_8
REMARK    7  A    between atoms: O_8  and  C_9
REMARK    8  A    between atoms: C_13  and  C_14
REMARK    9  A    between atoms: C_20  and  C_21
REMARK                            x       y       z     vdW  Elec       q    Type
REMARK                         _______ _______ _______ _____ _____    ______ ____
ROOT
ATOM      1  N   UNL     1       2.451   5.910  20.484  0.00  0.00    +0.000 N 
ATOM      2  H   UNL     1       2.730   6.162  21.429  0.00  0.00    +0.000 HD
ENDROOT
BRANCH   1   5
ATOM      3  C   UNL     1       0.871   8.180  21.560  0.00  0.00    +0.000 C 
ATOM      4  C   UNL     1       1.481   8.173  20.178  0.00  0.00    +0.000 A 
ATOM      5  C   UNL     1       2.200   7.052  19.681  0.00  0.00    +0.000 A 
ATOM      6  C   UNL     1       2.772   7.158  18.396  0.00  0.00    +0.000 A 
ATOM      7  C   UNL     1       2.621   8.284  17.595  0.00  0.00    +0.000 A 
ATOM      8  C   UNL     1       1.915   9.372  18.076  0.00  0.00    +0.000 A 
ATOM      9  C   UNL     1       1.338   9.333  19.356  0.00  0.00    +0.000 A 
BRANCH   9  10
ATOM     10  C   UNL     1       0.629  10.570  19.826  0.00  0.00    +0.000 C 
ATOM     11  N   UNL     1      -0.704  10.680  19.518  0.00  0.00    +0.000 N 
ATOM     12  O   UNL     1       1.177  11.465  20.454  0.00  0.00    +0.000 OA
ATOM     13  H   UNL     1      -1.258   9.926  19.141  0.00  0.00    +0.000 HD
ATOM     14  H   UNL     1      -1.184  11.497  19.872  0.00  0.00    +0.000 HD
ENDBRANCH   9  10
ENDBRANCH   1   5
BRANCH   1  15
ATOM     15  C   UNL     1       1.470   4.821  20.427  0.00  0.00    +0.000 C 
BRANCH  15  16
ATOM     16  C   UNL     1       2.099   3.441  20.270  0.00  0.00    +0.000 C 
BRANCH  16  17
ATOM     17  C   UNL     1       3.622   3.582  20.126  0.00  0.00    +0.000 C 
BRANCH  17  18
ATOM     18  O   UNL     1       3.949   3.814  18.751  0.00  0.00    +0.000 OA
BRANCH  18  19
ATOM     19  C   UNL     1       5.109   4.488  18.476  0.00  0.00    +0.000 A 
ATOM     20  C   UNL     1       5.917   5.136  19.410  0.00  0.00    +0.000 A 
ATOM     21  C   UNL     1       7.095   5.774  19.003  0.00  0.00    +0.000 A 
ATOM     22  C   UNL     1       7.465   5.774  17.657  0.00  0.00    +0.000 A 
ATOM     23  C   UNL     1       6.656   5.137  16.710  0.00  0.00    +0.000 A 
ATOM     24  C   UNL     1       5.481   4.498  17.126  0.00  0.00    +0.000 A 
BRANCH  23  25
ATOM     25  C   UNL     1       7.034   5.137  15.324  0.00  0.00    +0.000 C 
ATOM     26  N   UNL     1       7.345   5.139  14.204  0.00  0.00    +0.000 NA
ENDBRANCH  23  25
ENDBRANCH  18  19
ENDBRANCH  17  18
ENDBRANCH  16  17
ENDBRANCH  15  16
ENDBRANCH   1  15
TORSDOF 8
ENDMDL
MODEL 3
REMARK VINA RESULT:      -6.4      1.845      2.822
REMARK  Name = 
REMARK  9 active torsions:
REMARK  status: ('A' for Active; 'I' for Inactive)
REMARK    1  A    between atoms: C_1  and  C_2
REMARK    2  A    between atoms: C_3  and  N_4
REMARK    3  A    between atoms: N_4  and  C_5
REMARK    4  A    between atoms: C_5  and  C_6
REMARK    5  A    between atoms: C_6  and  C_7
REMARK    6  A    between atoms: C_7  and  O_8
REMARK    7  A    between atoms: O_8  and  C_9
REMARK    8  A    between atoms: C_13  and  C_14
REMARK    9  A    between atoms: C_20  and  C_21
REMARK                            x       y       z     vdW  Elec       q    Type
REMARK                         _______ _______ _______ _____ _____    ______ ____
ROOT
ATOM      1  N   UNL     1       2.699   6.533  20.103  0.00  0.00    +0.000 N 
ATOM      2  H   UNL     1       3.619   6.715  20.495  0.00  0.00    +0.000 HD
ENDROOT
BRANCH   1   5
ATOM      3  C   UNL     1       2.362   8.601  18.001  0.00  0.00    +0.000 C 
ATOM      4  C   UNL     1       1.594   8.605  19.302  0.00  0.00    +0.000 A 
ATOM      5  C   UNL     1       1.810   7.620  20.304  0.00  0.00    +0.000 A 
ATOM      6  C   UNL     1       1.011   7.680  21.466  0.00  0.00    +0.000 A 
ATOM      7  C   UNL     1       0.070   8.681  21.680  0.00  0.00    +0.000 A 
ATOM      8  C   UNL     1      -0.134   9.644  20.710  0.00  0.00    +0.000 A 
ATOM      9  C   UNL     1       0.617   9.624  19.523  0.00  0.00    +0.000 A 
BRANCH   9  10
ATOM     10  C   UNL     1       0.304  10.675  18.497  0.00  0.00    +0.000 C 
ATOM     11  N   UNL     1      -0.697  10.394  17.601  0.00  0.00    +0.000 N 
ATOM     12  O   UNL     1       0.892  11.745  18.425  0.00  0.00    +0.000 OA
ATOM     13  H   UNL     1      -1.325   9.609  17.688  0.00  0.00    +0.000 HD
ATOM     14  H   UNL     1      -0.930  11.123  16.939  0.00  0.00    +0.000 HD
ENDBRANCH   9  10
ENDBRANCH   1   5
BRANCH   1  15
ATOM     15  C   UNL     1       2.189   5.188  20.391  0.00  0.00    +0.000 C 
BRANCH  15  16
ATOM     16  C   UNL     1       1.465   4.545  19.213  0.00  0.00    +0.000 C 
BRANCH  16  17
ATOM     17  C   UNL     1       2.491   3.922  18.255  0.00  0.00    +0.000 C 
BRANCH  17  18
ATOM     18  O   UNL     1       3.812   4.279  18.676  0.00  0.00    +0.000 OA
BRANCH  18  19
ATOM     19  C   UNL     1       4.734   4.569  17.707  0.00  0.00    +0.000 A 
ATOM     20  C   UNL     1       4.951   3.836  16.540  0.00  0.00    +0.000 A 
ATOM     21  C   UNL     1       5.915   4.250  15.614  0.00  0.00    +0.000 A 
ATOM     22  C   UNL     1       6.673   5.397  15.854  0.00  0.00    +0.000 A 
ATOM     23  C   UNL     1       6.472   6.134  17.026  0.00  0.00    +0.000 A 
ATOM     24  C   UNL     1       5.503   5.715  17.946  0.00  0.00    +0.000 A 
BRANCH  23  25
ATOM     25  C   UNL     1       7.252   7.315  17.275  0.00  0.00    +0.000 C 
ATOM     26  N   UNL     1       7.880   8.273  17.477  0.00  0.00    +0.000 NA
ENDBRANCH  23  25
ENDBRANCH  18  19
ENDBRANCH  17  18
ENDBRANCH  16  17
ENDBRANCH  15  16
ENDBRANCH   1  15
TORSDOF 8
ENDMDL
MODEL 4
REMARK VINA RESULT:      -6.4      1.384      2.277
REMARK  Name = 
REMARK  9 active torsions:
REMARK  status: ('A' for Active; 'I' for Inactive)
REMARK    1  A    between atoms: C_1  and  C_2
REMARK    2  A    between atoms: C_3  and  N_4
REMARK    3  A    between atoms: N_4  and  C_5
REMARK    4  A    between atoms: C_5  and  C_6
REMARK    5  A    between atoms: C_6  and  C_7
REMARK    6  A    between atoms: C_7  and  O_8
REMARK    7  A    between atoms: O_8  and  C_9
REMARK    8  A    between atoms: C_13  and  C_14
REMARK    9  A    between atoms: C_20  and  C_21
REMARK                            x       y       z     vdW  Elec       q    Type
REMARK                         _______ _______ _______ _____ _____    ______ ____
ROOT
ATOM      1  N   UNL     1       2.290   6.970  20.045  0.00  0.00    +0.000 N 
ATOM      2  H   UNL     1       3.285   7.144  20.156  0.00  0.00    +0.000 HD
ENDROOT
BRANCH   1   5
ATOM      3  C   UNL     1       1.968   9.094  17.998  0.00  0.00    +0.000 C 
ATOM      4  C   UNL     1       1.304   9.140  19.355  0.00  0.00    +0.000 A 
ATOM      5  C   UNL     1       1.512   8.123  20.326  0.00  0.00    +0.000 A 
ATOM      6  C   UNL     1       0.812   8.229  21.547  0.00  0.00    +0.000 A 
ATOM      7  C   UNL     1      -0.022   9.300  21.844  0.00  0.00    +0.000 A 
ATOM      8  C   UNL     1      -0.218  10.293  20.903  0.00  0.00    +0.000 A 
ATOM      9  C   UNL     1       0.436  10.232  19.661  0.00  0.00    +0.000 A 
BRANCH   9  10
ATOM     10  C   UNL     1       0.135  11.323  18.675  0.00  0.00    +0.000 C 
ATOM     11  N   UNL     1      -0.917  11.117  17.818  0.00  0.00    +0.000 N 
ATOM     12  O   UNL     1       0.775  12.362  18.601  0.00  0.00    +0.000 OA
ATOM     13  H   UNL     1      -1.582  10.363  17.914  0.00  0.00    +0.000 HD
ATOM     14  H   UNL     1      -1.140  11.872  17.184  0.00  0.00    +0.000 HD
ENDBRANCH   9  10
ENDBRANCH   1   5
BRANCH   1  15
ATOM     15  C   UNL     1       1.843   5.701  20.631  0.00  0.00    +0.000 C 
BRANCH  15  16
ATOM     16  C   UNL     1       1.670   4.584  19.608  0.00  0.00    +0.000 C 
BRANCH  16  17
ATOM     17  C   UNL     1       2.868   4.575  18.646  0.00  0.00    +0.000 C 
BRANCH  17  18
ATOM     18  O   UNL     1       4.066   4.856  19.379  0.00  0.00    +0.000 OA
BRANCH  18  19
ATOM     19  C   UNL     1       5.243   4.903  18.681  0.00  0.00    +0.000 A 
ATOM     20  C   UNL     1       6.479   5.301  19.190  0.00  0.00    +0.000 A 
ATOM     21  C   UNL     1       7.617   5.286  18.376  0.00  0.00    +0.000 A 
ATOM     22  C   UNL     1       7.523   4.879  17.044  0.00  0.00    +0.000 A 
ATOM     23  C   UNL     1       6.286   4.488  16.520  0.00  0.00    +0.000 A 
ATOM     24  C   UNL     1       5.153   4.503  17.342  0.00  0.00    +0.000 A 
BRANCH  23  25
ATOM     25  C   UNL     1       6.187   4.070  15.148  0.00  0.00    +0.000 C 
ATOM     26  N   UNL     1       6.111   3.729  14.039  0.00  0.00    +0.000 NA
ENDBRANCH  23  25
ENDBRANCH  18  19
ENDBRANCH  17  18
ENDBRANCH  16  17
ENDBRANCH  15  16
ENDBRANCH   1  15
TORSDOF 8
ENDMDL
MODEL 5
REMARK VINA RESULT:      -6.4      1.078      1.183
REMARK  Name = 
REMARK  9 active torsions:
REMARK  status: ('A' for Active; 'I' for Inactive)
REMARK    1  A    between atoms: C_1  and  C_2
REMARK    2  A    between atoms: C_3  and  N_4
REMARK    3  A    between atoms: N_4  and  C_5
REMARK    4  A    between atoms: C_5  and  C_6
REMARK    5  A    between atoms: C_6  and  C_7
REMARK    6  A    between atoms: C_7  and  O_8
REMARK    7  A    between atoms: O_8  and  C_9
REMARK    8  A    between atoms: C_13  and  C_14
REMARK    9  A    between atoms: C_20  and  C_21
REMARK                            x       y       z     vdW  Elec       q    Type
REMARK                         _______ _______ _______ _____ _____    ______ ____
ROOT
ATOM      1  N   UNL     1       2.442   6.463  20.511  0.00  0.00    +0.000 N 
ATOM      2  H   UNL     1       2.859   6.721  21.401  0.00  0.00    +0.000 HD
ENDROOT
BRANCH   1   5
ATOM      3  C   UNL     1       1.032   8.629  21.969  0.00  0.00    +0.000 C 
ATOM      4  C   UNL     1       1.298   8.664  20.482  0.00  0.00    +0.000 A 
ATOM      5  C   UNL     1       1.943   7.590  19.810  0.00  0.00    +0.000 A 
ATOM      6  C   UNL     1       2.189   7.735  18.428  0.00  0.00    +0.000 A 
ATOM      7  C   UNL     1       1.789   8.853  17.706  0.00  0.00    +0.000 A 
ATOM      8  C   UNL     1       1.155   9.895  18.359  0.00  0.00    +0.000 A 
ATOM      9  C   UNL     1       0.899   9.816  19.738  0.00  0.00    +0.000 A 
BRANCH   9  10
ATOM     10  C   UNL     1       0.251  11.007  20.383  0.00  0.00    +0.000 C 
ATOM     11  N   UNL     1       1.071  12.047  20.742  0.00  0.00    +0.000 N 
ATOM     12  O   UNL     1      -0.950  11.086  20.599  0.00  0.00    +0.000 OA
ATOM     13  H   UNL     1       2.038  12.123  20.462  0.00  0.00    +0.000 HD
ATOM     14  H   UNL     1       0.622  12.862  21.138  0.00  0.00    +0.000 HD
ENDBRANCH   9  10
ENDBRANCH   1   5
BRANCH   1  15
ATOM     15  C   UNL     1       1.576   5.281  20.584  0.00  0.00    +0.000 C 
BRANCH  15  16
ATOM     16  C   UNL     1       1.852   4.253  19.492  0.00  0.00    +0.000 C 
BRANCH  16  17
ATOM     17  C   UNL     1       3.369   4.077  19.323  0.00  0.00    +0.000 C 
BRANCH  17  18
ATOM     18  O   UNL     1       3.877   5.121  18.484  0.00  0.00    +0.000 OA
BRANCH  18  19
ATOM     19  C   UNL     1       5.093   4.923  17.886  0.00  0.00    +0.000 A 
ATOM     20  C   UNL     1       6.335   5.014  18.513  0.00  0.00    +0.000 A 
ATOM     21  C   UNL     1       7.510   4.768  17.793  0.00  0.00    +0.000 A 
ATOM     22  C   UNL     1       7.448   4.438  16.438  0.00  0.00    +0.000 A 
ATOM     23  C   UNL     1       6.207   4.355  15.797  0.00  0.00    +0.000 A 
ATOM     24  C   UNL     1       5.036   4.599  16.525  0.00  0.00    +0.000 A 
BRANCH  23  25
ATOM     25  C   UNL     1       6.141   4.015  14.401  0.00  0.00    +0.000 C 
ATOM     26  N   UNL     1       6.082   3.743  13.273  0.00  0.00    +0.000 NA
ENDBRANCH  23  25
ENDBRANCH  18  19
ENDBRANCH  17  18
ENDBRANCH  16  17
ENDBRANCH  15  16
ENDBRANCH   1  15
TORSDOF 8
ENDMDL
MODEL 6
REMARK VINA RESULT:      -6.4      2.236      5.972
REMARK  Name = 
REMARK  9 active torsions:
REMARK  status: ('A' for Active; 'I' for Inactive)
REMARK    1  A    between atoms: C_1  and  C_2
REMARK    2  A    between atoms: C_3  and  N_4
REMARK    3  A    between atoms: N_4  and  C_5
REMARK    4  A    between atoms: C_5  and  C_6
REMARK    5  A    between atoms: C_6  and  C_7
REMARK    6  A    between atoms: C_7  and  O_8
REMARK    7  A    between atoms: O_8  and  C_9
REMARK    8  A    between atoms: C_13  and  C_14
REMARK    9  A    between atoms: C_20  and  C_21
REMARK                            x       y       z     vdW  Elec       q    Type
REMARK                         _______ _______ _______ _____ _____    ______ ____
ROOT
ATOM      1  N   UNL     1       4.771   2.903  19.644  0.00  0.00    +0.000 N 
ATOM      2  H   UNL     1       5.191   3.395  20.428  0.00  0.00    +0.000 HD
ENDROOT
BRANCH   1   5
ATOM      3  C   UNL     1       6.451   5.345  19.498  0.00  0.00    +0.000 C 
ATOM      4  C   UNL     1       5.658   4.811  18.328  0.00  0.00    +0.000 A 
ATOM      5  C   UNL     1       4.832   3.659  18.445  0.00  0.00    +0.000 A 
ATOM      6  C   UNL     1       4.167   3.210  17.285  0.00  0.00    +0.000 A 
ATOM      7  C   UNL     1       4.253   3.870  16.065  0.00  0.00    +0.000 A 
ATOM      8  C   UNL     1       5.050   4.995  15.953  0.00  0.00    +0.000 A 
ATOM      9  C   UNL     1       5.752   5.479  17.069  0.00  0.00    +0.000 A 
BRANCH   9  10
ATOM     10  C   UNL     1       6.633   6.676  16.857  0.00  0.00    +0.000 C 
ATOM     11  N   UNL     1       7.835   6.463  16.230  0.00  0.00    +0.000 N 
ATOM     12  O   UNL     1       6.334   7.806  17.213  0.00  0.00    +0.000 OA
ATOM     13  H   UNL     1       8.086   5.598  15.774  0.00  0.00    +0.000 HD
ATOM     14  H   UNL     1       8.405   7.280  16.053  0.00  0.00    +0.000 HD
ENDBRANCH   9  10
ENDBRANCH   1   5
BRANCH   1  15
ATOM     15  C   UNL     1       3.492   2.261  19.966  0.00  0.00    +0.000 C 
BRANCH  15  16
ATOM     16  C   UNL     1       2.956   2.626  21.346  0.00  0.00    +0.000 C 
BRANCH  16  17
ATOM     17  C   UNL     1       2.316   4.022  21.297  0.00  0.00    +0.000 C 
BRANCH  17  18
ATOM     18  O   UNL     1       2.062   4.380  19.934  0.00  0.00    +0.000 OA
BRANCH  18  19
ATOM     19  C   UNL     1       2.055   5.711  19.615  0.00  0.00    +0.000 A 
ATOM     20  C   UNL     1       2.343   6.252  18.362  0.00  0.00    +0.000 A 
ATOM     21  C   UNL     1       2.282   7.636  18.158  0.00  0.00    +0.000 A 
ATOM     22  C   UNL     1       1.939   8.486  19.210  0.00  0.00    +0.000 A 
ATOM     23  C   UNL     1       1.659   7.955  20.474  0.00  0.00    +0.000 A 
ATOM     24  C   UNL     1       1.719   6.570  20.669  0.00  0.00    +0.000 A 
BRANCH  23  25
ATOM     25  C   UNL     1       1.306   8.830  21.559  0.00  0.00    +0.000 C 
ATOM     26  N   UNL     1       1.017   9.535  22.436  0.00  0.00    +0.000 NA
ENDBRANCH  23  25
ENDBRANCH  18  19
ENDBRANCH  17  18
ENDBRANCH  16  17
ENDBRANCH  15  16
ENDBRANCH   1  15
TORSDOF 8
ENDMDL
MODEL 7
REMARK VINA RESULT:      -6.4      2.206      5.148
REMARK  Name = 
REMARK  9 active torsions:
REMARK  status: ('A' for Active; 'I' for Inactive)
REMARK    1  A    between atoms: C_1  and  C_2
REMARK    2  A    between atoms: C_3  and  N_4
REMARK    3  A    between atoms: N_4  and  C_5
REMARK    4  A    between atoms: C_5  and  C_6
REMARK    5  A    between atoms: C_6  and  C_7
REMARK    6  A    between atoms: C_7  and  O_8
REMARK    7  A    between atoms: O_8  and  C_9
REMARK    8  A    between atoms: C_13  and  C_14
REMARK    9  A    between atoms: C_20  and  C_21
REMARK                            x       y       z     vdW  Elec       q    Type
REMARK                         _______ _______ _______ _____ _____    ______ ____
ROOT
ATOM      1  N   UNL     1       2.762   6.709  19.973  0.00  0.00    +0.000 N 
ATOM      2  H   UNL     1       3.742   6.911  19.797  0.00  0.00    +0.000 HD
ENDROOT
BRANCH   1   5
ATOM      3  C   UNL     1       4.926   4.764  19.389  0.00  0.00    +0.000 C 
ATOM      4  C   UNL     1       3.535   4.356  19.815  0.00  0.00    +0.000 A 
ATOM      5  C   UNL     1       2.511   5.315  20.049  0.00  0.00    +0.000 A 
ATOM      6  C   UNL     1       1.258   4.840  20.490  0.00  0.00    +0.000 A 
ATOM      7  C   UNL     1       0.981   3.488  20.655  0.00  0.00    +0.000 A 
ATOM      8  C   UNL     1       1.974   2.556  20.420  0.00  0.00    +0.000 A 
ATOM      9  C   UNL     1       3.249   2.969  19.998  0.00  0.00    +0.000 A 
BRANCH   9  10
ATOM     10  C   UNL     1       4.287   1.901  19.810  0.00  0.00    +0.000 C 
ATOM     11  N   UNL     1       4.224   1.166  18.653  0.00  0.00    +0.000 N 
ATOM     12  O   UNL     1       5.166   1.662  20.626  0.00  0.00    +0.000 OA
ATOM     13  H   UNL     1       3.632   1.399  17.870  0.00  0.00    +0.000 HD
ATOM     14  H   UNL     1       4.951   0.476  18.514  0.00  0.00    +0.000 HD
ENDBRANCH   9  10
ENDBRANCH   1   5
BRANCH   1  15
ATOM     15  C   UNL     1       1.838   7.512  19.165  0.00  0.00    +0.000 C 
BRANCH  15  16
ATOM     16  C   UNL     1       2.513   8.238  18.006  0.00  0.00    +0.000 C 
BRANCH  16  17
ATOM     17  C   UNL     1       3.944   7.707  17.829  0.00  0.00    +0.000 C 
BRANCH  17  18
ATOM     18  O   UNL     1       4.089   7.163  16.513  0.00  0.00    +0.000 OA
BRANCH  18  19
ATOM     19  C   UNL     1       5.205   6.414  16.252  0.00  0.00    +0.000 A 
ATOM     20  C   UNL     1       6.372   6.394  17.015  0.00  0.00    +0.000 A 
ATOM     21  C   UNL     1       7.440   5.566  16.653  0.00  0.00    +0.000 A 
ATOM     22  C   UNL     1       7.349   4.757  15.518  0.00  0.00    +0.000 A 
ATOM     23  C   UNL     1       6.187   4.777  14.739  0.00  0.00    +0.000 A 
ATOM     24  C   UNL     1       5.122   5.607  15.110  0.00  0.00    +0.000 A 
BRANCH  23  25
ATOM     25  C   UNL     1       6.092   3.947  13.569  0.00  0.00    +0.000 C 
ATOM     26  N   UNL     1       6.013   3.272  12.627  0.00  0.00    +0.000 NA
ENDBRANCH  23  25
ENDBRANCH  18  19
ENDBRANCH  17  18
ENDBRANCH  16  17
ENDBRANCH  15  16
ENDBRANCH   1  15
TORSDOF 8
ENDMDL
MODEL 8
REMARK VINA RESULT:      -6.3      2.185      4.353
REMARK  Name = 
REMARK  9 active torsions:
REMARK  status: ('A' for Active; 'I' for Inactive)
REMARK    1  A    between atoms: C_1  and  C_2
REMARK    2  A    between atoms: C_3  and  N_4
REMARK    3  A    between atoms: N_4  and  C_5
REMARK    4  A    between atoms: C_5  and  C_6
REMARK    5  A    between atoms: C_6  and  C_7
REMARK    6  A    between atoms: C_7  and  O_8
REMARK    7  A    between atoms: O_8  and  C_9
REMARK    8  A    between atoms: C_13  and  C_14
REMARK    9  A    between atoms: C_20  and  C_21
REMARK                            x       y       z     vdW  Elec       q    Type
REMARK                         _______ _______ _______ _____ _____    ______ ____
ROOT
ATOM      1  N   UNL     1       2.896   6.940  17.916  0.00  0.00    +0.000 N 
ATOM      2  H   UNL     1       2.327   6.416  17.257  0.00  0.00    +0.000 HD
ENDROOT
BRANCH   1   5
ATOM      3  C   UNL     1       1.923   6.724  20.711  0.00  0.00    +0.000 C 
ATOM      4  C   UNL     1       1.732   7.956  19.857  0.00  0.00    +0.000 A 
ATOM      5  C   UNL     1       2.177   8.010  18.508  0.00  0.00    +0.000 A 
ATOM      6  C   UNL     1       1.996   9.220  17.806  0.00  0.00    +0.000 A 
ATOM      7  C   UNL     1       1.365  10.326  18.363  0.00  0.00    +0.000 A 
ATOM      8  C   UNL     1       0.924  10.271  19.673  0.00  0.00    +0.000 A 
ATOM      9  C   UNL     1       1.095   9.099  20.429  0.00  0.00    +0.000 A 
BRANCH   9  10
ATOM     10  C   UNL     1       0.634   9.133  21.858  0.00  0.00    +0.000 C 
ATOM     11  N   UNL     1      -0.617   8.634  22.122  0.00  0.00    +0.000 N 
ATOM     12  O   UNL     1       1.308   9.580  22.774  0.00  0.00    +0.000 OA
ATOM     13  H   UNL     1      -1.168   8.114  21.455  0.00  0.00    +0.000 HD
ATOM     14  H   UNL     1      -0.905   8.623  23.092  0.00  0.00    +0.000 HD
ENDBRANCH   9  10
ENDBRANCH   1   5
BRANCH   1  15
ATOM     15  C   UNL     1       4.249   7.230  17.428  0.00  0.00    +0.000 C 
BRANCH  15  16
ATOM     16  C   UNL     1       4.778   6.194  16.441  0.00  0.00    +0.000 C 
BRANCH  16  17
ATOM     17  C   UNL     1       5.630   5.158  17.190  0.00  0.00    +0.000 C 
BRANCH  17  18
ATOM     18  O   UNL     1       5.042   4.894  18.468  0.00  0.00    +0.000 OA
BRANCH  18  19
ATOM     19  C   UNL     1       4.112   3.892  18.548  0.00  0.00    +0.000 A 
ATOM     20  C   UNL     1       3.766   3.016  17.520  0.00  0.00    +0.000 A 
ATOM     21  C   UNL     1       2.810   2.016  17.735  0.00  0.00    +0.000 A 
ATOM     22  C   UNL     1       2.190   1.893  18.979  0.00  0.00    +0.000 A 
ATOM     23  C   UNL     1       2.521   2.774  20.014  0.00  0.00    +0.000 A 
ATOM     24  C   UNL     1       3.481   3.769  19.792  0.00  0.00    +0.000 A 
BRANCH  23  25
ATOM     25  C   UNL     1       1.882   2.650  21.296  0.00  0.00    +0.000 C 
ATOM     26  N   UNL     1       1.367   2.554  22.334  0.00  0.00    +0.000 NA
ENDBRANCH  23  25
ENDBRANCH  18  19
ENDBRANCH  17  18
ENDBRANCH  16  17
ENDBRANCH  15  16
ENDBRANCH   1  15
TORSDOF 8
ENDMDL
MODEL 9
REMARK VINA RESULT:      -6.3      1.686      2.168
REMARK  Name = 
REMARK  9 active torsions:
REMARK  status: ('A' for Active; 'I' for Inactive)
REMARK    1  A    between atoms: C_1  and  C_2
REMARK    2  A    between atoms: C_3  and  N_4
REMARK    3  A    between atoms: N_4  and  C_5
REMARK    4  A    between atoms: C_5  and  C_6
REMARK    5  A    between atoms: C_6  and  C_7
REMARK    6  A    between atoms: C_7  and  O_8
REMARK    7  A    between atoms: O_8  and  C_9
REMARK    8  A    between atoms: C_13  and  C_14
REMARK    9  A    between atoms: C_20  and  C_21
REMARK                            x       y       z     vdW  Elec       q    Type
REMARK                         _______ _______ _______ _____ _____    ______ ____
ROOT
ATOM      1  N   UNL     1       1.845   6.600  20.976  0.00  0.00    +0.000 N 
ATOM      2  H   UNL     1       0.933   6.498  21.414  0.00  0.00    +0.000 HD
ENDROOT
BRANCH   1   5
ATOM      3  C   UNL     1       0.303   9.122  21.246  0.00  0.00    +0.000 C 
ATOM      4  C   UNL     1       1.130   8.779  20.029  0.00  0.00    +0.000 A 
ATOM      5  C   UNL     1       1.824   7.544  19.918  0.00  0.00    +0.000 A 
ATOM      6  C   UNL     1       2.608   7.335  18.763  0.00  0.00    +0.000 A 
ATOM      7  C   UNL     1       2.684   8.259  17.728  0.00  0.00    +0.000 A 
ATOM      8  C   UNL     1       2.002   9.457  17.833  0.00  0.00    +0.000 A 
ATOM      9  C   UNL     1       1.221   9.732  18.968  0.00  0.00    +0.000 A 
BRANCH   9  10
ATOM     10  C   UNL     1       0.550  11.073  19.029  0.00  0.00    +0.000 C 
ATOM     11  N   UNL     1      -0.558  11.254  18.239  0.00  0.00    +0.000 N 
ATOM     12  O   UNL     1       0.940  11.991  19.736  0.00  0.00    +0.000 OA
ATOM     13  H   UNL     1      -1.028  10.506  17.751  0.00  0.00    +0.000 HD
ATOM     14  H   UNL     1      -1.029  12.146  18.317  0.00  0.00    +0.000 HD
ENDBRANCH   9  10
ENDBRANCH   1   5
BRANCH   1  15
ATOM     15  C   UNL     1       2.526   5.326  20.725  0.00  0.00    +0.000 C 
BRANCH  15  16
ATOM     16  C   UNL     1       1.708   4.352  19.884  0.00  0.00    +0.000 C 
BRANCH  16  17
ATOM     17  C   UNL     1       2.654   3.430  19.099  0.00  0.00    +0.000 C 
BRANCH  17  18
ATOM     18  O   UNL     1       3.993   3.929  19.196  0.00  0.00    +0.000 OA
BRANCH  18  19
ATOM     19  C   UNL     1       4.600   4.354  18.045  0.00  0.00    +0.000 A 
ATOM     20  C   UNL     1       4.413   3.810  16.774  0.00  0.00    +0.000 A 
ATOM     21  C   UNL     1       5.080   4.350  15.669  0.00  0.00    +0.000 A 
ATOM     22  C   UNL     1       5.944   5.435  15.830  0.00  0.00    +0.000 A 
ATOM     23  C   UNL     1       6.147   5.982  17.102  0.00  0.00    +0.000 A 
ATOM     24  C   UNL     1       5.473   5.437  18.202  0.00  0.00    +0.000 A 
BRANCH  23  25
ATOM     25  C   UNL     1       7.037   7.098  17.271  0.00  0.00    +0.000 C 
ATOM     26  N   UNL     1       7.755   8.001  17.412  0.00  0.00    +0.000 NA
ENDBRANCH  23  25
ENDBRANCH  18  19
ENDBRANCH  17  18
ENDBRANCH  16  17
ENDBRANCH  15  16
ENDBRANCH   1  15
TORSDOF 8
ENDMDL
