MODEL 1
REMARK VINA RESULT:      -8.5      0.000      0.000
REMARK  Name = 
REMARK  8 active torsions:
REMARK  status: ('A' for Active; 'I' for Inactive)
REMARK    1  A    between atoms: C_1  and  C_2
REMARK    2  A    between atoms: C_2  and  N_3
REMARK    3  A    between atoms: C_2  and  C_20
REMARK    4  A    between atoms: C_9  and  N_10
REMARK    5  A    between atoms: C_15  and  C_16
REMARK    6  A    between atoms: C_16  and  C_17
REMARK    7  A    between atoms: C_16  and  O_18
REMARK    8  A    between atoms: N_23  and  C_24
REMARK                            x       y       z     vdW  Elec       q    Type
REMARK                         _______ _______ _______ _____ _____    ______ ____
ROOT
ATOM      1  N   UNL     1       1.623   6.414  19.585  0.00  0.00    +0.000 N 
ATOM      2  C   UNL     1       2.586   5.421  19.631  0.00  0.00    +0.000 A 
ATOM      3  N   UNL     1       2.213   4.276  20.207  0.00  0.00    +0.000 NA
ATOM      4  C   UNL     1       3.125   3.297  20.202  0.00  0.00    +0.000 A 
ATOM      5  F   UNL     1       2.789   2.136  20.787  0.00  0.00    +0.000 F 
ATOM      6  C   UNL     1       4.361   3.385  19.625  0.00  0.00    +0.000 A 
ATOM      7  C   UNL     1       4.641   4.585  19.037  0.00  0.00    +0.000 A 
ATOM      8  N   UNL     1       3.784   5.614  19.066  0.00  0.00    +0.000 NA
ATOM      9  H   UNL     1       0.892   6.158  20.235  0.00  0.00    +0.000 HD
ENDROOT
BRANCH   7  10
ATOM     10  N   UNL     1       5.830   4.753  18.316  0.00  0.00    +0.000 N 
ATOM     11  C   UNL     1       7.013   5.124  18.910  0.00  0.00    +0.000 C 
ATOM     12  O   UNL     1       7.211   5.422  20.077  0.00  0.00    +0.000 OA
ATOM     13  O   UNL     1       8.031   5.030  17.997  0.00  0.00    +0.000 OA
ATOM     14  C   UNL     1       7.461   4.800  16.705  0.00  0.00    +0.000 C 
ATOM     15  C   UNL     1       6.044   4.300  16.964  0.00  0.00    +0.000 C 
BRANCH  15  16
ATOM     16  C   UNL     1       5.033   4.872  15.935  0.00  0.00    +0.000 C 
ATOM     17  C   UNL     1       5.103   6.389  15.784  0.00  0.00    +0.000 C 
BRANCH  16  18
ATOM     18  O   UNL     1       5.249   4.315  14.635  0.00  0.00    +0.000 OA
ATOM     19  H   UNL     1       5.270   5.026  13.976  0.00  0.00    +0.000 HD
ENDBRANCH  16  18
ENDBRANCH  15  16
ENDBRANCH   7  10
BRANCH   1  21
ATOM     20  C   UNL     1       2.098   8.404  18.304  0.00  0.00    +0.000 C 
ATOM     21  C   UNL     1       2.112   7.781  19.713  0.00  0.00    +0.000 C 
BRANCH  21  22
ATOM     22  C   UNL     1       1.344   8.652  20.668  0.00  0.00    +0.000 A 
ATOM     23  C   UNL     1       1.552   8.809  22.053  0.00  0.00    +0.000 A 
ATOM     24  N   UNL     1       0.753   9.734  22.593  0.00  0.00    +0.000 NA
ATOM     25  N   UNL     1      -0.008  10.176  21.562  0.00  0.00    +0.000 N 
ATOM     26  C   UNL     1       0.303   9.516  20.397  0.00  0.00    +0.000 A 
BRANCH  25  27
ATOM     27  C   UNL     1      -0.990  11.192  21.740  0.00  0.00    +0.000 A 
ATOM     28  C   UNL     1      -1.520  11.433  23.017  0.00  0.00    +0.000 A 
ATOM     29  C   UNL     1      -2.518  12.396  23.189  0.00  0.00    +0.000 A 
ATOM     30  C   UNL     1      -2.983  13.109  22.086  0.00  0.00    +0.000 A 
ATOM     31  F   UNL     1      -3.961  14.011  22.248  0.00  0.00    +0.000 F 
ATOM     32  C   UNL     1      -2.452  12.899  20.823  0.00  0.00    +0.000 A 
ATOM     33  C   UNL     1      -1.445  11.946  20.646  0.00  0.00    +0.000 A 
ENDBRANCH  25  27
ENDBRANCH  21  22
ENDBRANCH   1  21
TORSDOF 6
ENDMDL
MODEL 2
REMARK VINA RESULT:      -8.2      6.384      8.292
REMARK  Name = 
REMARK  8 active torsions:
REMARK  status: ('A' for Active; 'I' for Inactive)
REMARK    1  A    between atoms: C_1  and  C_2
REMARK    2  A    between atoms: C_2  and  N_3
REMARK    3  A    between atoms: C_2  and  C_20
REMARK    4  A    between atoms: C_9  and  N_10
REMARK    5  A    between atoms: C_15  and  C_16
REMARK    6  A    between atoms: C_16  and  C_17
REMARK    7  A    between atoms: C_16  and  O_18
REMARK    8  A    between atoms: N_23  and  C_24
REMARK                            x       y       z     vdW  Elec       q    Type
REMARK                         _______ _______ _______ _____ _____    ______ ____
ROOT
ATOM      1  N   UNL     1       7.735   5.390  17.445  0.00  0.00    +0.000 N 
ATOM      2  C   UNL     1       6.577   4.977  16.810  0.00  0.00    +0.000 A 
ATOM      3  N   UNL     1       6.665   4.816  15.487  0.00  0.00    +0.000 NA
ATOM      4  C   UNL     1       5.562   4.364  14.881  0.00  0.00    +0.000 A 
ATOM      5  F   UNL     1       5.610   4.204  13.548  0.00  0.00    +0.000 F 
ATOM      6  C   UNL     1       4.400   4.032  15.520  0.00  0.00    +0.000 A 
ATOM      7  C   UNL     1       4.415   4.205  16.874  0.00  0.00    +0.000 A 
ATOM      8  N   UNL     1       5.475   4.708  17.520  0.00  0.00    +0.000 NA
ATOM      9  H   UNL     1       8.365   5.736  16.733  0.00  0.00    +0.000 HD
ENDROOT
BRANCH   7  10
ATOM     10  N   UNL     1       3.323   3.790  17.647  0.00  0.00    +0.000 N 
ATOM     11  C   UNL     1       2.262   4.615  17.936  0.00  0.00    +0.000 C 
ATOM     12  O   UNL     1       2.122   5.795  17.652  0.00  0.00    +0.000 OA
ATOM     13  O   UNL     1       1.271   3.889  18.545  0.00  0.00    +0.000 OA
ATOM     14  C   UNL     1       1.791   2.594  18.862  0.00  0.00    +0.000 C 
ATOM     15  C   UNL     1       3.028   2.421  17.988  0.00  0.00    +0.000 C 
BRANCH  15  16
ATOM     16  C   UNL     1       4.171   1.694  18.743  0.00  0.00    +0.000 C 
ATOM     17  C   UNL     1       4.296   2.101  20.209  0.00  0.00    +0.000 C 
BRANCH  16  18
ATOM     18  O   UNL     1       3.984   0.276  18.722  0.00  0.00    +0.000 OA
ATOM     19  H   UNL     1       3.426   0.033  17.967  0.00  0.00    +0.000 HD
ENDBRANCH  16  18
ENDBRANCH  15  16
ENDBRANCH   7  10
BRANCH   1  21
ATOM     20  C   UNL     1       8.327   5.652  19.770  0.00  0.00    +0.000 C 
ATOM     21  C   UNL     1       7.553   6.272  18.591  0.00  0.00    +0.000 C 
BRANCH  21  22
ATOM     22  C   UNL     1       7.988   7.695  18.382  0.00  0.00    +0.000 A 
ATOM     23  C   UNL     1       7.522   8.609  17.416  0.00  0.00    +0.000 A 
ATOM     24  N   UNL     1       8.049   9.828  17.561  0.00  0.00    +0.000 NA
ATOM     25  N   UNL     1       8.892   9.716  18.617  0.00  0.00    +0.000 N 
ATOM     26  C   UNL     1       8.901   8.431  19.110  0.00  0.00    +0.000 A 
BRANCH  25  27
ATOM     27  C   UNL     1       9.644  10.826  19.096  0.00  0.00    +0.000 A 
ATOM     28  C   UNL     1       9.549  11.201  20.445  0.00  0.00    +0.000 A 
ATOM     29  C   UNL     1      10.247  12.319  20.910  0.00  0.00    +0.000 A 
ATOM     30  C   UNL     1      11.031  13.057  20.025  0.00  0.00    +0.000 A 
ATOM     31  F   UNL     1      11.676  14.146  20.466  0.00  0.00    +0.000 F 
ATOM     32  C   UNL     1      11.153  12.684  18.696  0.00  0.00    +0.000 A 
ATOM     33  C   UNL     1      10.467  11.561  18.227  0.00  0.00    +0.000 A 
ENDBRANCH  25  27
ENDBRANCH  21  22
ENDBRANCH   1  21
TORSDOF 6
ENDMDL
MODEL 3
REMARK VINA RESULT:      -8.1      1.106      1.392
REMARK  Name = 
REMARK  8 active torsions:
REMARK  status: ('A' for Active; 'I' for Inactive)
REMARK    1  A    between atoms: C_1  and  C_2
REMARK    2  A    between atoms: C_2  and  N_3
REMARK    3  A    between atoms: C_2  and  C_20
REMARK    4  A    between atoms: C_9  and  N_10
REMARK    5  A    between atoms: C_15  and  C_16
REMARK    6  A    between atoms: C_16  and  C_17
REMARK    7  A    between atoms: C_16  and  O_18
REMARK    8  A    between atoms: N_23  and  C_24
REMARK                            x       y       z     vdW  Elec       q    Type
REMARK                         _______ _______ _______ _____ _____    ______ ____
ROOT
ATOM      1  N   UNL     1       1.514   6.750  18.245  0.00  0.00    +0.000 N 
ATOM      2  C   UNL     1       2.265   5.588  18.281  0.00  0.00    +0.000 A 
ATOM      3  N   UNL     1       1.575   4.456  18.442  0.00  0.00    +0.000 NA
ATOM      4  C   UNL     1       2.294   3.328  18.421  0.00  0.00    +0.000 A 
ATOM      5  F   UNL     1       1.634   2.171  18.596  0.00  0.00    +0.000 F 
ATOM      6  C   UNL     1       3.643   3.266  18.212  0.00  0.00    +0.000 A 
ATOM      7  C   UNL     1       4.256   4.472  18.030  0.00  0.00    +0.000 A 
ATOM      8  N   UNL     1       3.590   5.632  18.099  0.00  0.00    +0.000 NA
ATOM      9  H   UNL     1       0.596   6.530  18.607  0.00  0.00    +0.000 HD
ENDROOT
BRANCH   7  10
ATOM     10  N   UNL     1       5.615   4.525  17.694  0.00  0.00    +0.000 N 
ATOM     11  C   UNL     1       6.597   4.803  18.615  0.00  0.00    +0.000 C 
ATOM     12  O   UNL     1       6.467   5.102  19.791  0.00  0.00    +0.000 OA
ATOM     13  O   UNL     1       7.828   4.606  18.042  0.00  0.00    +0.000 OA
ATOM     14  C   UNL     1       7.646   4.405  16.637  0.00  0.00    +0.000 C 
ATOM     15  C   UNL     1       6.178   4.034  16.461  0.00  0.00    +0.000 C 
BRANCH  15  16
ATOM     16  C   UNL     1       5.570   4.673  15.185  0.00  0.00    +0.000 C 
ATOM     17  C   UNL     1       5.394   6.185  15.280  0.00  0.00    +0.000 C 
BRANCH  16  18
ATOM     18  O   UNL     1       6.390   4.422  14.040  0.00  0.00    +0.000 OA
ATOM     19  H   UNL     1       7.107   3.814  14.281  0.00  0.00    +0.000 HD
ENDBRANCH  16  18
ENDBRANCH  15  16
ENDBRANCH   7  10
BRANCH   1  21
ATOM     20  C   UNL     1       2.341   8.949  17.688  0.00  0.00    +0.000 C 
ATOM     21  C   UNL     1       2.141   7.930  18.827  0.00  0.00    +0.000 C 
BRANCH  21  22
ATOM     22  C   UNL     1       1.386   8.567  19.960  0.00  0.00    +0.000 A 
ATOM     23  C   UNL     1       1.359   8.171  21.312  0.00  0.00    +0.000 A 
ATOM     24  N   UNL     1       0.660   9.011  22.082  0.00  0.00    +0.000 NA
ATOM     25  N   UNL     1       0.198   9.958  21.229  0.00  0.00    +0.000 N 
ATOM     26  C   UNL     1       0.591   9.695  19.937  0.00  0.00    +0.000 A 
BRANCH  25  27
ATOM     27  C   UNL     1      -0.592  11.051  21.682  0.00  0.00    +0.000 A 
ATOM     28  C   UNL     1      -0.709  12.203  20.888  0.00  0.00    +0.000 A 
ATOM     29  C   UNL     1      -1.444  13.298  21.349  0.00  0.00    +0.000 A 
ATOM     30  C   UNL     1      -2.055  13.239  22.600  0.00  0.00    +0.000 A 
ATOM     31  F   UNL     1      -2.735  14.301  23.053  0.00  0.00    +0.000 F 
ATOM     32  C   UNL     1      -1.968  12.099  23.385  0.00  0.00    +0.000 A 
ATOM     33  C   UNL     1      -1.244  10.996  22.925  0.00  0.00    +0.000 A 
ENDBRANCH  25  27
ENDBRANCH  21  22
ENDBRANCH   1  21
TORSDOF 6
ENDMDL
MODEL 4
REMARK VINA RESULT:      -7.9      5.828      8.116
REMARK  Name = 
REMARK  8 active torsions:
REMARK  status: ('A' for Active; 'I' for Inactive)
REMARK    1  A    between atoms: C_1  and  C_2
REMARK    2  A    between atoms: C_2  and  N_3
REMARK    3  A    between atoms: C_2  and  C_20
REMARK    4  A    between atoms: C_9  and  N_10
REMARK    5  A    between atoms: C_15  and  C_16
REMARK    6  A    between atoms: C_16  and  C_17
REMARK    7  A    between atoms: C_16  and  O_18
REMARK    8  A    between atoms: N_23  and  C_24
REMARK                            x       y       z     vdW  Elec       q    Type
REMARK                         _______ _______ _______ _____ _____    ______ ____
ROOT
ATOM      1  N   UNL     1       7.738   5.139  17.703  0.00  0.00    +0.000 N 
ATOM      2  C   UNL     1       6.544   4.644  17.205  0.00  0.00    +0.000 A 
ATOM      3  N   UNL     1       6.508   4.432  15.887  0.00  0.00    +0.000 NA
ATOM      4  C   UNL     1       5.375   3.902  15.413  0.00  0.00    +0.000 A 
ATOM      5  F   UNL     1       5.297   3.689  14.089  0.00  0.00    +0.000 F 
ATOM      6  C   UNL     1       4.302   3.540  16.179  0.00  0.00    +0.000 A 
ATOM      7  C   UNL     1       4.444   3.770  17.518  0.00  0.00    +0.000 A 
ATOM      8  N   UNL     1       5.535   4.351  18.034  0.00  0.00    +0.000 NA
ATOM      9  H   UNL     1       8.274   5.485  16.918  0.00  0.00    +0.000 HD
ENDROOT
BRANCH   7  10
ATOM     10  N   UNL     1       3.458   3.335  18.413  0.00  0.00    +0.000 N 
ATOM     11  C   UNL     1       3.283   2.011  18.737  0.00  0.00    +0.000 C 
ATOM     12  O   UNL     1       3.863   1.038  18.283  0.00  0.00    +0.000 OA
ATOM     13  O   UNL     1       2.379   1.909  19.764  0.00  0.00    +0.000 OA
ATOM     14  C   UNL     1       1.781   3.193  19.969  0.00  0.00    +0.000 C 
ATOM     15  C   UNL     1       2.717   4.194  19.302  0.00  0.00    +0.000 C 
BRANCH  15  16
ATOM     16  C   UNL     1       1.936   5.327  18.587  0.00  0.00    +0.000 C 
ATOM     17  C   UNL     1       2.805   6.517  18.190  0.00  0.00    +0.000 C 
BRANCH  16  18
ATOM     18  O   UNL     1       1.315   4.849  17.390  0.00  0.00    +0.000 OA
ATOM     19  H   UNL     1       1.305   3.880  17.393  0.00  0.00    +0.000 HD
ENDBRANCH  16  18
ENDBRANCH  15  16
ENDBRANCH   7  10
BRANCH   1  21
ATOM     20  C   UNL     1       8.491   5.490  19.969  0.00  0.00    +0.000 C 
ATOM     21  C   UNL     1       7.625   6.058  18.828  0.00  0.00    +0.000 C 
BRANCH  21  22
ATOM     22  C   UNL     1       8.022   7.479  18.540  0.00  0.00    +0.000 A 
ATOM     23  C   UNL     1       7.554   8.315  17.506  0.00  0.00    +0.000 A 
ATOM     24  N   UNL     1       8.040   9.557  17.587  0.00  0.00    +0.000 NA
ATOM     25  N   UNL     1       8.857   9.538  18.669  0.00  0.00    +0.000 N 
ATOM     26  C   UNL     1       8.892   8.287  19.242  0.00  0.00    +0.000 A 
BRANCH  25  27
ATOM     27  C   UNL     1       9.562  10.699  19.095  0.00  0.00    +0.000 A 
ATOM     28  C   UNL     1       9.603  11.028  20.459  0.00  0.00    +0.000 A 
ATOM     29  C   UNL     1      10.252  12.193  20.877  0.00  0.00    +0.000 A 
ATOM     30  C   UNL     1      10.852  13.023  19.933  0.00  0.00    +0.000 A 
ATOM     31  F   UNL     1      11.449  14.154  20.333  0.00  0.00    +0.000 F 
ATOM     32  C   UNL     1      10.840  12.698  18.585  0.00  0.00    +0.000 A 
ATOM     33  C   UNL     1      10.203  11.530  18.161  0.00  0.00    +0.000 A 
ENDBRANCH  25  27
ENDBRANCH  21  22
ENDBRANCH   1  21
TORSDOF 6
ENDMDL
MODEL 5
REMARK VINA RESULT:      -7.8      5.351      8.257
REMARK  Name = 
REMARK  8 active torsions:
REMARK  status: ('A' for Active; 'I' for Inactive)
REMARK    1  A    between atoms: C_1  and  C_2
REMARK    2  A    between atoms: C_2  and  N_3
REMARK    3  A    between atoms: C_2  and  C_20
REMARK    4  A    between atoms: C_9  and  N_10
REMARK    5  A    between atoms: C_15  and  C_16
REMARK    6  A    between atoms: C_16  and  C_17
REMARK    7  A    between atoms: C_16  and  O_18
REMARK    8  A    between atoms: N_23  and  C_24
REMARK                            x       y       z     vdW  Elec       q    Type
REMARK                         _______ _______ _______ _____ _____    ______ ____
ROOT
ATOM      1  N   UNL     1       7.691   5.335  17.544  0.00  0.00    +0.000 N 
ATOM      2  C   UNL     1       6.458   4.852  17.139  0.00  0.00    +0.000 A 
ATOM      3  N   UNL     1       6.299   4.694  15.823  0.00  0.00    +0.000 NA
ATOM      4  C   UNL     1       5.128   4.175  15.436  0.00  0.00    +0.000 A 
ATOM      5  F   UNL     1       4.928   4.016  14.118  0.00  0.00    +0.000 F 
ATOM      6  C   UNL     1       4.133   3.775  16.284  0.00  0.00    +0.000 A 
ATOM      7  C   UNL     1       4.399   3.952  17.611  0.00  0.00    +0.000 A 
ATOM      8  N   UNL     1       5.532   4.519  18.046  0.00  0.00    +0.000 NA
ATOM      9  H   UNL     1       8.150   5.717  16.727  0.00  0.00    +0.000 HD
ENDROOT
BRANCH   7  10
ATOM     10  N   UNL     1       3.503   3.474  18.577  0.00  0.00    +0.000 N 
ATOM     11  C   UNL     1       3.161   2.147  18.679  0.00  0.00    +0.000 C 
ATOM     12  O   UNL     1       3.496   1.221  17.956  0.00  0.00    +0.000 OA
ATOM     13  O   UNL     1       2.420   1.953  19.817  0.00  0.00    +0.000 OA
ATOM     14  C   UNL     1       2.082   3.233  20.359  0.00  0.00    +0.000 C 
ATOM     15  C   UNL     1       3.059   4.219  19.728  0.00  0.00    +0.000 C 
BRANCH  15  16
ATOM     16  C   UNL     1       2.377   5.570  19.387  0.00  0.00    +0.000 C 
ATOM     17  C   UNL     1       1.589   6.170  20.547  0.00  0.00    +0.000 C 
BRANCH  16  18
ATOM     18  O   UNL     1       3.340   6.549  18.988  0.00  0.00    +0.000 OA
ATOM     19  H   UNL     1       3.573   7.105  19.749  0.00  0.00    +0.000 HD
ENDBRANCH  16  18
ENDBRANCH  15  16
ENDBRANCH   7  10
BRANCH   1  21
ATOM     20  C   UNL     1       8.642   5.593  19.747  0.00  0.00    +0.000 C 
ATOM     21  C   UNL     1       7.681   6.207  18.711  0.00  0.00    +0.000 C 
BRANCH  21  22
ATOM     22  C   UNL     1       8.056   7.639  18.448  0.00  0.00    +0.000 A 
ATOM     23  C   UNL     1       7.566   8.489  17.437  0.00  0.00    +0.000 A 
ATOM     24  N   UNL     1       8.037   9.736  17.538  0.00  0.00    +0.000 NA
ATOM     25  N   UNL     1       8.866   9.706  18.610  0.00  0.00    +0.000 N 
ATOM     26  C   UNL     1       8.924   8.444  19.157  0.00  0.00    +0.000 A 
BRANCH  25  27
ATOM     27  C   UNL     1       9.561  10.867  19.051  0.00  0.00    +0.000 A 
ATOM     28  C   UNL     1      10.150  11.726  18.110  0.00  0.00    +0.000 A 
ATOM     29  C   UNL     1      10.874  12.841  18.539  0.00  0.00    +0.000 A 
ATOM     30  C   UNL     1      11.009  13.091  19.904  0.00  0.00    +0.000 A 
ATOM     31  F   UNL     1      11.728  14.145  20.314  0.00  0.00    +0.000 F 
ATOM     32  C   UNL     1      10.412  12.265  20.843  0.00  0.00    +0.000 A 
ATOM     33  C   UNL     1       9.677  11.154  20.421  0.00  0.00    +0.000 A 
ENDBRANCH  25  27
ENDBRANCH  21  22
ENDBRANCH   1  21
TORSDOF 6
ENDMDL
MODEL 6
REMARK VINA RESULT:      -7.7      0.946      1.281
REMARK  Name = 
REMARK  8 active torsions:
REMARK  status: ('A' for Active; 'I' for Inactive)
REMARK    1  A    between atoms: C_1  and  C_2
REMARK    2  A    between atoms: C_2  and  N_3
REMARK    3  A    between atoms: C_2  and  C_20
REMARK    4  A    between atoms: C_9  and  N_10
REMARK    5  A    between atoms: C_15  and  C_16
REMARK    6  A    between atoms: C_16  and  C_17
REMARK    7  A    between atoms: C_16  and  O_18
REMARK    8  A    between atoms: N_23  and  C_24
REMARK                            x       y       z     vdW  Elec       q    Type
REMARK                         _______ _______ _______ _____ _____    ______ ____
ROOT
ATOM      1  N   UNL     1       1.623   6.788  18.942  0.00  0.00    +0.000 N 
ATOM      2  C   UNL     1       2.498   5.744  19.188  0.00  0.00    +0.000 A 
ATOM      3  N   UNL     1       1.991   4.706  19.859  0.00  0.00    +0.000 NA
ATOM      4  C   UNL     1       2.820   3.674  20.049  0.00  0.00    +0.000 A 
ATOM      5  F   UNL     1       2.348   2.619  20.733  0.00  0.00    +0.000 F 
ATOM      6  C   UNL     1       4.101   3.605  19.578  0.00  0.00    +0.000 A 
ATOM      7  C   UNL     1       4.521   4.702  18.881  0.00  0.00    +0.000 A 
ATOM      8  N   UNL     1       3.749   5.783  18.713  0.00  0.00    +0.000 NA
ATOM      9  H   UNL     1       0.824   6.664  19.551  0.00  0.00    +0.000 HD
ENDROOT
BRANCH   7  10
ATOM     10  N   UNL     1       5.773   4.698  18.253  0.00  0.00    +0.000 N 
ATOM     11  C   UNL     1       6.937   5.007  18.916  0.00  0.00    +0.000 C 
ATOM     12  O   UNL     1       7.073   5.384  20.070  0.00  0.00    +0.000 OA
ATOM     13  O   UNL     1       8.009   4.742  18.103  0.00  0.00    +0.000 OA
ATOM     14  C   UNL     1       7.521   4.458  16.789  0.00  0.00    +0.000 C 
ATOM     15  C   UNL     1       6.046   4.115  16.963  0.00  0.00    +0.000 C 
BRANCH  15  16
ATOM     16  C   UNL     1       5.180   4.688  15.811  0.00  0.00    +0.000 C 
ATOM     17  C   UNL     1       5.326   6.195  15.623  0.00  0.00    +0.000 C 
BRANCH  16  18
ATOM     18  O   UNL     1       5.516   4.080  14.560  0.00  0.00    +0.000 OA
ATOM     19  H   UNL     1       6.460   4.211  14.378  0.00  0.00    +0.000 HD
ENDBRANCH  16  18
ENDBRANCH  15  16
ENDBRANCH   7  10
BRANCH   1  21
ATOM     20  C   UNL     1       2.898   8.329  17.592  0.00  0.00    +0.000 C 
ATOM     21  C   UNL     1       2.207   8.123  18.953  0.00  0.00    +0.000 C 
BRANCH  21  22
ATOM     22  C   UNL     1       1.241   9.245  19.214  0.00  0.00    +0.000 A 
ATOM     23  C   UNL     1       0.647  10.111  18.275  0.00  0.00    +0.000 A 
ATOM     24  N   UNL     1      -0.242  10.941  18.827  0.00  0.00    +0.000 NA
ATOM     25  N   UNL     1      -0.219  10.641  20.149  0.00  0.00    +0.000 N 
ATOM     26  C   UNL     1       0.692   9.645  20.416  0.00  0.00    +0.000 A 
BRANCH  25  27
ATOM     27  C   UNL     1      -1.055  11.315  21.084  0.00  0.00    +0.000 A 
ATOM     28  C   UNL     1      -0.962  11.006  22.450  0.00  0.00    +0.000 A 
ATOM     29  C   UNL     1      -1.813  11.630  23.367  0.00  0.00    +0.000 A 
ATOM     30  C   UNL     1      -2.752  12.554  22.914  0.00  0.00    +0.000 A 
ATOM     31  F   UNL     1      -3.586  13.130  23.792  0.00  0.00    +0.000 F 
ATOM     32  C   UNL     1      -2.838  12.887  21.572  0.00  0.00    +0.000 A 
ATOM     33  C   UNL     1      -1.983  12.276  20.651  0.00  0.00    +0.000 A 
ENDBRANCH  25  27
ENDBRANCH  21  22
ENDBRANCH   1  21
TORSDOF 6
ENDMDL
MODEL 7
REMARK VINA RESULT:      -7.6      4.520      9.556
REMARK  Name = 
REMARK  8 active torsions:
REMARK  status: ('A' for Active; 'I' for Inactive)
REMARK    1  A    between atoms: C_1  and  C_2
REMARK    2  A    between atoms: C_2  and  N_3
REMARK    3  A    between atoms: C_2  and  C_20
REMARK    4  A    between atoms: C_9  and  N_10
REMARK    5  A    between atoms: C_15  and  C_16
REMARK    6  A    between atoms: C_16  and  C_17
REMARK    7  A    between atoms: C_16  and  O_18
REMARK    8  A    between atoms: N_23  and  C_24
REMARK                            x       y       z     vdW  Elec       q    Type
REMARK                         _______ _______ _______ _____ _____    ______ ____
ROOT
ATOM      1  N   UNL     1      -0.144   9.411  20.204  0.00  0.00    +0.000 N 
ATOM      2  C   UNL     1      -0.341  10.627  19.571  0.00  0.00    +0.000 A 
ATOM      3  N   UNL     1      -1.359  10.674  18.707  0.00  0.00    +0.000 NA
ATOM      4  C   UNL     1      -1.583  11.863  18.137  0.00  0.00    +0.000 A 
ATOM      5  F   UNL     1      -2.589  11.943  17.251  0.00  0.00    +0.000 F 
ATOM      6  C   UNL     1      -0.881  13.004  18.407  0.00  0.00    +0.000 A 
ATOM      7  C   UNL     1       0.122  12.862  19.323  0.00  0.00    +0.000 A 
ATOM      8  N   UNL     1       0.423  11.682  19.879  0.00  0.00    +0.000 NA
ATOM      9  H   UNL     1      -0.666   8.713  19.690  0.00  0.00    +0.000 HD
ENDROOT
BRANCH   7  10
ATOM     10  N   UNL     1       0.834  13.985  19.765  0.00  0.00    +0.000 N 
ATOM     11  C   UNL     1       0.332  14.863  20.696  0.00  0.00    +0.000 C 
ATOM     12  O   UNL     1      -0.772  14.864  21.217  0.00  0.00    +0.000 OA
ATOM     13  O   UNL     1       1.313  15.748  21.063  0.00  0.00    +0.000 OA
ATOM     14  C   UNL     1       2.427  15.579  20.182  0.00  0.00    +0.000 C 
ATOM     15  C   UNL     1       2.239  14.210  19.537  0.00  0.00    +0.000 C 
BRANCH  15  16
ATOM     16  C   UNL     1       2.649  14.215  18.041  0.00  0.00    +0.000 C 
ATOM     17  C   UNL     1       3.637  15.319  17.679  0.00  0.00    +0.000 C 
BRANCH  16  18
ATOM     18  O   UNL     1       3.256  12.975  17.668  0.00  0.00    +0.000 OA
ATOM     19  H   UNL     1       3.131  12.824  16.718  0.00  0.00    +0.000 HD
ENDBRANCH  16  18
ENDBRANCH  15  16
ENDBRANCH   7  10
BRANCH   1  21
ATOM     20  C   UNL     1       1.307   8.645  21.974  0.00  0.00    +0.000 C 
ATOM     21  C   UNL     1       1.241   9.061  20.492  0.00  0.00    +0.000 C 
BRANCH  21  22
ATOM     22  C   UNL     1       1.822   7.977  19.627  0.00  0.00    +0.000 A 
ATOM     23  C   UNL     1       2.462   8.116  18.380  0.00  0.00    +0.000 A 
ATOM     24  N   UNL     1       2.950   6.961  17.918  0.00  0.00    +0.000 NA
ATOM     25  N   UNL     1       2.608   6.043  18.855  0.00  0.00    +0.000 N 
ATOM     26  C   UNL     1       1.897   6.622  19.880  0.00  0.00    +0.000 A 
BRANCH  25  27
ATOM     27  C   UNL     1       2.968   4.672  18.725  0.00  0.00    +0.000 A 
ATOM     28  C   UNL     1       2.301   3.863  17.791  0.00  0.00    +0.000 A 
ATOM     29  C   UNL     1       2.617   2.505  17.693  0.00  0.00    +0.000 A 
ATOM     30  C   UNL     1       3.591   1.963  18.529  0.00  0.00    +0.000 A 
ATOM     31  F   UNL     1       3.871   0.654  18.453  0.00  0.00    +0.000 F 
ATOM     32  C   UNL     1       4.273   2.755  19.439  0.00  0.00    +0.000 A 
ATOM     33  C   UNL     1       3.972   4.115  19.535  0.00  0.00    +0.000 A 
ENDBRANCH  25  27
ENDBRANCH  21  22
ENDBRANCH   1  21
TORSDOF 6
ENDMDL
MODEL 8
REMARK VINA RESULT:      -7.6      4.671      9.482
REMARK  Name = 
REMARK  8 active torsions:
REMARK  status: ('A' for Active; 'I' for Inactive)
REMARK    1  A    between atoms: C_1  and  C_2
REMARK    2  A    between atoms: C_2  and  N_3
REMARK    3  A    between atoms: C_2  and  C_20
REMARK    4  A    between atoms: C_9  and  N_10
REMARK    5  A    between atoms: C_15  and  C_16
REMARK    6  A    between atoms: C_16  and  C_17
REMARK    7  A    between atoms: C_16  and  O_18
REMARK    8  A    between atoms: N_23  and  C_24
REMARK                            x       y       z     vdW  Elec       q    Type
REMARK                         _______ _______ _______ _____ _____    ______ ____
ROOT
ATOM      1  N   UNL     1      -0.331   9.429  20.340  0.00  0.00    +0.000 N 
ATOM      2  C   UNL     1      -0.479  10.576  19.579  0.00  0.00    +0.000 A 
ATOM      3  N   UNL     1      -1.377  10.507  18.593  0.00  0.00    +0.000 NA
ATOM      4  C   UNL     1      -1.560  11.632  17.892  0.00  0.00    +0.000 A 
ATOM      5  F   UNL     1      -2.445  11.595  16.883  0.00  0.00    +0.000 F 
ATOM      6  C   UNL     1      -0.931  12.819  18.144  0.00  0.00    +0.000 A 
ATOM      7  C   UNL     1      -0.052  12.798  19.188  0.00  0.00    +0.000 A 
ATOM      8  N   UNL     1       0.209  11.683  19.883  0.00  0.00    +0.000 NA
ATOM      9  H   UNL     1      -0.761   8.668  19.830  0.00  0.00    +0.000 HD
ENDROOT
BRANCH   7  10
ATOM     10  N   UNL     1       0.564  13.983  19.612  0.00  0.00    +0.000 N 
ATOM     11  C   UNL     1      -0.064  14.897  20.423  0.00  0.00    +0.000 C 
ATOM     12  O   UNL     1      -1.214  14.880  20.834  0.00  0.00    +0.000 OA
ATOM     13  O   UNL     1       0.838  15.853  20.817  0.00  0.00    +0.000 OA
ATOM     14  C   UNL     1       2.040  15.678  20.061  0.00  0.00    +0.000 C 
ATOM     15  C   UNL     1       1.975  14.260  19.505  0.00  0.00    +0.000 C 
BRANCH  15  16
ATOM     16  C   UNL     1       2.531  14.181  18.059  0.00  0.00    +0.000 C 
ATOM     17  C   UNL     1       3.536  15.280  17.726  0.00  0.00    +0.000 C 
BRANCH  16  18
ATOM     18  O   UNL     1       3.189  12.933  17.826  0.00  0.00    +0.000 OA
ATOM     19  H   UNL     1       2.543  12.275  17.525  0.00  0.00    +0.000 HD
ENDBRANCH  16  18
ENDBRANCH  15  16
ENDBRANCH   7  10
BRANCH   1  21
ATOM     20  C   UNL     1       0.937   9.107  22.369  0.00  0.00    +0.000 C 
ATOM     21  C   UNL     1       1.015   9.160  20.831  0.00  0.00    +0.000 C 
BRANCH  21  22
ATOM     22  C   UNL     1       1.653   7.905  20.305  0.00  0.00    +0.000 A 
ATOM     23  C   UNL     1       1.490   6.588  20.779  0.00  0.00    +0.000 A 
ATOM     24  N   UNL     1       2.127   5.686  20.026  0.00  0.00    +0.000 NA
ATOM     25  N   UNL     1       2.738   6.413  19.059  0.00  0.00    +0.000 N 
ATOM     26  C   UNL     1       2.498   7.758  19.223  0.00  0.00    +0.000 A 
BRANCH  25  27
ATOM     27  C   UNL     1       3.518   5.797  18.040  0.00  0.00    +0.000 A 
ATOM     28  C   UNL     1       4.360   6.582  17.236  0.00  0.00    +0.000 A 
ATOM     29  C   UNL     1       5.091   5.990  16.203  0.00  0.00    +0.000 A 
ATOM     30  C   UNL     1       4.974   4.620  15.976  0.00  0.00    +0.000 A 
ATOM     31  F   UNL     1       5.654   4.059  14.966  0.00  0.00    +0.000 F 
ATOM     32  C   UNL     1       4.166   3.829  16.776  0.00  0.00    +0.000 A 
ATOM     33  C   UNL     1       3.440   4.412  17.818  0.00  0.00    +0.000 A 
ENDBRANCH  25  27
ENDBRANCH  21  22
ENDBRANCH   1  21
TORSDOF 6
ENDMDL
MODEL 9
REMARK VINA RESULT:      -7.5      4.564      9.642
REMARK  Name = 
REMARK  8 active torsions:
REMARK  status: ('A' for Active; 'I' for Inactive)
REMARK    1  A    between atoms: C_1  and  C_2
REMARK    2  A    between atoms: C_2  and  N_3
REMARK    3  A    between atoms: C_2  and  C_20
REMARK    4  A    between atoms: C_9  and  N_10
REMARK    5  A    between atoms: C_15  and  C_16
REMARK    6  A    between atoms: C_16  and  C_17
REMARK    7  A    between atoms: C_16  and  O_18
REMARK    8  A    between atoms: N_23  and  C_24
REMARK                            x       y       z     vdW  Elec       q    Type
REMARK                         _______ _______ _______ _____ _____    ______ ____
ROOT
ATOM      1  N   UNL     1      -0.365   9.381  20.465  0.00  0.00    +0.000 N 
ATOM      2  C   UNL     1      -0.587  10.370  19.523  0.00  0.00    +0.000 A 
ATOM      3  N   UNL     1      -1.585  10.142  18.665  0.00  0.00    +0.000 NA
ATOM      4  C   UNL     1      -1.836  11.123  17.790  0.00  0.00    +0.000 A 
ATOM      5  F   UNL     1      -2.823  10.921  16.901  0.00  0.00    +0.000 F 
ATOM      6  C   UNL     1      -1.179  12.320  17.750  0.00  0.00    +0.000 A 
ATOM      7  C   UNL     1      -0.195  12.472  18.684  0.00  0.00    +0.000 A 
ATOM      8  N   UNL     1       0.133  11.498  19.544  0.00  0.00    +0.000 NA
ATOM      9  H   UNL     1      -0.850   8.549  20.152  0.00  0.00    +0.000 HD
ENDROOT
BRANCH   7  10
ATOM     10  N   UNL     1       0.468  13.699  18.814  0.00  0.00    +0.000 N 
ATOM     11  C   UNL     1       1.786  13.871  18.465  0.00  0.00    +0.000 C 
ATOM     12  O   UNL     1       2.581  13.031  18.074  0.00  0.00    +0.000 OA
ATOM     13  O   UNL     1       2.104  15.204  18.526  0.00  0.00    +0.000 OA
ATOM     14  C   UNL     1       1.018  15.899  19.147  0.00  0.00    +0.000 C 
ATOM     15  C   UNL     1      -0.182  14.965  19.043  0.00  0.00    +0.000 C 
BRANCH  15  16
ATOM     16  C   UNL     1      -1.058  15.007  20.323  0.00  0.00    +0.000 C 
ATOM     17  C   UNL     1      -0.435  15.799  21.468  0.00  0.00    +0.000 C 
BRANCH  16  18
ATOM     18  O   UNL     1      -2.334  15.597  20.056  0.00  0.00    +0.000 OA
ATOM     19  H   UNL     1      -2.318  16.534  20.309  0.00  0.00    +0.000 HD
ENDBRANCH  16  18
ENDBRANCH  15  16
ENDBRANCH   7  10
BRANCH   1  21
ATOM     20  C   UNL     1       1.067   9.164  22.396  0.00  0.00    +0.000 C 
ATOM     21  C   UNL     1       1.024   9.175  20.856  0.00  0.00    +0.000 C 
BRANCH  21  22
ATOM     22  C   UNL     1       1.667   7.929  20.315  0.00  0.00    +0.000 A 
ATOM     23  C   UNL     1       1.558   6.615  20.810  0.00  0.00    +0.000 A 
ATOM     24  N   UNL     1       2.180   5.718  20.039  0.00  0.00    +0.000 NA
ATOM     25  N   UNL     1       2.729   6.448  19.037  0.00  0.00    +0.000 N 
ATOM     26  C   UNL     1       2.465   7.789  19.197  0.00  0.00    +0.000 A 
BRANCH  25  27
ATOM     27  C   UNL     1       3.476   5.838  17.990  0.00  0.00    +0.000 A 
ATOM     28  C   UNL     1       3.364   4.457  17.768  0.00  0.00    +0.000 A 
ATOM     29  C   UNL     1       4.131   3.844  16.773  0.00  0.00    +0.000 A 
ATOM     30  C   UNL     1       5.007   4.613  16.010  0.00  0.00    +0.000 A 
ATOM     31  F   UNL     1       5.764   4.019  15.076  0.00  0.00    +0.000 F 
ATOM     32  C   UNL     1       5.111   5.982  16.202  0.00  0.00    +0.000 A 
ATOM     33  C   UNL     1       4.338   6.602  17.186  0.00  0.00    +0.000 A 
ENDBRANCH  25  27
ENDBRANCH  21  22
ENDBRANCH   1  21
TORSDOF 6
ENDMDL
