MODEL 1
REMARK VINA RESULT:      -6.6      0.000      0.000
REMARK  Name = 
REMARK  8 active torsions:
REMARK  status: ('A' for Active; 'I' for Inactive)
REMARK    1  A    between atoms: C_1  and  N_2
REMARK    2  A    between atoms: C_11  and  N_12
REMARK    3  A    between atoms: N_12  and  C_13
REMARK    4  A    between atoms: C_13  and  C_14
REMARK    5  A    between atoms: C_14  and  N_15
REMARK    6  A    between atoms: N_15  and  C_16
REMARK    7  A    between atoms: C_16  and  C_17
REMARK    8  A    between atoms: C_17  and  O_18
REMARK                            x       y       z     vdW  Elec       q    Type
REMARK                         _______ _______ _______ _____ _____    ______ ____
ROOT
ATOM      1  C   UNL     1       2.554   9.253  17.884  0.00  0.00    +0.000 C 
ATOM      2  N   UNL     1       2.530   7.934  18.460  0.00  0.00    +0.000 N 
ATOM      3  N   UNL     1       1.913   7.719  19.633  0.00  0.00    +0.000 NA
ATOM      4  C   UNL     1       2.109   6.411  19.827  0.00  0.00    +0.000 A 
ATOM      5  C   UNL     1       1.681   5.614  20.899  0.00  0.00    +0.000 A 
ATOM      6  C   UNL     1       2.049   4.263  20.787  0.00  0.00    +0.000 A 
ATOM      7  C   UNL     1       2.776   3.701  19.722  0.00  0.00    +0.000 A 
ATOM      8  N   UNL     1       3.006   2.391  19.791  0.00  0.00    +0.000 NA
ATOM      9  C   UNL     1       3.680   1.801  18.779  0.00  0.00    +0.000 A 
ATOM     10  C   UNL     1       4.149   2.468  17.663  0.00  0.00    +0.000 A 
ATOM     11  C   UNL     1       3.942   3.841  17.552  0.00  0.00    +0.000 A 
ATOM     12  C   UNL     1       3.233   4.484  18.611  0.00  0.00    +0.000 A 
ATOM     13  C   UNL     1       2.879   5.869  18.693  0.00  0.00    +0.000 A 
ATOM     14  N   UNL     1       3.117   6.898  17.846  0.00  0.00    +0.000 NA
ENDROOT
BRANCH  11  15
ATOM     15  N   UNL     1       4.447   4.545  16.458  0.00  0.00    +0.000 N 
ATOM     16  H   UNL     1       3.738   4.860  15.787  0.00  0.00    +0.000 HD
BRANCH  15  17
ATOM     17  C   UNL     1       5.712   4.126  15.849  0.00  0.00    +0.000 C 
BRANCH  17  18
ATOM     18  C   UNL     1       6.909   4.452  16.771  0.00  0.00    +0.000 C 
BRANCH  18  19
ATOM     19  N   UNL     1       7.234   5.886  16.780  0.00  0.00    +0.000 NA
ATOM     20  H   UNL     1       6.420   6.409  16.452  0.00  0.00    +0.000 HD
BRANCH  19  21
ATOM     21  C   UNL     1       7.613   6.375  18.116  0.00  0.00    +0.000 C 
BRANCH  21  22
ATOM     22  C   UNL     1       6.959   5.577  19.251  0.00  0.00    +0.000 C 
BRANCH  22  23
ATOM     23  O   UNL     1       7.843   5.500  20.369  0.00  0.00    +0.000 OA
ATOM     24  H   UNL     1       8.192   4.584  20.352  0.00  0.00    +0.000 HD
ENDBRANCH  22  23
ENDBRANCH  21  22
ENDBRANCH  19  21
ENDBRANCH  18  19
ENDBRANCH  17  18
ENDBRANCH  15  17
ENDBRANCH  11  15
TORSDOF 7
ENDMDL
MODEL 2
REMARK VINA RESULT:      -6.4      2.450      5.018
REMARK  Name = 
REMARK  8 active torsions:
REMARK  status: ('A' for Active; 'I' for Inactive)
REMARK    1  A    between atoms: C_1  and  N_2
REMARK    2  A    between atoms: C_11  and  N_12
REMARK    3  A    between atoms: N_12  and  C_13
REMARK    4  A    between atoms: C_13  and  C_14
REMARK    5  A    between atoms: C_14  and  N_15
REMARK    6  A    between atoms: N_15  and  C_16
REMARK    7  A    between atoms: C_16  and  C_17
REMARK    8  A    between atoms: C_17  and  O_18
REMARK                            x       y       z     vdW  Elec       q    Type
REMARK                         _______ _______ _______ _____ _____    ______ ____
ROOT
ATOM      1  C   UNL     1      -0.527   9.278  22.614  0.00  0.00    +0.000 C 
ATOM      2  N   UNL     1       0.258   9.016  21.436  0.00  0.00    +0.000 N 
ATOM      3  N   UNL     1       0.272   9.896  20.423  0.00  0.00    +0.000 NA
ATOM      4  C   UNL     1       1.087   9.309  19.541  0.00  0.00    +0.000 A 
ATOM      5  C   UNL     1       1.487   9.773  18.279  0.00  0.00    +0.000 A 
ATOM      6  C   UNL     1       2.367   8.909  17.608  0.00  0.00    +0.000 A 
ATOM      7  C   UNL     1       2.844   7.682  18.104  0.00  0.00    +0.000 A 
ATOM      8  N   UNL     1       3.693   7.018  17.321  0.00  0.00    +0.000 NA
ATOM      9  C   UNL     1       4.197   5.846  17.766  0.00  0.00    +0.000 A 
ATOM     10  C   UNL     1       3.893   5.283  18.991  0.00  0.00    +0.000 A 
ATOM     11  C   UNL     1       3.001   5.935  19.839  0.00  0.00    +0.000 A 
ATOM     12  C   UNL     1       2.456   7.174  19.388  0.00  0.00    +0.000 A 
ATOM     13  C   UNL     1       1.554   8.028  20.100  0.00  0.00    +0.000 A 
ATOM     14  N   UNL     1       0.987   7.897  21.323  0.00  0.00    +0.000 NA
ENDROOT
BRANCH  11  15
ATOM     15  N   UNL     1       2.642   5.363  21.061  0.00  0.00    +0.000 N 
ATOM     16  H   UNL     1       3.274   5.582  21.838  0.00  0.00    +0.000 HD
BRANCH  15  17
ATOM     17  C   UNL     1       2.093   4.005  21.091  0.00  0.00    +0.000 C 
BRANCH  17  18
ATOM     18  C   UNL     1       0.772   3.920  20.294  0.00  0.00    +0.000 C 
BRANCH  18  19
ATOM     19  N   UNL     1       0.780   2.824  19.313  0.00  0.00    +0.000 NA
ATOM     20  H   UNL     1       0.587   3.210  18.388  0.00  0.00    +0.000 HD
BRANCH  19  21
ATOM     21  C   UNL     1       2.062   2.102  19.275  0.00  0.00    +0.000 C 
BRANCH  21  22
ATOM     22  C   UNL     1       2.696   2.087  17.879  0.00  0.00    +0.000 C 
BRANCH  22  23
ATOM     23  O   UNL     1       4.098   1.840  17.979  0.00  0.00    +0.000 OA
ATOM     24  H   UNL     1       4.243   1.584  18.914  0.00  0.00    +0.000 HD
ENDBRANCH  22  23
ENDBRANCH  21  22
ENDBRANCH  19  21
ENDBRANCH  18  19
ENDBRANCH  17  18
ENDBRANCH  15  17
ENDBRANCH  11  15
TORSDOF 7
ENDMDL
MODEL 3
REMARK VINA RESULT:      -6.3      2.726      5.633
REMARK  Name = 
REMARK  8 active torsions:
REMARK  status: ('A' for Active; 'I' for Inactive)
REMARK    1  A    between atoms: C_1  and  N_2
REMARK    2  A    between atoms: C_11  and  N_12
REMARK    3  A    between atoms: N_12  and  C_13
REMARK    4  A    between atoms: C_13  and  C_14
REMARK    5  A    between atoms: C_14  and  N_15
REMARK    6  A    between atoms: N_15  and  C_16
REMARK    7  A    between atoms: C_16  and  C_17
REMARK    8  A    between atoms: C_17  and  O_18
REMARK                            x       y       z     vdW  Elec       q    Type
REMARK                         _______ _______ _______ _____ _____    ______ ____
ROOT
ATOM      1  C   UNL     1       7.895   8.744  17.595  0.00  0.00    +0.000 C 
ATOM      2  N   UNL     1       7.124   7.555  17.340  0.00  0.00    +0.000 N 
ATOM      3  N   UNL     1       7.679   6.512  16.702  0.00  0.00    +0.000 NA
ATOM      4  C   UNL     1       6.673   5.634  16.656  0.00  0.00    +0.000 A 
ATOM      5  C   UNL     1       6.666   4.344  16.104  0.00  0.00    +0.000 A 
ATOM      6  C   UNL     1       5.438   3.675  16.234  0.00  0.00    +0.000 A 
ATOM      7  C   UNL     1       4.287   4.196  16.854  0.00  0.00    +0.000 A 
ATOM      8  N   UNL     1       3.225   3.393  16.895  0.00  0.00    +0.000 NA
ATOM      9  C   UNL     1       2.104   3.840  17.502  0.00  0.00    +0.000 A 
ATOM     10  C   UNL     1       1.981   5.084  18.093  0.00  0.00    +0.000 A 
ATOM     11  C   UNL     1       3.062   5.962  18.064  0.00  0.00    +0.000 A 
ATOM     12  C   UNL     1       4.255   5.510  17.427  0.00  0.00    +0.000 A 
ATOM     13  C   UNL     1       5.491   6.224  17.308  0.00  0.00    +0.000 A 
ATOM     14  N   UNL     1       5.846   7.461  17.730  0.00  0.00    +0.000 NA
ENDROOT
BRANCH  11  15
ATOM     15  N   UNL     1       2.947   7.241  18.611  0.00  0.00    +0.000 N 
ATOM     16  H   UNL     1       2.721   7.260  19.611  0.00  0.00    +0.000 HD
BRANCH  15  17
ATOM     17  C   UNL     1       2.319   8.310  17.830  0.00  0.00    +0.000 C 
BRANCH  17  18
ATOM     18  C   UNL     1       1.408   9.187  18.717  0.00  0.00    +0.000 C 
BRANCH  18  19
ATOM     19  N   UNL     1       1.160  10.512  18.128  0.00  0.00    +0.000 NA
ATOM     20  H   UNL     1       0.208  10.534  17.759  0.00  0.00    +0.000 HD
BRANCH  19  21
ATOM     21  C   UNL     1       1.325  11.606  19.098  0.00  0.00    +0.000 C 
BRANCH  21  22
ATOM     22  C   UNL     1       2.217  12.738  18.572  0.00  0.00    +0.000 C 
BRANCH  22  23
ATOM     23  O   UNL     1       2.575  12.491  17.213  0.00  0.00    +0.000 OA
ATOM     24  H   UNL     1       3.228  13.189  16.993  0.00  0.00    +0.000 HD
ENDBRANCH  22  23
ENDBRANCH  21  22
ENDBRANCH  19  21
ENDBRANCH  18  19
ENDBRANCH  17  18
ENDBRANCH  15  17
ENDBRANCH  11  15
TORSDOF 7
ENDMDL
MODEL 4
REMARK VINA RESULT:      -6.2      2.721      4.749
REMARK  Name = 
REMARK  8 active torsions:
REMARK  status: ('A' for Active; 'I' for Inactive)
REMARK    1  A    between atoms: C_1  and  N_2
REMARK    2  A    between atoms: C_11  and  N_12
REMARK    3  A    between atoms: N_12  and  C_13
REMARK    4  A    between atoms: C_13  and  C_14
REMARK    5  A    between atoms: C_14  and  N_15
REMARK    6  A    between atoms: N_15  and  C_16
REMARK    7  A    between atoms: C_16  and  C_17
REMARK    8  A    between atoms: C_17  and  O_18
REMARK                            x       y       z     vdW  Elec       q    Type
REMARK                         _______ _______ _______ _____ _____    ______ ____
ROOT
ATOM      1  C   UNL     1       5.250   0.969  21.010  0.00  0.00    +0.000 C 
ATOM      2  N   UNL     1       4.508   2.154  20.667  0.00  0.00    +0.000 N 
ATOM      3  N   UNL     1       3.342   2.422  21.274  0.00  0.00    +0.000 NA
ATOM      4  C   UNL     1       2.973   3.570  20.697  0.00  0.00    +0.000 A 
ATOM      5  C   UNL     1       1.824   4.337  20.938  0.00  0.00    +0.000 A 
ATOM      6  C   UNL     1       1.745   5.504  20.161  0.00  0.00    +0.000 A 
ATOM      7  C   UNL     1       2.700   5.922  19.216  0.00  0.00    +0.000 A 
ATOM      8  N   UNL     1       2.453   7.074  18.596  0.00  0.00    +0.000 NA
ATOM      9  C   UNL     1       3.354   7.528  17.697  0.00  0.00    +0.000 A 
ATOM     10  C   UNL     1       4.530   6.875  17.375  0.00  0.00    +0.000 A 
ATOM     11  C   UNL     1       4.825   5.660  17.989  0.00  0.00    +0.000 A 
ATOM     12  C   UNL     1       3.886   5.163  18.941  0.00  0.00    +0.000 A 
ATOM     13  C   UNL     1       3.997   3.962  19.713  0.00  0.00    +0.000 A 
ATOM     14  N   UNL     1       4.961   3.012  19.742  0.00  0.00    +0.000 NA
ENDROOT
BRANCH  11  15
ATOM     15  N   UNL     1       5.981   4.959  17.646  0.00  0.00    +0.000 N 
ATOM     16  H   UNL     1       6.857   5.413  17.926  0.00  0.00    +0.000 HD
BRANCH  15  17
ATOM     17  C   UNL     1       6.049   4.259  16.360  0.00  0.00    +0.000 C 
BRANCH  17  18
ATOM     18  C   UNL     1       7.215   4.791  15.496  0.00  0.00    +0.000 C 
BRANCH  18  19
ATOM     19  N   UNL     1       6.812   5.038  14.103  0.00  0.00    +0.000 NA
ATOM     20  H   UNL     1       7.653   5.135  13.531  0.00  0.00    +0.000 HD
BRANCH  19  21
ATOM     21  C   UNL     1       5.977   3.958  13.552  0.00  0.00    +0.000 C 
BRANCH  21  22
ATOM     22  C   UNL     1       6.493   3.434  12.206  0.00  0.00    +0.000 C 
BRANCH  22  23
ATOM     23  O   UNL     1       5.951   2.140  11.943  0.00  0.00    +0.000 OA
ATOM     24  H   UNL     1       5.484   1.890  12.768  0.00  0.00    +0.000 HD
ENDBRANCH  22  23
ENDBRANCH  21  22
ENDBRANCH  19  21
ENDBRANCH  18  19
ENDBRANCH  17  18
ENDBRANCH  15  17
ENDBRANCH  11  15
TORSDOF 7
ENDMDL
MODEL 5
REMARK VINA RESULT:      -6.1      2.734      3.451
REMARK  Name = 
REMARK  8 active torsions:
REMARK  status: ('A' for Active; 'I' for Inactive)
REMARK    1  A    between atoms: C_1  and  N_2
REMARK    2  A    between atoms: C_11  and  N_12
REMARK    3  A    between atoms: N_12  and  C_13
REMARK    4  A    between atoms: C_13  and  C_14
REMARK    5  A    between atoms: C_14  and  N_15
REMARK    6  A    between atoms: N_15  and  C_16
REMARK    7  A    between atoms: C_16  and  C_17
REMARK    8  A    between atoms: C_17  and  O_18
REMARK                            x       y       z     vdW  Elec       q    Type
REMARK                         _______ _______ _______ _____ _____    ______ ____
ROOT
ATOM      1  C   UNL     1       2.608   9.177  17.860  0.00  0.00    +0.000 C 
ATOM      2  N   UNL     1       2.556   7.862  18.442  0.00  0.00    +0.000 N 
ATOM      3  N   UNL     1       1.950   7.669  19.625  0.00  0.00    +0.000 NA
ATOM      4  C   UNL     1       2.113   6.357  19.821  0.00  0.00    +0.000 A 
ATOM      5  C   UNL     1       1.678   5.576  20.903  0.00  0.00    +0.000 A 
ATOM      6  C   UNL     1       2.007   4.216  20.792  0.00  0.00    +0.000 A 
ATOM      7  C   UNL     1       2.703   3.629  19.719  0.00  0.00    +0.000 A 
ATOM      8  N   UNL     1       2.899   2.313  19.791  0.00  0.00    +0.000 NA
ATOM      9  C   UNL     1       3.542   1.702  18.772  0.00  0.00    +0.000 A 
ATOM     10  C   UNL     1       4.012   2.351  17.646  0.00  0.00    +0.000 A 
ATOM     11  C   UNL     1       3.841   3.729  17.532  0.00  0.00    +0.000 A 
ATOM     12  C   UNL     1       3.167   4.395  18.598  0.00  0.00    +0.000 A 
ATOM     13  C   UNL     1       2.851   5.789  18.680  0.00  0.00    +0.000 A 
ATOM     14  N   UNL     1       3.106   6.808  17.824  0.00  0.00    +0.000 NA
ENDROOT
BRANCH  11  15
ATOM     15  N   UNL     1       4.350   4.414  16.428  0.00  0.00    +0.000 N 
ATOM     16  H   UNL     1       3.640   4.761  15.775  0.00  0.00    +0.000 HD
BRANCH  15  17
ATOM     17  C   UNL     1       5.582   3.944  15.788  0.00  0.00    +0.000 C 
BRANCH  17  18
ATOM     18  C   UNL     1       5.606   4.316  14.288  0.00  0.00    +0.000 C 
BRANCH  18  19
ATOM     19  N   UNL     1       6.414   3.379  13.492  0.00  0.00    +0.000 NA
ATOM     20  H   UNL     1       6.324   2.444  13.895  0.00  0.00    +0.000 HD
BRANCH  19  21
ATOM     21  C   UNL     1       6.007   3.334  12.079  0.00  0.00    +0.000 C 
BRANCH  21  22
ATOM     22  C   UNL     1       5.780   1.905  11.569  0.00  0.00    +0.000 C 
BRANCH  22  23
ATOM     23  O   UNL     1       7.026   1.305  11.217  0.00  0.00    +0.000 OA
ATOM     24  H   UNL     1       6.787   0.540  10.653  0.00  0.00    +0.000 HD
ENDBRANCH  22  23
ENDBRANCH  21  22
ENDBRANCH  19  21
ENDBRANCH  18  19
ENDBRANCH  17  18
ENDBRANCH  15  17
ENDBRANCH  11  15
TORSDOF 7
ENDMDL
MODEL 6
REMARK VINA RESULT:      -6.1      2.672      5.557
REMARK  Name = 
REMARK  8 active torsions:
REMARK  status: ('A' for Active; 'I' for Inactive)
REMARK    1  A    between atoms: C_1  and  N_2
REMARK    2  A    between atoms: C_11  and  N_12
REMARK    3  A    between atoms: N_12  and  C_13
REMARK    4  A    between atoms: C_13  and  C_14
REMARK    5  A    between atoms: C_14  and  N_15
REMARK    6  A    between atoms: N_15  and  C_16
REMARK    7  A    between atoms: C_16  and  C_17
REMARK    8  A    between atoms: C_17  and  O_18
REMARK                            x       y       z     vdW  Elec       q    Type
REMARK                         _______ _______ _______ _____ _____    ______ ____
ROOT
ATOM      1  C   UNL     1       7.874   8.714  17.550  0.00  0.00    +0.000 C 
ATOM      2  N   UNL     1       7.074   7.542  17.310  0.00  0.00    +0.000 N 
ATOM      3  N   UNL     1       7.588   6.498  16.641  0.00  0.00    +0.000 NA
ATOM      4  C   UNL     1       6.566   5.637  16.621  0.00  0.00    +0.000 A 
ATOM      5  C   UNL     1       6.517   4.354  16.054  0.00  0.00    +0.000 A 
ATOM      6  C   UNL     1       5.283   3.705  16.221  0.00  0.00    +0.000 A 
ATOM      7  C   UNL     1       4.164   4.237  16.887  0.00  0.00    +0.000 A 
ATOM      8  N   UNL     1       3.090   3.452  16.957  0.00  0.00    +0.000 NA
ATOM      9  C   UNL     1       1.999   3.911  17.609  0.00  0.00    +0.000 A 
ATOM     10  C   UNL     1       1.919   5.149  18.218  0.00  0.00    +0.000 A 
ATOM     11  C   UNL     1       3.013   6.009  18.161  0.00  0.00    +0.000 A 
ATOM     12  C   UNL     1       4.175   5.545  17.476  0.00  0.00    +0.000 A 
ATOM     13  C   UNL     1       5.418   6.239  17.321  0.00  0.00    +0.000 A 
ATOM     14  N   UNL     1       5.809   7.464  17.744  0.00  0.00    +0.000 NA
ENDROOT
BRANCH  11  15
ATOM     15  N   UNL     1       2.940   7.283  18.726  0.00  0.00    +0.000 N 
ATOM     16  H   UNL     1       2.685   7.296  19.719  0.00  0.00    +0.000 HD
BRANCH  15  17
ATOM     17  C   UNL     1       2.386   8.392  17.945  0.00  0.00    +0.000 C 
BRANCH  17  18
ATOM     18  C   UNL     1       1.257   9.110  18.719  0.00  0.00    +0.000 C 
BRANCH  18  19
ATOM     19  N   UNL     1       1.319   8.852  20.165  0.00  0.00    +0.000 NA
ATOM     20  H   UNL     1       2.294   8.706  20.431  0.00  0.00    +0.000 HD
BRANCH  19  21
ATOM     21  C   UNL     1       0.763   9.956  20.965  0.00  0.00    +0.000 C 
BRANCH  21  22
ATOM     22  C   UNL     1      -0.026   9.469  22.187  0.00  0.00    +0.000 C 
BRANCH  22  23
ATOM     23  O   UNL     1       0.740   9.663  23.375  0.00  0.00    +0.000 OA
ATOM     24  H   UNL     1       0.270  10.371  23.865  0.00  0.00    +0.000 HD
ENDBRANCH  22  23
ENDBRANCH  21  22
ENDBRANCH  19  21
ENDBRANCH  18  19
ENDBRANCH  17  18
ENDBRANCH  15  17
ENDBRANCH  11  15
TORSDOF 7
ENDMDL
MODEL 7
REMARK VINA RESULT:      -6.0      2.983      5.710
REMARK  Name = 
REMARK  8 active torsions:
REMARK  status: ('A' for Active; 'I' for Inactive)
REMARK    1  A    between atoms: C_1  and  N_2
REMARK    2  A    between atoms: C_11  and  N_12
REMARK    3  A    between atoms: N_12  and  C_13
REMARK    4  A    between atoms: C_13  and  C_14
REMARK    5  A    between atoms: C_14  and  N_15
REMARK    6  A    between atoms: N_15  and  C_16
REMARK    7  A    between atoms: C_16  and  C_17
REMARK    8  A    between atoms: C_17  and  O_18
REMARK                            x       y       z     vdW  Elec       q    Type
REMARK                         _______ _______ _______ _____ _____    ______ ____
ROOT
ATOM      1  C   UNL     1       8.006   8.441  17.700  0.00  0.00    +0.000 C 
ATOM      2  N   UNL     1       7.164   7.315  17.394  0.00  0.00    +0.000 N 
ATOM      3  N   UNL     1       7.596   6.353  16.563  0.00  0.00    +0.000 NA
ATOM      4  C   UNL     1       6.558   5.511  16.531  0.00  0.00    +0.000 A 
ATOM      5  C   UNL     1       6.433   4.306  15.824  0.00  0.00    +0.000 A 
ATOM      6  C   UNL     1       5.205   3.654  16.021  0.00  0.00    +0.000 A 
ATOM      7  C   UNL     1       4.160   4.114  16.843  0.00  0.00    +0.000 A 
ATOM      8  N   UNL     1       3.080   3.338  16.914  0.00  0.00    +0.000 NA
ATOM      9  C   UNL     1       2.060   3.726  17.710  0.00  0.00    +0.000 A 
ATOM     10  C   UNL     1       2.059   4.883  18.467  0.00  0.00    +0.000 A 
ATOM     11  C   UNL     1       3.161   5.733  18.415  0.00  0.00    +0.000 A 
ATOM     12  C   UNL     1       4.250   5.342  17.579  0.00  0.00    +0.000 A 
ATOM     13  C   UNL     1       5.489   6.036  17.398  0.00  0.00    +0.000 A 
ATOM     14  N   UNL     1       5.940   7.198  17.927  0.00  0.00    +0.000 NA
ENDROOT
BRANCH  11  15
ATOM     15  N   UNL     1       3.164   6.930  19.132  0.00  0.00    +0.000 N 
ATOM     16  H   UNL     1       3.504   6.851  20.096  0.00  0.00    +0.000 HD
BRANCH  15  17
ATOM     17  C   UNL     1       2.065   7.883  18.955  0.00  0.00    +0.000 C 
BRANCH  17  18
ATOM     18  C   UNL     1       2.199   8.645  17.617  0.00  0.00    +0.000 C 
BRANCH  18  19
ATOM     19  N   UNL     1       1.707  10.028  17.709  0.00  0.00    +0.000 NA
ATOM     20  H   UNL     1       1.445  10.346  16.775  0.00  0.00    +0.000 HD
BRANCH  19  21
ATOM     21  C   UNL     1       0.548  10.162  18.606  0.00  0.00    +0.000 C 
BRANCH  21  22
ATOM     22  C   UNL     1      -0.792  10.099  17.861  0.00  0.00    +0.000 C 
BRANCH  22  23
ATOM     23  O   UNL     1      -1.819  10.701  18.648  0.00  0.00    +0.000 OA
ATOM     24  H   UNL     1      -1.706  10.320  19.544  0.00  0.00    +0.000 HD
ENDBRANCH  22  23
ENDBRANCH  21  22
ENDBRANCH  19  21
ENDBRANCH  18  19
ENDBRANCH  17  18
ENDBRANCH  15  17
ENDBRANCH  11  15
TORSDOF 7
ENDMDL
MODEL 8
REMARK VINA RESULT:      -6.0      2.128      2.568
REMARK  Name = 
REMARK  8 active torsions:
REMARK  status: ('A' for Active; 'I' for Inactive)
REMARK    1  A    between atoms: C_1  and  N_2
REMARK    2  A    between atoms: C_11  and  N_12
REMARK    3  A    between atoms: N_12  and  C_13
REMARK    4  A    between atoms: C_13  and  C_14
REMARK    5  A    between atoms: C_14  and  N_15
REMARK    6  A    between atoms: N_15  and  C_16
REMARK    7  A    between atoms: C_16  and  C_17
REMARK    8  A    between atoms: C_17  and  O_18
REMARK                            x       y       z     vdW  Elec       q    Type
REMARK                         _______ _______ _______ _____ _____    ______ ____
ROOT
ATOM      1  C   UNL     1       2.260   9.308  17.904  0.00  0.00    +0.000 C 
ATOM      2  N   UNL     1       2.313   8.010  18.524  0.00  0.00    +0.000 N 
ATOM      3  N   UNL     1       1.757   7.813  19.729  0.00  0.00    +0.000 NA
ATOM      4  C   UNL     1       2.012   6.521  19.957  0.00  0.00    +0.000 A 
ATOM      5  C   UNL     1       1.661   5.746  21.073  0.00  0.00    +0.000 A 
ATOM      6  C   UNL     1       2.077   4.408  20.991  0.00  0.00    +0.000 A 
ATOM      7  C   UNL     1       2.778   3.836  19.913  0.00  0.00    +0.000 A 
ATOM      8  N   UNL     1       3.063   2.539  20.015  0.00  0.00    +0.000 NA
ATOM      9  C   UNL     1       3.714   1.940  18.994  0.00  0.00    +0.000 A 
ATOM     10  C   UNL     1       4.108   2.585  17.837  0.00  0.00    +0.000 A 
ATOM     11  C   UNL     1       3.843   3.944  17.690  0.00  0.00    +0.000 A 
ATOM     12  C   UNL     1       3.157   4.597  18.757  0.00  0.00    +0.000 A 
ATOM     13  C   UNL     1       2.752   5.969  18.809  0.00  0.00    +0.000 A 
ATOM     14  N   UNL     1       2.913   6.976  17.918  0.00  0.00    +0.000 NA
ENDROOT
BRANCH  11  15
ATOM     15  N   UNL     1       4.272   4.628  16.552  0.00  0.00    +0.000 N 
ATOM     16  H   UNL     1       4.090   4.144  15.667  0.00  0.00    +0.000 HD
BRANCH  15  17
ATOM     17  C   UNL     1       5.536   5.369  16.585  0.00  0.00    +0.000 C 
BRANCH  17  18
ATOM     18  C   UNL     1       6.686   4.537  15.974  0.00  0.00    +0.000 C 
BRANCH  18  19
ATOM     19  N   UNL     1       7.502   5.318  15.032  0.00  0.00    +0.000 NA
ATOM     20  H   UNL     1       8.488   5.192  15.269  0.00  0.00    +0.000 HD
BRANCH  19  21
ATOM     21  C   UNL     1       7.290   4.923  13.631  0.00  0.00    +0.000 C 
BRANCH  21  22
ATOM     22  C   UNL     1       6.235   3.820  13.476  0.00  0.00    +0.000 C 
BRANCH  22  23
ATOM     23  O   UNL     1       6.549   2.994  12.355  0.00  0.00    +0.000 OA
ATOM     24  H   UNL     1       5.755   3.036  11.781  0.00  0.00    +0.000 HD
ENDBRANCH  22  23
ENDBRANCH  21  22
ENDBRANCH  19  21
ENDBRANCH  18  19
ENDBRANCH  17  18
ENDBRANCH  15  17
ENDBRANCH  11  15
TORSDOF 7
ENDMDL
MODEL 9
REMARK VINA RESULT:      -6.0      1.237      3.790
REMARK  Name = 
REMARK  8 active torsions:
REMARK  status: ('A' for Active; 'I' for Inactive)
REMARK    1  A    between atoms: C_1  and  N_2
REMARK    2  A    between atoms: C_11  and  N_12
REMARK    3  A    between atoms: N_12  and  C_13
REMARK    4  A    between atoms: C_13  and  C_14
REMARK    5  A    between atoms: C_14  and  N_15
REMARK    6  A    between atoms: N_15  and  C_16
REMARK    7  A    between atoms: C_16  and  C_17
REMARK    8  A    between atoms: C_17  and  O_18
REMARK                            x       y       z     vdW  Elec       q    Type
REMARK                         _______ _______ _______ _____ _____    ______ ____
ROOT
ATOM      1  C   UNL     1       4.102   1.028  18.406  0.00  0.00    +0.000 C 
ATOM      2  N   UNL     1       3.563   2.288  18.845  0.00  0.00    +0.000 N 
ATOM      3  N   UNL     1       2.821   2.354  19.962  0.00  0.00    +0.000 NA
ATOM      4  C   UNL     1       2.513   3.653  20.027  0.00  0.00    +0.000 A 
ATOM      5  C   UNL     1       1.750   4.321  20.996  0.00  0.00    +0.000 A 
ATOM      6  C   UNL     1       1.626   5.702  20.772  0.00  0.00    +0.000 A 
ATOM      7  C   UNL     1       2.195   6.408  19.696  0.00  0.00    +0.000 A 
ATOM      8  N   UNL     1       1.979   7.722  19.673  0.00  0.00    +0.000 NA
ATOM      9  C   UNL     1       2.526   8.447  18.672  0.00  0.00    +0.000 A 
ATOM     10  C   UNL     1       3.305   7.915  17.661  0.00  0.00    +0.000 A 
ATOM     11  C   UNL     1       3.547   6.543  17.637  0.00  0.00    +0.000 A 
ATOM     12  C   UNL     1       2.978   5.760  18.685  0.00  0.00    +0.000 A 
ATOM     13  C   UNL     1       3.122   4.348  18.880  0.00  0.00    +0.000 A 
ATOM     14  N   UNL     1       3.787   3.416  18.157  0.00  0.00    +0.000 NA
ENDROOT
BRANCH  11  15
ATOM     15  N   UNL     1       4.290   5.976  16.601  0.00  0.00    +0.000 N 
ATOM     16  H   UNL     1       4.149   4.969  16.475  0.00  0.00    +0.000 HD
BRANCH  15  17
ATOM     17  C   UNL     1       5.664   6.428  16.363  0.00  0.00    +0.000 C 
BRANCH  17  18
ATOM     18  C   UNL     1       6.627   5.229  16.214  0.00  0.00    +0.000 C 
BRANCH  18  19
ATOM     19  N   UNL     1       6.730   4.437  17.449  0.00  0.00    +0.000 NA
ATOM     20  H   UNL     1       6.713   3.446  17.206  0.00  0.00    +0.000 HD
BRANCH  19  21
ATOM     21  C   UNL     1       7.956   4.726  18.210  0.00  0.00    +0.000 C 
BRANCH  21  22
ATOM     22  C   UNL     1       7.739   5.762  19.320  0.00  0.00    +0.000 C 
BRANCH  22  23
ATOM     23  O   UNL     1       8.323   7.010  18.947  0.00  0.00    +0.000 OA
ATOM     24  H   UNL     1       7.656   7.437  18.368  0.00  0.00    +0.000 HD
ENDBRANCH  22  23
ENDBRANCH  21  22
ENDBRANCH  19  21
ENDBRANCH  18  19
ENDBRANCH  17  18
ENDBRANCH  15  17
ENDBRANCH  11  15
TORSDOF 7
ENDMDL
