MODEL 1
REMARK VINA RESULT:      -8.7      0.000      0.000
REMARK  Name = 
REMARK  7 active torsions:
REMARK  status: ('A' for Active; 'I' for Inactive)
REMARK    1  A    between atoms: C_1  and  C_2
REMARK    2  A    between atoms: C_2  and  C_3
REMARK    3  A    between atoms: C_2  and  C_4
REMARK    4  A    between atoms: C_7  and  C_8
REMARK    5  A    between atoms: C_8  and  C_9
REMARK    6  A    between atoms: C_9  and  C_10
REMARK    7  A    between atoms: C_22  and  C_24
REMARK                            x       y       z     vdW  Elec       q    Type
REMARK                         _______ _______ _______ _____ _____    ______ ____
ROOT
ATOM      1  C   UNL     1       2.588   7.078  19.534  0.00  0.00    +0.000 C 
ATOM      2  C   UNL     1       2.329   7.773  18.192  0.00  0.00    +0.000 C 
ATOM      3  C   UNL     1       3.619   7.846  17.404  0.00  0.00    +0.000 C 
ATOM      4  C   UNL     1       4.382   6.555  17.394  0.00  0.00    +0.000 A 
ATOM      5  N   UNL     1       5.362   6.526  16.457  0.00  0.00    +0.000 NA
ATOM      6  C   UNL     1       6.176   5.483  16.458  0.00  0.00    +0.000 A 
ATOM      7  N   UNL     1       7.133   5.408  15.470  0.00  0.00    +0.000 N 
ATOM      8  N   UNL     1       6.108   4.494  17.339  0.00  0.00    +0.000 NA
ATOM      9  C   UNL     1       5.141   4.548  18.276  0.00  0.00    +0.000 A 
ATOM     10  N   UNL     1       5.331   3.532  19.212  0.00  0.00    +0.000 N 
ATOM     11  C   UNL     1       4.143   5.533  18.317  0.00  0.00    +0.000 A 
ATOM     12  N   UNL     1       3.016   5.643  19.244  0.00  0.00    +0.000 N 
ATOM     13  C   UNL     1       2.317   4.562  19.814  0.00  0.00    +0.000 C 
ATOM     14  O   UNL     1       1.556   4.691  20.778  0.00  0.00    +0.000 OA
ATOM     15  H   UNL     1       6.865   5.975  14.679  0.00  0.00    +0.000 HD
ATOM     16  H   UNL     1       7.383   4.447  15.288  0.00  0.00    +0.000 HD
ATOM     17  H   UNL     1       6.251   3.154  18.967  0.00  0.00    +0.000 HD
ATOM     18  H   UNL     1       4.704   2.755  19.077  0.00  0.00    +0.000 HD
ENDROOT
BRANCH  13  19
ATOM     19  C   UNL     1       2.418   3.178  19.207  0.00  0.00    +0.000 C 
ATOM     20 CL   UNL     1       0.804   2.491  18.878  0.00  0.00    +0.000 Cl
ENDBRANCH  13  19
BRANCH   1  21
ATOM     21  C   UNL     1       1.372   7.271  20.480  0.00  0.00    +0.000 C 
BRANCH  21  22
ATOM     22  C   UNL     1       1.571   8.116  21.753  0.00  0.00    +0.000 C 
BRANCH  22  26
ATOM     23  C   UNL     1      -1.285  11.392  21.957  0.00  0.00    +0.000 A 
ATOM     24  C   UNL     1      -0.687  11.033  20.736  0.00  0.00    +0.000 A 
ATOM     25  C   UNL     1       0.200   9.951  20.658  0.00  0.00    +0.000 A 
ATOM     26  C   UNL     1       0.509   9.200  21.797  0.00  0.00    +0.000 A 
ATOM     27  C   UNL     1      -0.101   9.540  23.008  0.00  0.00    +0.000 A 
ATOM     28  C   UNL     1      -0.987  10.621  23.088  0.00  0.00    +0.000 A 
BRANCH  23  30
ATOM     29  C   UNL     1      -3.052  12.758  20.777  0.00  0.00    +0.000 C 
ATOM     30  C   UNL     1      -2.202  12.598  22.040  0.00  0.00    +0.000 C 
ATOM     31  C   UNL     1      -3.097  12.538  23.283  0.00  0.00    +0.000 C 
ENDBRANCH  23  30
ENDBRANCH  22  26
ENDBRANCH  21  22
ENDBRANCH   1  21
TORSDOF 5
ENDMDL
MODEL 2
REMARK VINA RESULT:      -8.1      0.741      1.282
REMARK  Name = 
REMARK  7 active torsions:
REMARK  status: ('A' for Active; 'I' for Inactive)
REMARK    1  A    between atoms: C_1  and  C_2
REMARK    2  A    between atoms: C_2  and  C_3
REMARK    3  A    between atoms: C_2  and  C_4
REMARK    4  A    between atoms: C_7  and  C_8
REMARK    5  A    between atoms: C_8  and  C_9
REMARK    6  A    between atoms: C_9  and  C_10
REMARK    7  A    between atoms: C_22  and  C_24
REMARK                            x       y       z     vdW  Elec       q    Type
REMARK                         _______ _______ _______ _____ _____    ______ ____
ROOT
ATOM      1  C   UNL     1       2.734   7.047  19.823  0.00  0.00    +0.000 C 
ATOM      2  C   UNL     1       2.196   7.696  18.542  0.00  0.00    +0.000 C 
ATOM      3  C   UNL     1       3.312   7.814  17.527  0.00  0.00    +0.000 C 
ATOM      4  C   UNL     1       4.126   6.562  17.393  0.00  0.00    +0.000 A 
ATOM      5  N   UNL     1       4.916   6.559  16.291  0.00  0.00    +0.000 NA
ATOM      6  C   UNL     1       5.771   5.557  16.156  0.00  0.00    +0.000 A 
ATOM      7  N   UNL     1       6.531   5.506  15.008  0.00  0.00    +0.000 N 
ATOM      8  N   UNL     1       5.919   4.587  17.048  0.00  0.00    +0.000 NA
ATOM      9  C   UNL     1       5.140   4.617  18.148  0.00  0.00    +0.000 A 
ATOM     10  N   UNL     1       5.553   3.633  19.047  0.00  0.00    +0.000 N 
ATOM     11  C   UNL     1       4.117   5.552  18.360  0.00  0.00    +0.000 A 
ATOM     12  N   UNL     1       3.176   5.628  19.478  0.00  0.00    +0.000 N 
ATOM     13  C   UNL     1       2.653   4.528  20.183  0.00  0.00    +0.000 C 
ATOM     14  O   UNL     1       2.078   4.643  21.270  0.00  0.00    +0.000 OA
ATOM     15  H   UNL     1       6.091   6.040  14.273  0.00  0.00    +0.000 HD
ATOM     16  H   UNL     1       6.793   4.555  14.797  0.00  0.00    +0.000 HD
ATOM     17  H   UNL     1       6.431   3.296  18.640  0.00  0.00    +0.000 HD
ATOM     18  H   UNL     1       4.954   2.824  19.042  0.00  0.00    +0.000 HD
ENDROOT
BRANCH  13  19
ATOM     19  C   UNL     1       2.713   3.137  19.588  0.00  0.00    +0.000 C 
ATOM     20 CL   UNL     1       1.529   2.942  18.267  0.00  0.00    +0.000 Cl
ENDBRANCH  13  19
BRANCH   1  21
ATOM     21  C   UNL     1       1.706   7.203  20.975  0.00  0.00    +0.000 C 
BRANCH  21  22
ATOM     22  C   UNL     1       0.275   7.648  20.613  0.00  0.00    +0.000 C 
BRANCH  22  26
ATOM     23  C   UNL     1      -0.795  11.444  22.451  0.00  0.00    +0.000 A 
ATOM     24  C   UNL     1      -0.799  10.255  23.201  0.00  0.00    +0.000 A 
ATOM     25  C   UNL     1      -0.413   9.037  22.625  0.00  0.00    +0.000 A 
ATOM     26  C   UNL     1      -0.012   8.978  21.285  0.00  0.00    +0.000 A 
ATOM     27  C   UNL     1       0.014  10.163  20.542  0.00  0.00    +0.000 A 
ATOM     28  C   UNL     1      -0.372  11.381  21.117  0.00  0.00    +0.000 A 
BRANCH  23  30
ATOM     29  C   UNL     1      -0.567  13.960  22.451  0.00  0.00    +0.000 C 
ATOM     30  C   UNL     1      -1.266  12.747  23.071  0.00  0.00    +0.000 C 
ATOM     31  C   UNL     1      -2.787  12.897  22.973  0.00  0.00    +0.000 C 
ENDBRANCH  23  30
ENDBRANCH  22  26
ENDBRANCH  21  22
ENDBRANCH   1  21
TORSDOF 5
ENDMDL
MODEL 3
REMARK VINA RESULT:      -8.0      4.698      9.257
REMARK  Name = 
REMARK  7 active torsions:
REMARK  status: ('A' for Active; 'I' for Inactive)
REMARK    1  A    between atoms: C_1  and  C_2
REMARK    2  A    between atoms: C_2  and  C_3
REMARK    3  A    between atoms: C_2  and  C_4
REMARK    4  A    between atoms: C_7  and  C_8
REMARK    5  A    between atoms: C_8  and  C_9
REMARK    6  A    between atoms: C_9  and  C_10
REMARK    7  A    between atoms: C_22  and  C_24
REMARK                            x       y       z     vdW  Elec       q    Type
REMARK                         _______ _______ _______ _____ _____    ______ ____
ROOT
ATOM      1  C   UNL     1       0.421   9.995  21.086  0.00  0.00    +0.000 C 
ATOM      2  C   UNL     1      -0.345   9.357  22.251  0.00  0.00    +0.000 C 
ATOM      3  C   UNL     1      -0.878  10.443  23.161  0.00  0.00    +0.000 C 
ATOM      4  C   UNL     1      -1.534  11.569  22.418  0.00  0.00    +0.000 A 
ATOM      5  N   UNL     1      -2.268  12.378  23.223  0.00  0.00    +0.000 NA
ATOM      6  C   UNL     1      -2.775  13.475  22.684  0.00  0.00    +0.000 A 
ATOM      7  N   UNL     1      -3.579  14.270  23.472  0.00  0.00    +0.000 N 
ATOM      8  N   UNL     1      -2.577  13.840  21.425  0.00  0.00    +0.000 NA
ATOM      9  C   UNL     1      -1.829  13.035  20.645  0.00  0.00    +0.000 A 
ATOM     10  N   UNL     1      -1.581  13.659  19.422  0.00  0.00    +0.000 N 
ATOM     11  C   UNL     1      -1.329  11.790  21.052  0.00  0.00    +0.000 A 
ATOM     12  N   UNL     1      -0.570  10.816  20.268  0.00  0.00    +0.000 N 
ATOM     13  C   UNL     1      -0.725  10.578  18.889  0.00  0.00    +0.000 C 
ATOM     14  O   UNL     1       0.101   9.947  18.222  0.00  0.00    +0.000 OA
ATOM     15  H   UNL     1      -3.953  13.735  24.243  0.00  0.00    +0.000 HD
ATOM     16  H   UNL     1      -4.234  14.787  22.905  0.00  0.00    +0.000 HD
ATOM     17  H   UNL     1      -1.928  14.611  19.567  0.00  0.00    +0.000 HD
ATOM     18  H   UNL     1      -2.157  13.300  18.677  0.00  0.00    +0.000 HD
ENDROOT
BRANCH  13  19
ATOM     19  C   UNL     1      -1.976  11.036  18.168  0.00  0.00    +0.000 C 
ATOM     20 CL   UNL     1      -2.991   9.651  17.683  0.00  0.00    +0.000 Cl
ENDBRANCH  13  19
BRANCH   1  21
ATOM     21  C   UNL     1       1.235   8.913  20.326  0.00  0.00    +0.000 C 
BRANCH  21  22
ATOM     22  C   UNL     1       1.542   7.591  21.056  0.00  0.00    +0.000 C 
BRANCH  22  26
ATOM     23  C   UNL     1       2.828   4.561  18.209  0.00  0.00    +0.000 A 
ATOM     24  C   UNL     1       2.165   4.200  19.396  0.00  0.00    +0.000 A 
ATOM     25  C   UNL     1       1.710   5.174  20.295  0.00  0.00    +0.000 A 
ATOM     26  C   UNL     1       1.905   6.534  20.029  0.00  0.00    +0.000 A 
ATOM     27  C   UNL     1       2.544   6.899  18.839  0.00  0.00    +0.000 A 
ATOM     28  C   UNL     1       3.000   5.926  17.941  0.00  0.00    +0.000 A 
BRANCH  23  30
ATOM     29  C   UNL     1       4.752   3.852  16.734  0.00  0.00    +0.000 C 
ATOM     30  C   UNL     1       3.363   3.496  17.271  0.00  0.00    +0.000 C 
ATOM     31  C   UNL     1       3.384   2.118  17.940  0.00  0.00    +0.000 C 
ENDBRANCH  23  30
ENDBRANCH  22  26
ENDBRANCH  21  22
ENDBRANCH   1  21
TORSDOF 5
ENDMDL
MODEL 4
REMARK VINA RESULT:      -7.9      1.126      1.527
REMARK  Name = 
REMARK  7 active torsions:
REMARK  status: ('A' for Active; 'I' for Inactive)
REMARK    1  A    between atoms: C_1  and  C_2
REMARK    2  A    between atoms: C_2  and  C_3
REMARK    3  A    between atoms: C_2  and  C_4
REMARK    4  A    between atoms: C_7  and  C_8
REMARK    5  A    between atoms: C_8  and  C_9
REMARK    6  A    between atoms: C_9  and  C_10
REMARK    7  A    between atoms: C_22  and  C_24
REMARK                            x       y       z     vdW  Elec       q    Type
REMARK                         _______ _______ _______ _____ _____    ______ ____
ROOT
ATOM      1  C   UNL     1       2.632   6.976  19.538  0.00  0.00    +0.000 C 
ATOM      2  C   UNL     1       2.346   7.617  18.175  0.00  0.00    +0.000 C 
ATOM      3  C   UNL     1       3.634   7.731  17.389  0.00  0.00    +0.000 C 
ATOM      4  C   UNL     1       4.459   6.479  17.419  0.00  0.00    +0.000 A 
ATOM      5  N   UNL     1       5.443   6.471  16.486  0.00  0.00    +0.000 NA
ATOM      6  C   UNL     1       6.308   5.470  16.522  0.00  0.00    +0.000 A 
ATOM      7  N   UNL     1       7.272   5.412  15.539  0.00  0.00    +0.000 N 
ATOM      8  N   UNL     1       6.286   4.505  17.432  0.00  0.00    +0.000 NA
ATOM      9  C   UNL     1       5.313   4.540  18.364  0.00  0.00    +0.000 A 
ATOM     10  N   UNL     1       5.549   3.563  19.331  0.00  0.00    +0.000 N 
ATOM     11  C   UNL     1       4.267   5.474  18.373  0.00  0.00    +0.000 A 
ATOM     12  N   UNL     1       3.132   5.556  19.292  0.00  0.00    +0.000 N 
ATOM     13  C   UNL     1       2.485   4.459  19.893  0.00  0.00    +0.000 C 
ATOM     14  O   UNL     1       1.715   4.580  20.850  0.00  0.00    +0.000 OA
ATOM     15  H   UNL     1       6.979   5.942  14.730  0.00  0.00    +0.000 HD
ATOM     16  H   UNL     1       7.570   4.461  15.387  0.00  0.00    +0.000 HD
ATOM     17  H   UNL     1       6.488   3.224  19.100  0.00  0.00    +0.000 HD
ATOM     18  H   UNL     1       4.962   2.752  19.218  0.00  0.00    +0.000 HD
ENDROOT
BRANCH  13  19
ATOM     19  C   UNL     1       2.658   3.065  19.328  0.00  0.00    +0.000 C 
ATOM     20 CL   UNL     1       2.043   2.959  17.657  0.00  0.00    +0.000 Cl
ENDBRANCH  13  19
BRANCH   1  21
ATOM     21  C   UNL     1       1.404   7.137  20.474  0.00  0.00    +0.000 C 
BRANCH  21  22
ATOM     22  C   UNL     1       1.448   8.247  21.543  0.00  0.00    +0.000 C 
BRANCH  22  26
ATOM     23  C   UNL     1      -0.680  11.727  20.030  0.00  0.00    +0.000 A 
ATOM     24  C   UNL     1      -0.771  10.486  19.375  0.00  0.00    +0.000 A 
ATOM     25  C   UNL     1      -0.122   9.353  19.882  0.00  0.00    +0.000 A 
ATOM     26  C   UNL     1       0.631   9.430  21.059  0.00  0.00    +0.000 A 
ATOM     27  C   UNL     1       0.705  10.657  21.726  0.00  0.00    +0.000 A 
ATOM     28  C   UNL     1       0.058  11.792  21.219  0.00  0.00    +0.000 A 
BRANCH  23  30
ATOM     29  C   UNL     1      -1.911  13.877  20.528  0.00  0.00    +0.000 C 
ATOM     30  C   UNL     1      -1.343  12.959  19.442  0.00  0.00    +0.000 C 
ATOM     31  C   UNL     1      -0.381  13.734  18.535  0.00  0.00    +0.000 C 
ENDBRANCH  23  30
ENDBRANCH  22  26
ENDBRANCH  21  22
ENDBRANCH   1  21
TORSDOF 5
ENDMDL
MODEL 5
REMARK VINA RESULT:      -7.8      4.365      9.178
REMARK  Name = 
REMARK  7 active torsions:
REMARK  status: ('A' for Active; 'I' for Inactive)
REMARK    1  A    between atoms: C_1  and  C_2
REMARK    2  A    between atoms: C_2  and  C_3
REMARK    3  A    between atoms: C_2  and  C_4
REMARK    4  A    between atoms: C_7  and  C_8
REMARK    5  A    between atoms: C_8  and  C_9
REMARK    6  A    between atoms: C_9  and  C_10
REMARK    7  A    between atoms: C_22  and  C_24
REMARK                            x       y       z     vdW  Elec       q    Type
REMARK                         _______ _______ _______ _____ _____    ______ ____
ROOT
ATOM      1  C   UNL     1       1.045   9.415  20.285  0.00  0.00    +0.000 C 
ATOM      2  C   UNL     1       0.512   8.641  21.496  0.00  0.00    +0.000 C 
ATOM      3  C   UNL     1       0.115   9.616  22.584  0.00  0.00    +0.000 C 
ATOM      4  C   UNL     1      -0.692  10.774  22.076  0.00  0.00    +0.000 A 
ATOM      5  N   UNL     1      -1.298  11.473  23.068  0.00  0.00    +0.000 NA
ATOM      6  C   UNL     1      -1.923  12.590  22.733  0.00  0.00    +0.000 A 
ATOM      7  N   UNL     1      -2.599  13.274  23.719  0.00  0.00    +0.000 N 
ATOM      8  N   UNL     1      -1.957  13.076  21.499  0.00  0.00    +0.000 NA
ATOM      9  C   UNL     1      -1.333  12.379  20.529  0.00  0.00    +0.000 A 
ATOM     10  N   UNL     1      -1.320  13.120  19.347  0.00  0.00    +0.000 N 
ATOM     11  C   UNL     1      -0.735  11.126  20.723  0.00  0.00    +0.000 A 
ATOM     12  N   UNL     1      -0.096  10.261  19.730  0.00  0.00    +0.000 N 
ATOM     13  C   UNL     1      -0.482  10.142  18.382  0.00  0.00    +0.000 C 
ATOM     14  O   UNL     1       0.234   9.611  17.526  0.00  0.00    +0.000 OA
ATOM     15  H   UNL     1      -2.818  12.655  24.487  0.00  0.00    +0.000 HD
ATOM     16  H   UNL     1      -3.358  13.810  23.325  0.00  0.00    +0.000 HD
ATOM     17  H   UNL     1      -1.663  14.039  19.641  0.00  0.00    +0.000 HD
ATOM     18  H   UNL     1      -2.007  12.805  18.681  0.00  0.00    +0.000 HD
ENDROOT
BRANCH  13  19
ATOM     19  C   UNL     1      -1.852  10.606  17.932  0.00  0.00    +0.000 C 
ATOM     20 CL   UNL     1      -2.330   9.831  16.397  0.00  0.00    +0.000 Cl
ENDBRANCH  13  19
BRANCH   1  21
ATOM     21  C   UNL     1       1.745   8.444  19.296  0.00  0.00    +0.000 C 
BRANCH  21  22
ATOM     22  C   UNL     1       2.066   7.018  19.786  0.00  0.00    +0.000 C 
BRANCH  22  26
ATOM     23  C   UNL     1       4.650   4.991  16.931  0.00  0.00    +0.000 A 
ATOM     24  C   UNL     1       3.755   4.263  17.737  0.00  0.00    +0.000 A 
ATOM     25  C   UNL     1       2.891   4.915  18.626  0.00  0.00    +0.000 A 
ATOM     26  C   UNL     1       2.896   6.310  18.731  0.00  0.00    +0.000 A 
ATOM     27  C   UNL     1       3.768   7.039  17.915  0.00  0.00    +0.000 A 
ATOM     28  C   UNL     1       4.634   6.388  17.026  0.00  0.00    +0.000 A 
BRANCH  23  30
ATOM     29  C   UNL     1       5.393   4.640  14.542  0.00  0.00    +0.000 C 
ATOM     30  C   UNL     1       5.618   4.271  16.011  0.00  0.00    +0.000 C 
ATOM     31  C   UNL     1       7.073   4.533  16.412  0.00  0.00    +0.000 C 
ENDBRANCH  23  30
ENDBRANCH  22  26
ENDBRANCH  21  22
ENDBRANCH   1  21
TORSDOF 5
ENDMDL
MODEL 6
REMARK VINA RESULT:      -7.8      4.595      9.027
REMARK  Name = 
REMARK  7 active torsions:
REMARK  status: ('A' for Active; 'I' for Inactive)
REMARK    1  A    between atoms: C_1  and  C_2
REMARK    2  A    between atoms: C_2  and  C_3
REMARK    3  A    between atoms: C_2  and  C_4
REMARK    4  A    between atoms: C_7  and  C_8
REMARK    5  A    between atoms: C_8  and  C_9
REMARK    6  A    between atoms: C_9  and  C_10
REMARK    7  A    between atoms: C_22  and  C_24
REMARK                            x       y       z     vdW  Elec       q    Type
REMARK                         _______ _______ _______ _____ _____    ______ ____
ROOT
ATOM      1  C   UNL     1       0.765   9.785  19.383  0.00  0.00    +0.000 C 
ATOM      2  C   UNL     1       0.744   9.044  20.725  0.00  0.00    +0.000 C 
ATOM      3  C   UNL     1       0.746  10.049  21.857  0.00  0.00    +0.000 C 
ATOM      4  C   UNL     1      -0.231  11.169  21.656  0.00  0.00    +0.000 A 
ATOM      5  N   UNL     1      -0.449  11.890  22.784  0.00  0.00    +0.000 NA
ATOM      6  C   UNL     1      -1.191  12.981  22.675  0.00  0.00    +0.000 A 
ATOM      7  N   UNL     1      -1.477  13.685  23.824  0.00  0.00    +0.000 N 
ATOM      8  N   UNL     1      -1.696  13.421  21.531  0.00  0.00    +0.000 NA
ATOM      9  C   UNL     1      -1.452  12.703  20.416  0.00  0.00    +0.000 A 
ATOM     10  N   UNL     1      -1.903  13.401  19.296  0.00  0.00    +0.000 N 
ATOM     11  C   UNL     1      -0.783  11.471  20.407  0.00  0.00    +0.000 A 
ATOM     12  N   UNL     1      -0.529  10.585  19.270  0.00  0.00    +0.000 N 
ATOM     13  C   UNL     1      -1.382  10.409  18.165  0.00  0.00    +0.000 C 
ATOM     14  O   UNL     1      -1.017   9.863  17.119  0.00  0.00    +0.000 OA
ATOM     15  H   UNL     1      -1.375  13.090  24.634  0.00  0.00    +0.000 HD
ATOM     16  H   UNL     1      -2.345  14.190  23.726  0.00  0.00    +0.000 HD
ATOM     17  H   UNL     1      -2.143  14.323  19.673  0.00  0.00    +0.000 HD
ATOM     18  H   UNL     1      -2.776  13.047  18.940  0.00  0.00    +0.000 HD
ENDROOT
BRANCH  13  19
ATOM     19  C   UNL     1      -2.836  10.826  18.244  0.00  0.00    +0.000 C 
ATOM     20 CL   UNL     1      -3.537  11.052  16.618  0.00  0.00    +0.000 Cl
ENDBRANCH  13  19
BRANCH   1  21
ATOM     21  C   UNL     1       1.081   8.794  18.230  0.00  0.00    +0.000 C 
BRANCH  21  22
ATOM     22  C   UNL     1       2.551   8.631  17.797  0.00  0.00    +0.000 C 
BRANCH  22  26
ATOM     23  C   UNL     1       3.600   4.428  18.213  0.00  0.00    +0.000 A 
ATOM     24  C   UNL     1       4.436   5.313  17.508  0.00  0.00    +0.000 A 
ATOM     25  C   UNL     1       4.124   6.676  17.409  0.00  0.00    +0.000 A 
ATOM     26  C   UNL     1       2.971   7.188  18.013  0.00  0.00    +0.000 A 
ATOM     27  C   UNL     1       2.149   6.316  18.733  0.00  0.00    +0.000 A 
ATOM     28  C   UNL     1       2.459   4.954  18.833  0.00  0.00    +0.000 A 
BRANCH  23  30
ATOM     29  C   UNL     1       4.378   2.512  19.663  0.00  0.00    +0.000 C 
ATOM     30  C   UNL     1       3.920   2.946  18.268  0.00  0.00    +0.000 C 
ATOM     31  C   UNL     1       2.731   2.098  17.806  0.00  0.00    +0.000 C 
ENDBRANCH  23  30
ENDBRANCH  22  26
ENDBRANCH  21  22
ENDBRANCH   1  21
TORSDOF 5
ENDMDL
MODEL 7
REMARK VINA RESULT:      -7.8      4.521      9.222
REMARK  Name = 
REMARK  7 active torsions:
REMARK  status: ('A' for Active; 'I' for Inactive)
REMARK    1  A    between atoms: C_1  and  C_2
REMARK    2  A    between atoms: C_2  and  C_3
REMARK    3  A    between atoms: C_2  and  C_4
REMARK    4  A    between atoms: C_7  and  C_8
REMARK    5  A    between atoms: C_8  and  C_9
REMARK    6  A    between atoms: C_9  and  C_10
REMARK    7  A    between atoms: C_22  and  C_24
REMARK                            x       y       z     vdW  Elec       q    Type
REMARK                         _______ _______ _______ _____ _____    ______ ____
ROOT
ATOM      1  C   UNL     1       0.675   9.743  20.666  0.00  0.00    +0.000 C 
ATOM      2  C   UNL     1       0.121   8.980  21.875  0.00  0.00    +0.000 C 
ATOM      3  C   UNL     1      -0.304   9.965  22.943  0.00  0.00    +0.000 C 
ATOM      4  C   UNL     1      -1.106  11.112  22.406  0.00  0.00    +0.000 A 
ATOM      5  N   UNL     1      -1.736  11.818  23.378  0.00  0.00    +0.000 NA
ATOM      6  C   UNL     1      -2.360  12.928  23.016  0.00  0.00    +0.000 A 
ATOM      7  N   UNL     1      -3.061  13.619  23.980  0.00  0.00    +0.000 N 
ATOM      8  N   UNL     1      -2.372  13.400  21.777  0.00  0.00    +0.000 NA
ATOM      9  C   UNL     1      -1.724  12.696  20.828  0.00  0.00    +0.000 A 
ATOM     10  N   UNL     1      -1.690  13.424  19.638  0.00  0.00    +0.000 N 
ATOM     11  C   UNL     1      -1.123  11.449  21.049  0.00  0.00    +0.000 A 
ATOM     12  N   UNL     1      -0.459  10.577  20.079  0.00  0.00    +0.000 N 
ATOM     13  C   UNL     1      -0.816  10.440  18.724  0.00  0.00    +0.000 C 
ATOM     14  O   UNL     1      -0.080   9.904  17.890  0.00  0.00    +0.000 OA
ATOM     15  H   UNL     1      -3.292  13.008  24.751  0.00  0.00    +0.000 HD
ATOM     16  H   UNL     1      -3.814  14.147  23.564  0.00  0.00    +0.000 HD
ATOM     17  H   UNL     1      -2.044  14.345  19.915  0.00  0.00    +0.000 HD
ATOM     18  H   UNL     1      -2.361  13.098  18.962  0.00  0.00    +0.000 HD
ENDROOT
BRANCH  13  19
ATOM     19  C   UNL     1      -2.178  10.892  18.241  0.00  0.00    +0.000 C 
ATOM     20 CL   UNL     1      -2.966   9.635  17.249  0.00  0.00    +0.000 Cl
ENDBRANCH  13  19
BRANCH   1  21
ATOM     21  C   UNL     1       1.401   8.765  19.703  0.00  0.00    +0.000 C 
BRANCH  21  22
ATOM     22  C   UNL     1       1.759   7.362  20.231  0.00  0.00    +0.000 C 
BRANCH  22  26
ATOM     23  C   UNL     1       4.635   5.471  17.568  0.00  0.00    +0.000 A 
ATOM     24  C   UNL     1       4.026   6.691  17.222  0.00  0.00    +0.000 A 
ATOM     25  C   UNL     1       3.132   7.325  18.095  0.00  0.00    +0.000 A 
ATOM     26  C   UNL     1       2.827   6.758  19.337  0.00  0.00    +0.000 A 
ATOM     27  C   UNL     1       3.447   5.557  19.695  0.00  0.00    +0.000 A 
ATOM     28  C   UNL     1       4.340   4.921  18.822  0.00  0.00    +0.000 A 
BRANCH  23  30
ATOM     29  C   UNL     1       5.565   5.446  15.219  0.00  0.00    +0.000 C 
ATOM     30  C   UNL     1       5.559   4.767  16.592  0.00  0.00    +0.000 C 
ATOM     31  C   UNL     1       6.985   4.664  17.145  0.00  0.00    +0.000 C 
ENDBRANCH  23  30
ENDBRANCH  22  26
ENDBRANCH  21  22
ENDBRANCH   1  21
TORSDOF 5
ENDMDL
MODEL 8
REMARK VINA RESULT:      -7.8      4.783      8.889
REMARK  Name = 
REMARK  7 active torsions:
REMARK  status: ('A' for Active; 'I' for Inactive)
REMARK    1  A    between atoms: C_1  and  C_2
REMARK    2  A    between atoms: C_2  and  C_3
REMARK    3  A    between atoms: C_2  and  C_4
REMARK    4  A    between atoms: C_7  and  C_8
REMARK    5  A    between atoms: C_8  and  C_9
REMARK    6  A    between atoms: C_9  and  C_10
REMARK    7  A    between atoms: C_22  and  C_24
REMARK                            x       y       z     vdW  Elec       q    Type
REMARK                         _______ _______ _______ _____ _____    ______ ____
ROOT
ATOM      1  C   UNL     1       0.538  10.079  19.664  0.00  0.00    +0.000 C 
ATOM      2  C   UNL     1       0.368   9.322  20.986  0.00  0.00    +0.000 C 
ATOM      3  C   UNL     1       0.394  10.303  22.138  0.00  0.00    +0.000 C 
ATOM      4  C   UNL     1      -0.460  11.514  21.905  0.00  0.00    +0.000 A 
ATOM      5  N   UNL     1      -0.678  12.233  23.034  0.00  0.00    +0.000 NA
ATOM      6  C   UNL     1      -1.308  13.390  22.906  0.00  0.00    +0.000 A 
ATOM      7  N   UNL     1      -1.597  14.099  24.052  0.00  0.00    +0.000 N 
ATOM      8  N   UNL     1      -1.700  13.894  21.744  0.00  0.00    +0.000 NA
ATOM      9  C   UNL     1      -1.458  13.175  20.630  0.00  0.00    +0.000 A 
ATOM     10  N   UNL     1      -1.773  13.931  19.501  0.00  0.00    +0.000 N 
ATOM     11  C   UNL     1      -0.905  11.886  20.633  0.00  0.00    +0.000 A 
ATOM     12  N   UNL     1      -0.666  10.999  19.494  0.00  0.00    +0.000 N 
ATOM     13  C   UNL     1      -1.464  10.922  18.337  0.00  0.00    +0.000 C 
ATOM     14  O   UNL     1      -1.089  10.362  17.302  0.00  0.00    +0.000 OA
ATOM     15  H   UNL     1      -1.599  13.484  24.853  0.00  0.00    +0.000 HD
ATOM     16  H   UNL     1      -2.407  14.685  23.914  0.00  0.00    +0.000 HD
ATOM     17  H   UNL     1      -1.949  14.865  19.883  0.00  0.00    +0.000 HD
ATOM     18  H   UNL     1      -2.652  13.666  19.087  0.00  0.00    +0.000 HD
ENDROOT
BRANCH  13  19
ATOM     19  C   UNL     1      -2.875  11.473  18.339  0.00  0.00    +0.000 C 
ATOM     20 CL   UNL     1      -3.650  11.286  16.743  0.00  0.00    +0.000 Cl
ENDBRANCH  13  19
BRANCH   1  21
ATOM     21  C   UNL     1       0.830   9.082  18.511  0.00  0.00    +0.000 C 
BRANCH  21  22
ATOM     22  C   UNL     1       2.265   8.538  18.369  0.00  0.00    +0.000 C 
BRANCH  22  26
ATOM     23  C   UNL     1       2.035   4.345  19.510  0.00  0.00    +0.000 A 
ATOM     24  C   UNL     1       2.142   4.719  18.159  0.00  0.00    +0.000 A 
ATOM     25  C   UNL     1       2.260   6.066  17.789  0.00  0.00    +0.000 A 
ATOM     26  C   UNL     1       2.277   7.072  18.762  0.00  0.00    +0.000 A 
ATOM     27  C   UNL     1       2.193   6.703  20.108  0.00  0.00    +0.000 A 
ATOM     28  C   UNL     1       2.074   5.357  20.478  0.00  0.00    +0.000 A 
BRANCH  23  30
ATOM     29  C   UNL     1       1.359   2.734  21.335  0.00  0.00    +0.000 C 
ATOM     30  C   UNL     1       1.854   2.889  19.894  0.00  0.00    +0.000 C 
ATOM     31  C   UNL     1       0.913   2.166  18.925  0.00  0.00    +0.000 C 
ENDBRANCH  23  30
ENDBRANCH  22  26
ENDBRANCH  21  22
ENDBRANCH   1  21
TORSDOF 5
ENDMDL
MODEL 9
REMARK VINA RESULT:      -7.7      5.356      9.259
REMARK  Name = 
REMARK  7 active torsions:
REMARK  status: ('A' for Active; 'I' for Inactive)
REMARK    1  A    between atoms: C_1  and  C_2
REMARK    2  A    between atoms: C_2  and  C_3
REMARK    3  A    between atoms: C_2  and  C_4
REMARK    4  A    between atoms: C_7  and  C_8
REMARK    5  A    between atoms: C_8  and  C_9
REMARK    6  A    between atoms: C_9  and  C_10
REMARK    7  A    between atoms: C_22  and  C_24
REMARK                            x       y       z     vdW  Elec       q    Type
REMARK                         _______ _______ _______ _____ _____    ______ ____
ROOT
ATOM      1  C   UNL     1      -0.654  10.222  19.395  0.00  0.00    +0.000 C 
ATOM      2  C   UNL     1      -0.624  10.067  17.870  0.00  0.00    +0.000 C 
ATOM      3  C   UNL     1      -2.040   9.950  17.347  0.00  0.00    +0.000 C 
ATOM      4  C   UNL     1      -2.974  10.966  17.933  0.00  0.00    +0.000 A 
ATOM      5  N   UNL     1      -4.145  11.062  17.256  0.00  0.00    +0.000 NA
ATOM      6  C   UNL     1      -5.087  11.834  17.774  0.00  0.00    +0.000 A 
ATOM      7  N   UNL     1      -6.255  11.995  17.062  0.00  0.00    +0.000 N 
ATOM      8  N   UNL     1      -4.962  12.482  18.924  0.00  0.00    +0.000 NA
ATOM      9  C   UNL     1      -3.799  12.359  19.595  0.00  0.00    +0.000 A 
ATOM     10  N   UNL     1      -3.912  12.954  20.851  0.00  0.00    +0.000 N 
ATOM     11  C   UNL     1      -2.680  11.670  19.106  0.00  0.00    +0.000 A 
ATOM     12  N   UNL     1      -1.358  11.536  19.718  0.00  0.00    +0.000 N 
ATOM     13  C   UNL     1      -0.720  12.512  20.507  0.00  0.00    +0.000 C 
ATOM     14  O   UNL     1       0.263  12.263  21.211  0.00  0.00    +0.000 OA
ATOM     15  H   UNL     1      -6.103  11.784  16.086  0.00  0.00    +0.000 HD
ATOM     16  H   UNL     1      -6.689  12.878  17.283  0.00  0.00    +0.000 HD
ATOM     17  H   UNL     1      -4.912  13.167  20.923  0.00  0.00    +0.000 HD
ATOM     18  H   UNL     1      -3.467  13.856  20.897  0.00  0.00    +0.000 HD
ENDROOT
BRANCH  13  19
ATOM     19  C   UNL     1      -1.181  13.954  20.465  0.00  0.00    +0.000 C 
ATOM     20 CL   UNL     1      -0.448  14.832  19.095  0.00  0.00    +0.000 Cl
ENDBRANCH  13  19
BRANCH   1  21
ATOM     21  C   UNL     1       0.771  10.026  19.980  0.00  0.00    +0.000 C 
BRANCH  21  22
ATOM     22  C   UNL     1       1.019   8.807  20.890  0.00  0.00    +0.000 C 
BRANCH  22  26
ATOM     23  C   UNL     1       2.831   5.656  18.497  0.00  0.00    +0.000 A 
ATOM     24  C   UNL     1       2.811   6.986  18.040  0.00  0.00    +0.000 A 
ATOM     25  C   UNL     1       2.268   8.011  18.826  0.00  0.00    +0.000 A 
ATOM     26  C   UNL     1       1.733   7.733  20.089  0.00  0.00    +0.000 A 
ATOM     27  C   UNL     1       1.771   6.415  20.556  0.00  0.00    +0.000 A 
ATOM     28  C   UNL     1       2.313   5.389  19.771  0.00  0.00    +0.000 A 
BRANCH  23  30
ATOM     29  C   UNL     1       4.698   3.992  18.144  0.00  0.00    +0.000 C 
ATOM     30  C   UNL     1       3.373   4.547  17.615  0.00  0.00    +0.000 C 
ATOM     31  C   UNL     1       2.351   3.419  17.440  0.00  0.00    +0.000 C 
ENDBRANCH  23  30
ENDBRANCH  22  26
ENDBRANCH  21  22
ENDBRANCH   1  21
TORSDOF 5
ENDMDL
