MODEL 1
REMARK VINA RESULT:      -7.6      0.000      0.000
REMARK  Name = 
REMARK  8 active torsions:
REMARK  status: ('A' for Active; 'I' for Inactive)
REMARK    1  A    between atoms: C_1  and  C_2
REMARK    2  A    between atoms: C_2  and  C_3
REMARK    3  A    between atoms: C_6  and  O_7
REMARK    4  A    between atoms: O_7  and  C_8
REMARK    5  A    between atoms: C_9  and  C_10
REMARK    6  A    between atoms: C_14  and  O_15
REMARK    7  A    between atoms: C_16  and  C_17
REMARK    8  A    between atoms: C_17  and  C_18
REMARK                            x       y       z     vdW  Elec       q    Type
REMARK                         _______ _______ _______ _____ _____    ______ ____
ROOT
ATOM      1  C   UNL     1       2.879   6.967  19.095  0.00  0.00    +0.000 A 
ATOM      2  C   UNL     1       3.233   5.728  19.491  0.00  0.00    +0.000 A 
ATOM      3  C   UNL     1       2.441   4.579  18.861  0.00  0.00    +0.000 C 
ATOM      4  O   UNL     1       4.590   5.452  19.651  0.00  0.00    +0.000 OA
ATOM      5  C   UNL     1       5.327   5.649  18.509  0.00  0.00    +0.000 A 
ATOM      6  C   UNL     1       6.501   4.935  18.359  0.00  0.00    +0.000 A 
ATOM      7  C   UNL     1       6.996   4.771  17.075  0.00  0.00    +0.000 A 
ATOM      8  C   UNL     1       6.296   5.241  15.948  0.00  0.00    +0.000 A 
ATOM      9  C   UNL     1       5.237   6.143  16.162  0.00  0.00    +0.000 A 
ATOM     10  C   UNL     1       4.785   6.385  17.467  0.00  0.00    +0.000 A 
ATOM     11  C   UNL     1       3.658   7.291  17.816  0.00  0.00    +0.000 A 
ATOM     12  O   UNL     1       3.332   8.196  17.072  0.00  0.00    +0.000 OA
ENDROOT
BRANCH   7  13
ATOM     13  O   UNL     1       8.151   4.065  16.886  0.00  0.00    +0.000 OA
ATOM     14  H   UNL     1       7.952   3.122  17.015  0.00  0.00    +0.000 HD
ENDBRANCH   7  13
BRANCH   8  15
ATOM     15  C   UNL     1       6.683   4.623  14.617  0.00  0.00    +0.000 C 
ATOM     16  C   UNL     1       5.644   3.933  13.752  0.00  0.00    +0.000 C 
ENDBRANCH   8  15
BRANCH   1  17
ATOM     17  O   UNL     1       1.545   7.361  19.140  0.00  0.00    +0.000 OA
BRANCH  17  21
ATOM     18  C   UNL     1       0.295  10.678  21.374  0.00  0.00    +0.000 A 
ATOM     19  C   UNL     1       0.696   9.480  21.976  0.00  0.00    +0.000 A 
ATOM     20  C   UNL     1       1.162   8.418  21.196  0.00  0.00    +0.000 A 
ATOM     21  C   UNL     1       1.226   8.528  19.805  0.00  0.00    +0.000 A 
ATOM     22  C   UNL     1       0.970   9.766  19.212  0.00  0.00    +0.000 A 
ATOM     23  C   UNL     1       0.504  10.836  19.996  0.00  0.00    +0.000 A 
BRANCH  18  25
ATOM     24  C   UNL     1      -1.485  11.185  23.134  0.00  0.00    +0.000 C 
ATOM     25  C   UNL     1      -0.438  11.726  22.177  0.00  0.00    +0.000 C 
ENDBRANCH  18  25
ENDBRANCH  17  21
ENDBRANCH   1  17
TORSDOF 5
ENDMDL
MODEL 2
REMARK VINA RESULT:      -7.1      0.810      1.483
REMARK  Name = 
REMARK  8 active torsions:
REMARK  status: ('A' for Active; 'I' for Inactive)
REMARK    1  A    between atoms: C_1  and  C_2
REMARK    2  A    between atoms: C_2  and  C_3
REMARK    3  A    between atoms: C_6  and  O_7
REMARK    4  A    between atoms: O_7  and  C_8
REMARK    5  A    between atoms: C_9  and  C_10
REMARK    6  A    between atoms: C_14  and  O_15
REMARK    7  A    between atoms: C_16  and  C_17
REMARK    8  A    between atoms: C_17  and  C_18
REMARK                            x       y       z     vdW  Elec       q    Type
REMARK                         _______ _______ _______ _____ _____    ______ ____
ROOT
ATOM      1  C   UNL     1       2.819   7.017  18.955  0.00  0.00    +0.000 A 
ATOM      2  C   UNL     1       3.144   5.789  19.405  0.00  0.00    +0.000 A 
ATOM      3  C   UNL     1       2.379   4.626  18.767  0.00  0.00    +0.000 C 
ATOM      4  O   UNL     1       4.488   5.510  19.646  0.00  0.00    +0.000 OA
ATOM      5  C   UNL     1       5.287   5.670  18.541  0.00  0.00    +0.000 A 
ATOM      6  C   UNL     1       6.463   4.946  18.476  0.00  0.00    +0.000 A 
ATOM      7  C   UNL     1       7.025   4.743  17.225  0.00  0.00    +0.000 A 
ATOM      8  C   UNL     1       6.391   5.184  16.049  0.00  0.00    +0.000 A 
ATOM      9  C   UNL     1       5.328   6.097  16.179  0.00  0.00    +0.000 A 
ATOM     10  C   UNL     1       4.808   6.379  17.450  0.00  0.00    +0.000 A 
ATOM     11  C   UNL     1       3.669   7.300  17.711  0.00  0.00    +0.000 A 
ATOM     12  O   UNL     1       3.390   8.184  16.925  0.00  0.00    +0.000 OA
ENDROOT
BRANCH   7  13
ATOM     13  O   UNL     1       8.184   4.026  17.120  0.00  0.00    +0.000 OA
ATOM     14  H   UNL     1       8.713   4.189  17.920  0.00  0.00    +0.000 HD
ENDBRANCH   7  13
BRANCH   8  15
ATOM     15  C   UNL     1       6.845   4.525  14.760  0.00  0.00    +0.000 C 
ATOM     16  C   UNL     1       5.832   3.967  13.776  0.00  0.00    +0.000 C 
ENDBRANCH   8  15
BRANCH   1  17
ATOM     17  O   UNL     1       1.488   7.419  18.917  0.00  0.00    +0.000 OA
BRANCH  17  21
ATOM     18  C   UNL     1       0.700  11.196  20.550  0.00  0.00    +0.000 A 
ATOM     19  C   UNL     1       0.636  10.949  19.174  0.00  0.00    +0.000 A 
ATOM     20  C   UNL     1       0.849   9.660  18.676  0.00  0.00    +0.000 A 
ATOM     21  C   UNL     1       1.139   8.600  19.539  0.00  0.00    +0.000 A 
ATOM     22  C   UNL     1       1.057   8.809  20.918  0.00  0.00    +0.000 A 
ATOM     23  C   UNL     1       0.840  10.104  21.419  0.00  0.00    +0.000 A 
BRANCH  18  25
ATOM     24  C   UNL     1       1.688  13.543  20.356  0.00  0.00    +0.000 C 
ATOM     25  C   UNL     1       0.722  12.614  21.068  0.00  0.00    +0.000 C 
ENDBRANCH  18  25
ENDBRANCH  17  21
ENDBRANCH   1  17
TORSDOF 5
ENDMDL
MODEL 3
REMARK VINA RESULT:      -6.9      2.032      8.577
REMARK  Name = 
REMARK  8 active torsions:
REMARK  status: ('A' for Active; 'I' for Inactive)
REMARK    1  A    between atoms: C_1  and  C_2
REMARK    2  A    between atoms: C_2  and  C_3
REMARK    3  A    between atoms: C_6  and  O_7
REMARK    4  A    between atoms: O_7  and  C_8
REMARK    5  A    between atoms: C_9  and  C_10
REMARK    6  A    between atoms: C_14  and  O_15
REMARK    7  A    between atoms: C_16  and  C_17
REMARK    8  A    between atoms: C_17  and  C_18
REMARK                            x       y       z     vdW  Elec       q    Type
REMARK                         _______ _______ _______ _____ _____    ______ ____
ROOT
ATOM      1  C   UNL     1       6.094   5.362  16.432  0.00  0.00    +0.000 A 
ATOM      2  C   UNL     1       6.339   5.252  17.753  0.00  0.00    +0.000 A 
ATOM      3  C   UNL     1       7.167   6.383  18.370  0.00  0.00    +0.000 C 
ATOM      4  O   UNL     1       5.311   4.796  18.576  0.00  0.00    +0.000 OA
ATOM      5  C   UNL     1       4.180   5.573  18.521  0.00  0.00    +0.000 A 
ATOM      6  C   UNL     1       3.338   5.577  19.618  0.00  0.00    +0.000 A 
ATOM      7  C   UNL     1       2.482   6.657  19.768  0.00  0.00    +0.000 A 
ATOM      8  C   UNL     1       2.514   7.753  18.886  0.00  0.00    +0.000 A 
ATOM      9  C   UNL     1       3.219   7.603  17.678  0.00  0.00    +0.000 A 
ATOM     10  C   UNL     1       4.020   6.470  17.477  0.00  0.00    +0.000 A 
ATOM     11  C   UNL     1       4.833   6.216  16.258  0.00  0.00    +0.000 A 
ATOM     12  O   UNL     1       4.542   6.731  15.196  0.00  0.00    +0.000 OA
ENDROOT
BRANCH   7  13
ATOM     13  O   UNL     1       1.639   6.700  20.843  0.00  0.00    +0.000 OA
ATOM     14  H   UNL     1       1.421   7.631  21.018  0.00  0.00    +0.000 HD
ENDBRANCH   7  13
BRANCH   8  15
ATOM     15  C   UNL     1       1.882   9.036  19.395  0.00  0.00    +0.000 C 
ATOM     16  C   UNL     1       0.855   9.778  18.559  0.00  0.00    +0.000 C 
ENDBRANCH   8  15
BRANCH   1  17
ATOM     17  O   UNL     1       7.140   5.590  15.543  0.00  0.00    +0.000 OA
BRANCH  17  21
ATOM     18  C   UNL     1       7.020   3.408  11.968  0.00  0.00    +0.000 A 
ATOM     19  C   UNL     1       6.169   3.128  13.043  0.00  0.00    +0.000 A 
ATOM     20  C   UNL     1       6.202   3.919  14.196  0.00  0.00    +0.000 A 
ATOM     21  C   UNL     1       7.090   4.993  14.299  0.00  0.00    +0.000 A 
ATOM     22  C   UNL     1       7.834   5.367  13.178  0.00  0.00    +0.000 A 
ATOM     23  C   UNL     1       7.799   4.574  12.018  0.00  0.00    +0.000 A 
BRANCH  18  25
ATOM     24  C   UNL     1       6.488   1.081  11.061  0.00  0.00    +0.000 C 
ATOM     25  C   UNL     1       7.167   2.419  10.836  0.00  0.00    +0.000 C 
ENDBRANCH  18  25
ENDBRANCH  17  21
ENDBRANCH   1  17
TORSDOF 5
ENDMDL
MODEL 4
REMARK VINA RESULT:      -6.8      3.231      8.078
REMARK  Name = 
REMARK  8 active torsions:
REMARK  status: ('A' for Active; 'I' for Inactive)
REMARK    1  A    between atoms: C_1  and  C_2
REMARK    2  A    between atoms: C_2  and  C_3
REMARK    3  A    between atoms: C_6  and  O_7
REMARK    4  A    between atoms: O_7  and  C_8
REMARK    5  A    between atoms: C_9  and  C_10
REMARK    6  A    between atoms: C_14  and  O_15
REMARK    7  A    between atoms: C_16  and  C_17
REMARK    8  A    between atoms: C_17  and  C_18
REMARK                            x       y       z     vdW  Elec       q    Type
REMARK                         _______ _______ _______ _____ _____    ______ ____
ROOT
ATOM      1  C   UNL     1       1.229   8.361  19.890  0.00  0.00    +0.000 A 
ATOM      2  C   UNL     1       0.589   8.902  20.946  0.00  0.00    +0.000 A 
ATOM      3  C   UNL     1       1.490   9.480  22.041  0.00  0.00    +0.000 C 
ATOM      4  O   UNL     1      -0.556   9.659  20.704  0.00  0.00    +0.000 OA
ATOM      5  C   UNL     1      -0.337  10.731  19.874  0.00  0.00    +0.000 A 
ATOM      6  C   UNL     1      -1.182  11.821  19.980  0.00  0.00    +0.000 A 
ATOM      7  C   UNL     1      -0.722  13.041  19.509  0.00  0.00    +0.000 A 
ATOM      8  C   UNL     1       0.586  13.195  19.012  0.00  0.00    +0.000 A 
ATOM      9  C   UNL     1       1.319  12.030  18.721  0.00  0.00    +0.000 A 
ATOM     10  C   UNL     1       0.821  10.780  19.114  0.00  0.00    +0.000 A 
ATOM     11  C   UNL     1       1.518   9.485  18.889  0.00  0.00    +0.000 A 
ATOM     12  O   UNL     1       2.334   9.362  17.997  0.00  0.00    +0.000 OA
ENDROOT
BRANCH   7  13
ATOM     13  O   UNL     1      -1.526  14.142  19.603  0.00  0.00    +0.000 OA
ATOM     14  H   UNL     1      -1.995  14.101  20.454  0.00  0.00    +0.000 HD
ENDBRANCH   7  13
BRANCH   8  15
ATOM     15  C   UNL     1       1.115  14.617  18.960  0.00  0.00    +0.000 C 
ATOM     16  C   UNL     1       2.531  14.900  18.492  0.00  0.00    +0.000 C 
ENDBRANCH   8  15
BRANCH   1  17
ATOM     17  O   UNL     1       2.232   7.417  20.088  0.00  0.00    +0.000 OA
BRANCH  17  21
ATOM     18  C   UNL     1       1.947   3.446  18.781  0.00  0.00    +0.000 A 
ATOM     19  C   UNL     1       1.573   3.837  20.072  0.00  0.00    +0.000 A 
ATOM     20  C   UNL     1       1.628   5.182  20.448  0.00  0.00    +0.000 A 
ATOM     21  C   UNL     1       2.067   6.157  19.549  0.00  0.00    +0.000 A 
ATOM     22  C   UNL     1       2.299   5.796  18.220  0.00  0.00    +0.000 A 
ATOM     23  C   UNL     1       2.240   4.444  17.840  0.00  0.00    +0.000 A 
BRANCH  18  25
ATOM     24  C   UNL     1       3.567   1.502  18.445  0.00  0.00    +0.000 C 
ATOM     25  C   UNL     1       2.128   1.984  18.451  0.00  0.00    +0.000 C 
ENDBRANCH  18  25
ENDBRANCH  17  21
ENDBRANCH   1  17
TORSDOF 5
ENDMDL
MODEL 5
REMARK VINA RESULT:      -6.6      2.431      8.654
REMARK  Name = 
REMARK  8 active torsions:
REMARK  status: ('A' for Active; 'I' for Inactive)
REMARK    1  A    between atoms: C_1  and  C_2
REMARK    2  A    between atoms: C_2  and  C_3
REMARK    3  A    between atoms: C_6  and  O_7
REMARK    4  A    between atoms: O_7  and  C_8
REMARK    5  A    between atoms: C_9  and  C_10
REMARK    6  A    between atoms: C_14  and  O_15
REMARK    7  A    between atoms: C_16  and  C_17
REMARK    8  A    between atoms: C_17  and  C_18
REMARK                            x       y       z     vdW  Elec       q    Type
REMARK                         _______ _______ _______ _____ _____    ______ ____
ROOT
ATOM      1  C   UNL     1       1.572   8.993  19.366  0.00  0.00    +0.000 A 
ATOM      2  C   UNL     1       1.163  10.095  18.707  0.00  0.00    +0.000 A 
ATOM      3  C   UNL     1      -0.224  10.005  18.063  0.00  0.00    +0.000 C 
ATOM      4  O   UNL     1       1.438  11.340  19.272  0.00  0.00    +0.000 OA
ATOM      5  C   UNL     1       0.909  11.500  20.529  0.00  0.00    +0.000 A 
ATOM      6  C   UNL     1       0.635  12.784  20.963  0.00  0.00    +0.000 A 
ATOM      7  C   UNL     1      -0.288  12.934  21.987  0.00  0.00    +0.000 A 
ATOM      8  C   UNL     1      -0.985  11.835  22.520  0.00  0.00    +0.000 A 
ATOM      9  C   UNL     1      -0.516  10.545  22.207  0.00  0.00    +0.000 A 
ATOM     10  C   UNL     1       0.481  10.386  21.235  0.00  0.00    +0.000 A 
ATOM     11  C   UNL     1       1.035   9.076  20.799  0.00  0.00    +0.000 A 
ATOM     12  O   UNL     1       0.985   8.105  21.528  0.00  0.00    +0.000 OA
ENDROOT
BRANCH   7  13
ATOM     13  O   UNL     1      -0.590  14.189  22.437  0.00  0.00    +0.000 OA
ATOM     14  H   UNL     1      -0.316  14.248  23.369  0.00  0.00    +0.000 HD
ENDBRANCH   7  13
BRANCH   8  15
ATOM     15  C   UNL     1      -2.257  12.159  23.282  0.00  0.00    +0.000 C 
ATOM     16  C   UNL     1      -3.531  12.527  22.543  0.00  0.00    +0.000 C 
ENDBRANCH   8  15
BRANCH   1  17
ATOM     17  O   UNL     1       1.528   7.749  18.745  0.00  0.00    +0.000 OA
BRANCH  17  21
ATOM     18  C   UNL     1       5.204   5.750  18.523  0.00  0.00    +0.000 A 
ATOM     19  C   UNL     1       4.218   5.402  19.454  0.00  0.00    +0.000 A 
ATOM     20  C   UNL     1       2.983   6.056  19.455  0.00  0.00    +0.000 A 
ATOM     21  C   UNL     1       2.714   7.074  18.537  0.00  0.00    +0.000 A 
ATOM     22  C   UNL     1       3.632   7.324  17.515  0.00  0.00    +0.000 A 
ATOM     23  C   UNL     1       4.874   6.665  17.512  0.00  0.00    +0.000 A 
BRANCH  18  25
ATOM     24  C   UNL     1       7.703   6.275  18.517  0.00  0.00    +0.000 C 
ATOM     25  C   UNL     1       6.613   5.231  18.677  0.00  0.00    +0.000 C 
ENDBRANCH  18  25
ENDBRANCH  17  21
ENDBRANCH   1  17
TORSDOF 5
ENDMDL
MODEL 6
REMARK VINA RESULT:      -6.6      2.262      8.821
REMARK  Name = 
REMARK  8 active torsions:
REMARK  status: ('A' for Active; 'I' for Inactive)
REMARK    1  A    between atoms: C_1  and  C_2
REMARK    2  A    between atoms: C_2  and  C_3
REMARK    3  A    between atoms: C_6  and  O_7
REMARK    4  A    between atoms: O_7  and  C_8
REMARK    5  A    between atoms: C_9  and  C_10
REMARK    6  A    between atoms: C_14  and  O_15
REMARK    7  A    between atoms: C_16  and  C_17
REMARK    8  A    between atoms: C_17  and  C_18
REMARK                            x       y       z     vdW  Elec       q    Type
REMARK                         _______ _______ _______ _____ _____    ______ ____
ROOT
ATOM      1  C   UNL     1       1.557   9.058  19.394  0.00  0.00    +0.000 A 
ATOM      2  C   UNL     1       1.125  10.164  18.755  0.00  0.00    +0.000 A 
ATOM      3  C   UNL     1      -0.259  10.057  18.108  0.00  0.00    +0.000 C 
ATOM      4  O   UNL     1       1.374  11.403  19.343  0.00  0.00    +0.000 OA
ATOM      5  C   UNL     1       0.841  11.528  20.602  0.00  0.00    +0.000 A 
ATOM      6  C   UNL     1       0.539  12.798  21.060  0.00  0.00    +0.000 A 
ATOM      7  C   UNL     1      -0.387  12.909  22.085  0.00  0.00    +0.000 A 
ATOM      8  C   UNL     1      -1.062  11.786  22.597  0.00  0.00    +0.000 A 
ATOM      9  C   UNL     1      -0.566  10.513  22.261  0.00  0.00    +0.000 A 
ATOM     10  C   UNL     1       0.436  10.393  21.287  0.00  0.00    +0.000 A 
ATOM     11  C   UNL     1       1.017   9.103  20.827  0.00  0.00    +0.000 A 
ATOM     12  O   UNL     1       0.987   8.117  21.538  0.00  0.00    +0.000 OA
ENDROOT
BRANCH   7  13
ATOM     13  O   UNL     1      -0.715  14.149  22.559  0.00  0.00    +0.000 OA
ATOM     14  H   UNL     1      -1.612  14.362  22.248  0.00  0.00    +0.000 HD
ENDBRANCH   7  13
BRANCH   8  15
ATOM     15  C   UNL     1      -2.340  12.069  23.364  0.00  0.00    +0.000 C 
ATOM     16  C   UNL     1      -3.587  12.548  22.642  0.00  0.00    +0.000 C 
ENDBRANCH   8  15
BRANCH   1  17
ATOM     17  O   UNL     1       1.539   7.826  18.748  0.00  0.00    +0.000 OA
BRANCH  17  21
ATOM     18  C   UNL     1       5.044   5.669  17.961  0.00  0.00    +0.000 A 
ATOM     19  C   UNL     1       4.670   6.788  17.209  0.00  0.00    +0.000 A 
ATOM     20  C   UNL     1       3.523   7.514  17.543  0.00  0.00    +0.000 A 
ATOM     21  C   UNL     1       2.725   7.131  18.623  0.00  0.00    +0.000 A 
ATOM     22  C   UNL     1       3.170   6.109  19.464  0.00  0.00    +0.000 A 
ATOM     23  C   UNL     1       4.325   5.380  19.131  0.00  0.00    +0.000 A 
BRANCH  18  25
ATOM     24  C   UNL     1       7.498   4.970  18.068  0.00  0.00    +0.000 C 
ATOM     25  C   UNL     1       6.126   4.742  17.461  0.00  0.00    +0.000 C 
ENDBRANCH  18  25
ENDBRANCH  17  21
ENDBRANCH   1  17
TORSDOF 5
ENDMDL
MODEL 7
REMARK VINA RESULT:      -6.5      3.336      8.476
REMARK  Name = 
REMARK  8 active torsions:
REMARK  status: ('A' for Active; 'I' for Inactive)
REMARK    1  A    between atoms: C_1  and  C_2
REMARK    2  A    between atoms: C_2  and  C_3
REMARK    3  A    between atoms: C_6  and  O_7
REMARK    4  A    between atoms: O_7  and  C_8
REMARK    5  A    between atoms: C_9  and  C_10
REMARK    6  A    between atoms: C_14  and  O_15
REMARK    7  A    between atoms: C_16  and  C_17
REMARK    8  A    between atoms: C_17  and  C_18
REMARK                            x       y       z     vdW  Elec       q    Type
REMARK                         _______ _______ _______ _____ _____    ______ ____
ROOT
ATOM      1  C   UNL     1       1.190   9.028  19.419  0.00  0.00    +0.000 A 
ATOM      2  C   UNL     1       0.399   9.232  20.491  0.00  0.00    +0.000 A 
ATOM      3  C   UNL     1       1.115   9.695  21.763  0.00  0.00    +0.000 C 
ATOM      4  O   UNL     1      -0.837   9.843  20.290  0.00  0.00    +0.000 OA
ATOM      5  C   UNL     1      -0.745  11.087  19.713  0.00  0.00    +0.000 A 
ATOM      6  C   UNL     1      -1.766  11.990  19.947  0.00  0.00    +0.000 A 
ATOM      7  C   UNL     1      -1.485  13.337  19.774  0.00  0.00    +0.000 A 
ATOM      8  C   UNL     1      -0.192  13.786  19.451  0.00  0.00    +0.000 A 
ATOM      9  C   UNL     1       0.744  12.832  19.011  0.00  0.00    +0.000 A 
ATOM     10  C   UNL     1       0.437  11.467  19.098  0.00  0.00    +0.000 A 
ATOM     11  C   UNL     1       1.353  10.367  18.693  0.00  0.00    +0.000 A 
ATOM     12  O   UNL     1       2.236  10.559  17.881  0.00  0.00    +0.000 OA
ENDROOT
BRANCH   7  13
ATOM     13  O   UNL     1      -2.467  14.260  20.001  0.00  0.00    +0.000 OA
ATOM     14  H   UNL     1      -2.082  14.987  20.520  0.00  0.00    +0.000 HD
ENDBRANCH   7  13
BRANCH   8  15
ATOM     15  C   UNL     1       0.095  15.250  19.733  0.00  0.00    +0.000 C 
ATOM     16  C   UNL     1       0.064  16.275  18.614  0.00  0.00    +0.000 C 
ENDBRANCH   8  15
BRANCH   1  17
ATOM     17  O   UNL     1       2.321   8.224  19.527  0.00  0.00    +0.000 OA
BRANCH  17  21
ATOM     18  C   UNL     1       1.608   4.123  19.049  0.00  0.00    +0.000 A 
ATOM     19  C   UNL     1       2.110   4.920  18.014  0.00  0.00    +0.000 A 
ATOM     20  C   UNL     1       2.389   6.272  18.234  0.00  0.00    +0.000 A 
ATOM     21  C   UNL     1       2.162   6.854  19.484  0.00  0.00    +0.000 A 
ATOM     22  C   UNL     1       1.804   6.034  20.556  0.00  0.00    +0.000 A 
ATOM     23  C   UNL     1       1.526   4.674  20.337  0.00  0.00    +0.000 A 
BRANCH  18  25
ATOM     24  C   UNL     1       2.111   1.636  18.761  0.00  0.00    +0.000 C 
ATOM     25  C   UNL     1       1.072   2.742  18.755  0.00  0.00    +0.000 C 
ENDBRANCH  18  25
ENDBRANCH  17  21
ENDBRANCH   1  17
TORSDOF 5
ENDMDL
MODEL 8
REMARK VINA RESULT:      -6.4      4.741      9.965
REMARK  Name = 
REMARK  8 active torsions:
REMARK  status: ('A' for Active; 'I' for Inactive)
REMARK    1  A    between atoms: C_1  and  C_2
REMARK    2  A    between atoms: C_2  and  C_3
REMARK    3  A    between atoms: C_6  and  O_7
REMARK    4  A    between atoms: O_7  and  C_8
REMARK    5  A    between atoms: C_9  and  C_10
REMARK    6  A    between atoms: C_14  and  O_15
REMARK    7  A    between atoms: C_16  and  C_17
REMARK    8  A    between atoms: C_17  and  C_18
REMARK                            x       y       z     vdW  Elec       q    Type
REMARK                         _______ _______ _______ _____ _____    ______ ____
ROOT
ATOM      1  C   UNL     1      -1.032  10.990  18.937  0.00  0.00    +0.000 A 
ATOM      2  C   UNL     1      -1.233  12.202  19.491  0.00  0.00    +0.000 A 
ATOM      3  C   UNL     1      -0.930  13.401  18.589  0.00  0.00    +0.000 C 
ATOM      4  O   UNL     1      -2.355  12.378  20.299  0.00  0.00    +0.000 OA
ATOM      5  C   UNL     1      -3.540  12.116  19.655  0.00  0.00    +0.000 A 
ATOM      6  C   UNL     1      -4.684  12.740  20.117  0.00  0.00    +0.000 A 
ATOM      7  C   UNL     1      -5.752  12.856  19.241  0.00  0.00    +0.000 A 
ATOM      8  C   UNL     1      -5.660  12.429  17.903  0.00  0.00    +0.000 A 
ATOM      9  C   UNL     1      -4.572  11.610  17.549  0.00  0.00    +0.000 A 
ATOM     10  C   UNL     1      -3.526  11.413  18.461  0.00  0.00    +0.000 A 
ATOM     11  C   UNL     1      -2.312  10.597  18.190  0.00  0.00    +0.000 A 
ATOM     12  O   UNL     1      -2.329   9.713  17.357  0.00  0.00    +0.000 OA
ENDROOT
BRANCH   7  13
ATOM     13  O   UNL     1      -6.898  13.472  19.659  0.00  0.00    +0.000 OA
ATOM     14  H   UNL     1      -7.123  14.162  19.011  0.00  0.00    +0.000 HD
ENDBRANCH   7  13
BRANCH   8  15
ATOM     15  C   UNL     1      -6.689  13.005  16.948  0.00  0.00    +0.000 C 
ATOM     16  C   UNL     1      -6.680  14.483  16.599  0.00  0.00    +0.000 C 
ENDBRANCH   8  15
BRANCH   1  17
ATOM     17  O   UNL     1       0.178  10.696  18.316  0.00  0.00    +0.000 OA
BRANCH  17  21
ATOM     18  C   UNL     1       2.286   7.249  19.427  0.00  0.00    +0.000 A 
ATOM     19  C   UNL     1       2.367   7.793  18.139  0.00  0.00    +0.000 A 
ATOM     20  C   UNL     1       1.694   8.978  17.828  0.00  0.00    +0.000 A 
ATOM     21  C   UNL     1       0.920   9.633  18.790  0.00  0.00    +0.000 A 
ATOM     22  C   UNL     1       0.955   9.179  20.110  0.00  0.00    +0.000 A 
ATOM     23  C   UNL     1       1.634   7.989  20.424  0.00  0.00    +0.000 A 
BRANCH  18  25
ATOM     24  C   UNL     1       4.183   5.562  19.154  0.00  0.00    +0.000 C 
ATOM     25  C   UNL     1       2.797   5.854  19.697  0.00  0.00    +0.000 C 
ENDBRANCH  18  25
ENDBRANCH  17  21
ENDBRANCH   1  17
TORSDOF 5
ENDMDL
MODEL 9
REMARK VINA RESULT:      -6.3      3.164      8.026
REMARK  Name = 
REMARK  8 active torsions:
REMARK  status: ('A' for Active; 'I' for Inactive)
REMARK    1  A    between atoms: C_1  and  C_2
REMARK    2  A    between atoms: C_2  and  C_3
REMARK    3  A    between atoms: C_6  and  O_7
REMARK    4  A    between atoms: O_7  and  C_8
REMARK    5  A    between atoms: C_9  and  C_10
REMARK    6  A    between atoms: C_14  and  O_15
REMARK    7  A    between atoms: C_16  and  C_17
REMARK    8  A    between atoms: C_17  and  C_18
REMARK                            x       y       z     vdW  Elec       q    Type
REMARK                         _______ _______ _______ _____ _____    ______ ____
ROOT
ATOM      1  C   UNL     1       1.152   7.926  20.486  0.00  0.00    +0.000 A 
ATOM      2  C   UNL     1       0.418   8.629  21.371  0.00  0.00    +0.000 A 
ATOM      3  C   UNL     1       1.214   9.391  22.434  0.00  0.00    +0.000 C 
ATOM      4  O   UNL     1      -0.694   9.324  20.898  0.00  0.00    +0.000 OA
ATOM      5  C   UNL     1      -0.391  10.245  19.925  0.00  0.00    +0.000 A 
ATOM      6  C   UNL     1      -1.236  11.328  19.767  0.00  0.00    +0.000 A 
ATOM      7  C   UNL     1      -0.726  12.457  19.145  0.00  0.00    +0.000 A 
ATOM      8  C   UNL     1       0.624  12.540  18.756  0.00  0.00    +0.000 A 
ATOM      9  C   UNL     1       1.375  11.350  18.734  0.00  0.00    +0.000 A 
ATOM     10  C   UNL     1       0.834  10.178  19.281  0.00  0.00    +0.000 A 
ATOM     11  C   UNL     1       1.541   8.870  19.343  0.00  0.00    +0.000 A 
ATOM     12  O   UNL     1       2.438   8.609  18.566  0.00  0.00    +0.000 OA
ENDROOT
BRANCH   7  13
ATOM     13  O   UNL     1      -1.529  13.550  18.976  0.00  0.00    +0.000 OA
ATOM     14  H   UNL     1      -1.102  14.140  18.332  0.00  0.00    +0.000 HD
ENDBRANCH   7  13
BRANCH   8  15
ATOM     15  C   UNL     1       1.164  13.938  18.517  0.00  0.00    +0.000 C 
ATOM     16  C   UNL     1       1.652  14.788  19.677  0.00  0.00    +0.000 C 
ENDBRANCH   8  15
BRANCH   1  17
ATOM     17  O   UNL     1       2.126   7.039  20.934  0.00  0.00    +0.000 OA
BRANCH  17  21
ATOM     18  C   UNL     1       2.348   3.349  18.960  0.00  0.00    +0.000 A 
ATOM     19  C   UNL     1       3.430   4.235  19.012  0.00  0.00    +0.000 A 
ATOM     20  C   UNL     1       3.332   5.430  19.731  0.00  0.00    +0.000 A 
ATOM     21  C   UNL     1       2.152   5.766  20.401  0.00  0.00    +0.000 A 
ATOM     22  C   UNL     1       1.125   4.823  20.476  0.00  0.00    +0.000 A 
ATOM     23  C   UNL     1       1.224   3.620  19.756  0.00  0.00    +0.000 A 
BRANCH  18  25
ATOM     24  C   UNL     1       3.615   1.344  18.015  0.00  0.00    +0.000 C 
ATOM     25  C   UNL     1       2.357   2.192  17.990  0.00  0.00    +0.000 C 
ENDBRANCH  18  25
ENDBRANCH  17  21
ENDBRANCH   1  17
TORSDOF 5
ENDMDL
