MODEL 1
REMARK VINA RESULT:      -9.6      0.000      0.000
REMARK  Name = 
REMARK  11 active torsions:
REMARK  status: ('A' for Active; 'I' for Inactive)
REMARK    1  A    between atoms: C_1  and  C_2
REMARK    2  A    between atoms: N_5  and  C_6
REMARK    3  A    between atoms: C_6  and  C_7
REMARK    4  A    between atoms: C_6  and  C_8
REMARK    5  A    between atoms: C_12  and  O_13
REMARK    6  A    between atoms: O_13  and  C_14
REMARK    7  A    between atoms: C_14  and  C_15
REMARK    8  A    between atoms: N_17  and  C_18
REMARK    9  A    between atoms: N_17  and  C_19
REMARK   10  A    between atoms: C_22  and  C_23
REMARK   11  A    between atoms: C_29  and  C_30
REMARK                            x       y       z     vdW  Elec       q    Type
REMARK                         _______ _______ _______ _____ _____    ______ ____
ROOT
ATOM      1  C   UNL     1       1.157   2.233  18.896  0.00  0.00    +0.000 C 
ATOM      2  C   UNL     1       1.925   3.518  18.939  0.00  0.00    +0.000 A 
ATOM      3  N   UNL     1       1.441   4.523  19.697  0.00  0.00    +0.000 NA
ATOM      4  C   UNL     1       2.171   5.644  19.768  0.00  0.00    +0.000 A 
ATOM      5  N   UNL     1       1.661   6.667  20.554  0.00  0.00    +0.000 N 
ATOM      6  C   UNL     1       3.381   5.747  19.122  0.00  0.00    +0.000 A 
ATOM      7  C   UNL     1       3.777   4.709  18.307  0.00  0.00    +0.000 A 
ATOM      8  N   UNL     1       3.052   3.578  18.207  0.00  0.00    +0.000 NA
ATOM      9  H   UNL     1       0.709   6.425  20.809  0.00  0.00    +0.000 HD
ENDROOT
BRANCH   7  10
ATOM     10  C   UNL     1       4.945   4.846  17.413  0.00  0.00    +0.000 A 
ATOM     11  C   UNL     1       6.088   5.587  17.789  0.00  0.00    +0.000 A 
ATOM     12  C   UNL     1       7.142   5.853  16.902  0.00  0.00    +0.000 A 
ATOM     13  C   UNL     1       7.011   5.330  15.623  0.00  0.00    +0.000 A 
ATOM     14  O   UNL     1       7.903   5.488  14.607  0.00  0.00    +0.000 OA
ATOM     15  C   UNL     1       7.392   4.840  13.530  0.00  0.00    +0.000 A 
ATOM     16  C   UNL     1       6.175   4.263  13.830  0.00  0.00    +0.000 A 
ATOM     17  C   UNL     1       5.287   3.495  12.927  0.00  0.00    +0.000 C 
ATOM     18  C   UNL     1       5.929   4.573  15.199  0.00  0.00    +0.000 A 
ATOM     19  C   UNL     1       4.889   4.315  16.110  0.00  0.00    +0.000 A 
ENDBRANCH   7  10
BRANCH   5  20
ATOM     20  C   UNL     1       1.883   8.065  20.194  0.00  0.00    +0.000 C 
ATOM     21  C   UNL     1       1.660   8.302  18.701  0.00  0.00    +0.000 C 
BRANCH  20  22
ATOM     22  C   UNL     1       1.007   8.999  21.014  0.00  0.00    +0.000 A 
ATOM     23  C   UNL     1       0.474   8.642  22.260  0.00  0.00    +0.000 A 
ATOM     24  C   UNL     1      -0.379   9.512  22.940  0.00  0.00    +0.000 A 
ATOM     25  C   UNL     1      -0.727  10.736  22.373  0.00  0.00    +0.000 A 
ATOM     26  C   UNL     1      -0.223  11.104  21.128  0.00  0.00    +0.000 A 
ATOM     27  C   UNL     1       0.666  10.253  20.469  0.00  0.00    +0.000 A 
BRANCH  26  28
ATOM     28  O   UNL     1      -0.655  12.309  20.649  0.00  0.00    +0.000 OA
BRANCH  28  29
ATOM     29  C   UNL     1      -1.009  12.342  19.269  0.00  0.00    +0.000 C 
BRANCH  29  30
ATOM     30  C   UNL     1      -2.467  11.918  19.053  0.00  0.00    +0.000 C 
ATOM     31  O   UNL     1      -3.397  12.513  19.601  0.00  0.00    +0.000 OA
ATOM     32  N   UNL     1      -2.689  10.815  18.224  0.00  0.00    +0.000 N 
ATOM     33  C   UNL     1      -1.658  10.068  17.519  0.00  0.00    +0.000 C 
ATOM     34  C   UNL     1      -4.053  10.349  18.030  0.00  0.00    +0.000 C 
ENDBRANCH  29  30
ENDBRANCH  28  29
ENDBRANCH  26  28
ENDBRANCH  20  22
ENDBRANCH   5  20
TORSDOF 6
ENDMDL
MODEL 2
REMARK VINA RESULT:      -9.0      1.673      2.456
REMARK  Name = 
REMARK  11 active torsions:
REMARK  status: ('A' for Active; 'I' for Inactive)
REMARK    1  A    between atoms: C_1  and  C_2
REMARK    2  A    between atoms: N_5  and  C_6
REMARK    3  A    between atoms: C_6  and  C_7
REMARK    4  A    between atoms: C_6  and  C_8
REMARK    5  A    between atoms: C_12  and  O_13
REMARK    6  A    between atoms: O_13  and  C_14
REMARK    7  A    between atoms: C_14  and  C_15
REMARK    8  A    between atoms: N_17  and  C_18
REMARK    9  A    between atoms: N_17  and  C_19
REMARK   10  A    between atoms: C_22  and  C_23
REMARK   11  A    between atoms: C_29  and  C_30
REMARK                            x       y       z     vdW  Elec       q    Type
REMARK                         _______ _______ _______ _____ _____    ______ ____
ROOT
ATOM      1  C   UNL     1       1.328   2.228  19.568  0.00  0.00    +0.000 C 
ATOM      2  C   UNL     1       2.047   3.539  19.471  0.00  0.00    +0.000 A 
ATOM      3  N   UNL     1       1.548   4.590  20.152  0.00  0.00    +0.000 NA
ATOM      4  C   UNL     1       2.235   5.738  20.098  0.00  0.00    +0.000 A 
ATOM      5  N   UNL     1       1.710   6.808  20.807  0.00  0.00    +0.000 N 
ATOM      6  C   UNL     1       3.420   5.826  19.406  0.00  0.00    +0.000 A 
ATOM      7  C   UNL     1       3.831   4.733  18.673  0.00  0.00    +0.000 A 
ATOM      8  N   UNL     1       3.148   3.573  18.699  0.00  0.00    +0.000 NA
ATOM      9  H   UNL     1       0.776   6.557  21.114  0.00  0.00    +0.000 HD
ENDROOT
BRANCH   7  10
ATOM     10  C   UNL     1       4.965   4.832  17.732  0.00  0.00    +0.000 A 
ATOM     11  C   UNL     1       6.167   5.489  18.079  0.00  0.00    +0.000 A 
ATOM     12  C   UNL     1       7.197   5.721  17.155  0.00  0.00    +0.000 A 
ATOM     13  C   UNL     1       6.977   5.253  15.866  0.00  0.00    +0.000 A 
ATOM     14  O   UNL     1       7.833   5.392  14.817  0.00  0.00    +0.000 OA
ATOM     15  C   UNL     1       7.236   4.815  13.743  0.00  0.00    +0.000 A 
ATOM     16  C   UNL     1       6.000   4.302  14.080  0.00  0.00    +0.000 A 
ATOM     17  C   UNL     1       5.028   3.621  13.194  0.00  0.00    +0.000 C 
ATOM     18  C   UNL     1       5.834   4.577  15.467  0.00  0.00    +0.000 A 
ATOM     19  C   UNL     1       4.820   4.351  16.417  0.00  0.00    +0.000 A 
ENDBRANCH   7  10
BRANCH   5  20
ATOM     20  C   UNL     1       1.867   8.176  20.317  0.00  0.00    +0.000 C 
ATOM     21  C   UNL     1       1.583   8.270  18.819  0.00  0.00    +0.000 C 
BRANCH  20  22
ATOM     22  C   UNL     1       0.985   9.149  21.084  0.00  0.00    +0.000 A 
ATOM     23  C   UNL     1       0.477   8.870  22.360  0.00  0.00    +0.000 A 
ATOM     24  C   UNL     1      -0.382   9.770  22.991  0.00  0.00    +0.000 A 
ATOM     25  C   UNL     1      -0.763  10.945  22.346  0.00  0.00    +0.000 A 
ATOM     26  C   UNL     1      -0.284  11.233  21.070  0.00  0.00    +0.000 A 
ATOM     27  C   UNL     1       0.611  10.355  20.459  0.00  0.00    +0.000 A 
BRANCH  26  28
ATOM     28  O   UNL     1      -0.746  12.394  20.516  0.00  0.00    +0.000 OA
BRANCH  28  29
ATOM     29  C   UNL     1       0.034  12.930  19.450  0.00  0.00    +0.000 C 
BRANCH  29  30
ATOM     30  C   UNL     1       1.071  13.937  19.963  0.00  0.00    +0.000 C 
ATOM     31  O   UNL     1       2.087  13.568  20.555  0.00  0.00    +0.000 OA
ATOM     32  N   UNL     1       0.798  15.290  19.747  0.00  0.00    +0.000 N 
ATOM     33  C   UNL     1      -0.360  15.817  19.040  0.00  0.00    +0.000 C 
ATOM     34  C   UNL     1       1.731  16.282  20.261  0.00  0.00    +0.000 C 
ENDBRANCH  29  30
ENDBRANCH  28  29
ENDBRANCH  26  28
ENDBRANCH  20  22
ENDBRANCH   5  20
TORSDOF 6
ENDMDL
MODEL 3
REMARK VINA RESULT:      -8.8      1.489      1.788
REMARK  Name = 
REMARK  11 active torsions:
REMARK  status: ('A' for Active; 'I' for Inactive)
REMARK    1  A    between atoms: C_1  and  C_2
REMARK    2  A    between atoms: N_5  and  C_6
REMARK    3  A    between atoms: C_6  and  C_7
REMARK    4  A    between atoms: C_6  and  C_8
REMARK    5  A    between atoms: C_12  and  O_13
REMARK    6  A    between atoms: O_13  and  C_14
REMARK    7  A    between atoms: C_14  and  C_15
REMARK    8  A    between atoms: N_17  and  C_18
REMARK    9  A    between atoms: N_17  and  C_19
REMARK   10  A    between atoms: C_22  and  C_23
REMARK   11  A    between atoms: C_29  and  C_30
REMARK                            x       y       z     vdW  Elec       q    Type
REMARK                         _______ _______ _______ _____ _____    ______ ____
ROOT
ATOM      1  C   UNL     1       1.427   2.249  19.690  0.00  0.00    +0.000 C 
ATOM      2  C   UNL     1       2.101   3.580  19.560  0.00  0.00    +0.000 A 
ATOM      3  N   UNL     1       1.566   4.630  20.216  0.00  0.00    +0.000 NA
ATOM      4  C   UNL     1       2.214   5.800  20.133  0.00  0.00    +0.000 A 
ATOM      5  N   UNL     1       1.653   6.869  20.816  0.00  0.00    +0.000 N 
ATOM      6  C   UNL     1       3.395   5.910  19.437  0.00  0.00    +0.000 A 
ATOM      7  C   UNL     1       3.843   4.814  18.732  0.00  0.00    +0.000 A 
ATOM      8  N   UNL     1       3.200   3.633  18.787  0.00  0.00    +0.000 NA
ATOM      9  H   UNL     1       0.728   6.593  21.130  0.00  0.00    +0.000 HD
ENDROOT
BRANCH   7  10
ATOM     10  C   UNL     1       4.974   4.928  17.788  0.00  0.00    +0.000 A 
ATOM     11  C   UNL     1       6.151   5.638  18.115  0.00  0.00    +0.000 A 
ATOM     12  C   UNL     1       7.171   5.882  17.184  0.00  0.00    +0.000 A 
ATOM     13  C   UNL     1       6.969   5.370  15.909  0.00  0.00    +0.000 A 
ATOM     14  O   UNL     1       7.820   5.511  14.856  0.00  0.00    +0.000 OA
ATOM     15  C   UNL     1       7.245   4.883  13.799  0.00  0.00    +0.000 A 
ATOM     16  C   UNL     1       6.028   4.334  14.151  0.00  0.00    +0.000 A 
ATOM     17  C   UNL     1       5.082   3.594  13.285  0.00  0.00    +0.000 C 
ATOM     18  C   UNL     1       5.851   4.642  15.530  0.00  0.00    +0.000 A 
ATOM     19  C   UNL     1       4.846   4.405  16.486  0.00  0.00    +0.000 A 
ENDBRANCH   7  10
BRANCH   5  20
ATOM     20  C   UNL     1       1.764   8.228  20.292  0.00  0.00    +0.000 C 
ATOM     21  C   UNL     1       1.353   8.297  18.822  0.00  0.00    +0.000 C 
BRANCH  20  22
ATOM     22  C   UNL     1       0.948   9.212  21.115  0.00  0.00    +0.000 A 
ATOM     23  C   UNL     1       0.119   8.814  22.173  0.00  0.00    +0.000 A 
ATOM     24  C   UNL     1      -0.660   9.751  22.853  0.00  0.00    +0.000 A 
ATOM     25  C   UNL     1      -0.638  11.090  22.469  0.00  0.00    +0.000 A 
ATOM     26  C   UNL     1       0.165  11.505  21.409  0.00  0.00    +0.000 A 
ATOM     27  C   UNL     1       0.978  10.575  20.760  0.00  0.00    +0.000 A 
BRANCH  26  28
ATOM     28  O   UNL     1       0.086  12.833  21.095  0.00  0.00    +0.000 OA
BRANCH  28  29
ATOM     29  C   UNL     1      -0.852  13.178  20.079  0.00  0.00    +0.000 C 
BRANCH  29  30
ATOM     30  C   UNL     1      -1.727  14.365  20.502  0.00  0.00    +0.000 C 
ATOM     31  O   UNL     1      -1.295  15.519  20.489  0.00  0.00    +0.000 OA
ATOM     32  N   UNL     1      -3.027  14.074  20.923  0.00  0.00    +0.000 N 
ATOM     33  C   UNL     1      -3.630  12.749  20.950  0.00  0.00    +0.000 C 
ATOM     34  C   UNL     1      -3.875  15.164  21.379  0.00  0.00    +0.000 C 
ENDBRANCH  29  30
ENDBRANCH  28  29
ENDBRANCH  26  28
ENDBRANCH  20  22
ENDBRANCH   5  20
TORSDOF 6
ENDMDL
MODEL 4
REMARK VINA RESULT:      -8.7      1.642      1.895
REMARK  Name = 
REMARK  11 active torsions:
REMARK  status: ('A' for Active; 'I' for Inactive)
REMARK    1  A    between atoms: C_1  and  C_2
REMARK    2  A    between atoms: N_5  and  C_6
REMARK    3  A    between atoms: C_6  and  C_7
REMARK    4  A    between atoms: C_6  and  C_8
REMARK    5  A    between atoms: C_12  and  O_13
REMARK    6  A    between atoms: O_13  and  C_14
REMARK    7  A    between atoms: C_14  and  C_15
REMARK    8  A    between atoms: N_17  and  C_18
REMARK    9  A    between atoms: N_17  and  C_19
REMARK   10  A    between atoms: C_22  and  C_23
REMARK   11  A    between atoms: C_29  and  C_30
REMARK                            x       y       z     vdW  Elec       q    Type
REMARK                         _______ _______ _______ _____ _____    ______ ____
ROOT
ATOM      1  C   UNL     1       1.037   2.573  19.385  0.00  0.00    +0.000 C 
ATOM      2  C   UNL     1       1.782   3.873  19.388  0.00  0.00    +0.000 A 
ATOM      3  N   UNL     1       1.271   4.897  20.101  0.00  0.00    +0.000 NA
ATOM      4  C   UNL     1       1.980   6.033  20.138  0.00  0.00    +0.000 A 
ATOM      5  N   UNL     1       1.442   7.075  20.878  0.00  0.00    +0.000 N 
ATOM      6  C   UNL     1       3.197   6.132  19.505  0.00  0.00    +0.000 A 
ATOM      7  C   UNL     1       3.622   5.071  18.735  0.00  0.00    +0.000 A 
ATOM      8  N   UNL     1       2.918   3.924  18.670  0.00  0.00    +0.000 NA
ATOM      9  H   UNL     1       0.491   6.827  21.129  0.00  0.00    +0.000 HD
ENDROOT
BRANCH   7  10
ATOM     10  C   UNL     1       4.799   5.195  17.852  0.00  0.00    +0.000 A 
ATOM     11  C   UNL     1       5.911   5.994  18.200  0.00  0.00    +0.000 A 
ATOM     12  C   UNL     1       6.971   6.243  17.315  0.00  0.00    +0.000 A 
ATOM     13  C   UNL     1       6.878   5.641  16.067  0.00  0.00    +0.000 A 
ATOM     14  O   UNL     1       7.782   5.769  15.057  0.00  0.00    +0.000 OA
ATOM     15  C   UNL     1       7.310   5.042  14.013  0.00  0.00    +0.000 A 
ATOM     16  C   UNL     1       6.108   4.443  14.329  0.00  0.00    +0.000 A 
ATOM     17  C   UNL     1       5.261   3.594  13.461  0.00  0.00    +0.000 C 
ATOM     18  C   UNL     1       5.829   4.824  15.673  0.00  0.00    +0.000 A 
ATOM     19  C   UNL     1       4.783   4.585  16.583  0.00  0.00    +0.000 A 
ENDBRANCH   7  10
BRANCH   5  20
ATOM     20  C   UNL     1       1.645   8.463  20.468  0.00  0.00    +0.000 C 
ATOM     21  C   UNL     1       1.538   8.620  18.952  0.00  0.00    +0.000 C 
BRANCH  20  22
ATOM     22  C   UNL     1       0.674   9.400  21.167  0.00  0.00    +0.000 A 
ATOM     23  C   UNL     1       0.465   9.382  22.552  0.00  0.00    +0.000 A 
ATOM     24  C   UNL     1      -0.488  10.219  23.135  0.00  0.00    +0.000 A 
ATOM     25  C   UNL     1      -1.259  11.064  22.338  0.00  0.00    +0.000 A 
ATOM     26  C   UNL     1      -1.080  11.085  20.957  0.00  0.00    +0.000 A 
ATOM     27  C   UNL     1      -0.095  10.281  20.381  0.00  0.00    +0.000 A 
BRANCH  26  28
ATOM     28  O   UNL     1      -1.909  11.924  20.268  0.00  0.00    +0.000 OA
BRANCH  28  29
ATOM     29  C   UNL     1      -2.727  12.782  21.060  0.00  0.00    +0.000 C 
BRANCH  29  30
ATOM     30  C   UNL     1      -4.145  12.895  20.485  0.00  0.00    +0.000 C 
ATOM     31  O   UNL     1      -4.355  12.822  19.273  0.00  0.00    +0.000 OA
ATOM     32  N   UNL     1      -5.182  13.105  21.398  0.00  0.00    +0.000 N 
ATOM     33  C   UNL     1      -5.032  13.180  22.844  0.00  0.00    +0.000 C 
ATOM     34  C   UNL     1      -6.536  13.267  20.893  0.00  0.00    +0.000 C 
ENDBRANCH  29  30
ENDBRANCH  28  29
ENDBRANCH  26  28
ENDBRANCH  20  22
ENDBRANCH   5  20
TORSDOF 6
ENDMDL
MODEL 5
REMARK VINA RESULT:      -8.5      2.018      2.559
REMARK  Name = 
REMARK  11 active torsions:
REMARK  status: ('A' for Active; 'I' for Inactive)
REMARK    1  A    between atoms: C_1  and  C_2
REMARK    2  A    between atoms: N_5  and  C_6
REMARK    3  A    between atoms: C_6  and  C_7
REMARK    4  A    between atoms: C_6  and  C_8
REMARK    5  A    between atoms: C_12  and  O_13
REMARK    6  A    between atoms: O_13  and  C_14
REMARK    7  A    between atoms: C_14  and  C_15
REMARK    8  A    between atoms: N_17  and  C_18
REMARK    9  A    between atoms: N_17  and  C_19
REMARK   10  A    between atoms: C_22  and  C_23
REMARK   11  A    between atoms: C_29  and  C_30
REMARK                            x       y       z     vdW  Elec       q    Type
REMARK                         _______ _______ _______ _____ _____    ______ ____
ROOT
ATOM      1  C   UNL     1       1.191   2.501  19.890  0.00  0.00    +0.000 C 
ATOM      2  C   UNL     1       1.908   3.811  19.770  0.00  0.00    +0.000 A 
ATOM      3  N   UNL     1       1.399   4.876  20.421  0.00  0.00    +0.000 NA
ATOM      4  C   UNL     1       2.085   6.025  20.349  0.00  0.00    +0.000 A 
ATOM      5  N   UNL     1       1.550   7.110  21.027  0.00  0.00    +0.000 N 
ATOM      6  C   UNL     1       3.277   6.099  19.667  0.00  0.00    +0.000 A 
ATOM      7  C   UNL     1       3.699   4.990  18.965  0.00  0.00    +0.000 A 
ATOM      8  N   UNL     1       3.018   3.829  19.010  0.00  0.00    +0.000 NA
ATOM      9  H   UNL     1       0.613   6.863  21.329  0.00  0.00    +0.000 HD
ENDROOT
BRANCH   7  10
ATOM     10  C   UNL     1       4.843   5.069  18.034  0.00  0.00    +0.000 A 
ATOM     11  C   UNL     1       6.036   5.747  18.374  0.00  0.00    +0.000 A 
ATOM     12  C   UNL     1       7.074   5.960  17.455  0.00  0.00    +0.000 A 
ATOM     13  C   UNL     1       6.873   5.450  16.179  0.00  0.00    +0.000 A 
ATOM     14  O   UNL     1       7.740   5.564  15.136  0.00  0.00    +0.000 OA
ATOM     15  C   UNL     1       7.160   4.949  14.074  0.00  0.00    +0.000 A 
ATOM     16  C   UNL     1       5.925   4.436  14.412  0.00  0.00    +0.000 A 
ATOM     17  C   UNL     1       4.969   3.720  13.537  0.00  0.00    +0.000 C 
ATOM     18  C   UNL     1       5.740   4.752  15.789  0.00  0.00    +0.000 A 
ATOM     19  C   UNL     1       4.717   4.547  16.733  0.00  0.00    +0.000 A 
ENDBRANCH   7  10
BRANCH   5  20
ATOM     20  C   UNL     1       1.710   8.466  20.507  0.00  0.00    +0.000 C 
ATOM     21  C   UNL     1       1.351   8.543  19.024  0.00  0.00    +0.000 C 
BRANCH  20  22
ATOM     22  C   UNL     1       0.890   9.469  21.302  0.00  0.00    +0.000 A 
ATOM     23  C   UNL     1       0.157   9.116  22.443  0.00  0.00    +0.000 A 
ATOM     24  C   UNL     1      -0.633  10.063  23.097  0.00  0.00    +0.000 A 
ATOM     25  C   UNL     1      -0.717  11.364  22.606  0.00  0.00    +0.000 A 
ATOM     26  C   UNL     1      -0.011  11.732  21.463  0.00  0.00    +0.000 A 
ATOM     27  C   UNL     1       0.814  10.797  20.836  0.00  0.00    +0.000 A 
BRANCH  26  28
ATOM     28  O   UNL     1      -0.191  13.022  21.048  0.00  0.00    +0.000 OA
BRANCH  28  29
ATOM     29  C   UNL     1      -1.538  13.487  21.024  0.00  0.00    +0.000 C 
BRANCH  29  30
ATOM     30  C   UNL     1      -1.603  15.020  21.029  0.00  0.00    +0.000 C 
ATOM     31  O   UNL     1      -1.555  15.668  19.982  0.00  0.00    +0.000 OA
ATOM     32  N   UNL     1      -1.699  15.644  22.275  0.00  0.00    +0.000 N 
ATOM     33  C   UNL     1      -1.785  14.962  23.558  0.00  0.00    +0.000 C 
ATOM     34  C   UNL     1      -1.714  17.098  22.329  0.00  0.00    +0.000 C 
ENDBRANCH  29  30
ENDBRANCH  28  29
ENDBRANCH  26  28
ENDBRANCH  20  22
ENDBRANCH   5  20
TORSDOF 6
ENDMDL
MODEL 6
REMARK VINA RESULT:      -8.5      1.986      2.970
REMARK  Name = 
REMARK  11 active torsions:
REMARK  status: ('A' for Active; 'I' for Inactive)
REMARK    1  A    between atoms: C_1  and  C_2
REMARK    2  A    between atoms: N_5  and  C_6
REMARK    3  A    between atoms: C_6  and  C_7
REMARK    4  A    between atoms: C_6  and  C_8
REMARK    5  A    between atoms: C_12  and  O_13
REMARK    6  A    between atoms: O_13  and  C_14
REMARK    7  A    between atoms: C_14  and  C_15
REMARK    8  A    between atoms: N_17  and  C_18
REMARK    9  A    between atoms: N_17  and  C_19
REMARK   10  A    between atoms: C_22  and  C_23
REMARK   11  A    between atoms: C_29  and  C_30
REMARK                            x       y       z     vdW  Elec       q    Type
REMARK                         _______ _______ _______ _____ _____    ______ ____
ROOT
ATOM      1  C   UNL     1       1.514   2.452  18.973  0.00  0.00    +0.000 C 
ATOM      2  C   UNL     1       2.228   3.752  18.760  0.00  0.00    +0.000 A 
ATOM      3  N   UNL     1       1.726   4.856  19.349  0.00  0.00    +0.000 NA
ATOM      4  C   UNL     1       2.408   5.998  19.194  0.00  0.00    +0.000 A 
ATOM      5  N   UNL     1       1.880   7.124  19.808  0.00  0.00    +0.000 N 
ATOM      6  C   UNL     1       3.591   6.030  18.493  0.00  0.00    +0.000 A 
ATOM      7  C   UNL     1       4.005   4.879  17.857  0.00  0.00    +0.000 A 
ATOM      8  N   UNL     1       3.327   3.723  17.986  0.00  0.00    +0.000 NA
ATOM      9  H   UNL     1       0.948   6.896  20.138  0.00  0.00    +0.000 HD
ENDROOT
BRANCH   7  10
ATOM     10  C   UNL     1       5.137   4.899  16.908  0.00  0.00    +0.000 A 
ATOM     11  C   UNL     1       6.343   5.575  17.201  0.00  0.00    +0.000 A 
ATOM     12  C   UNL     1       7.371   5.731  16.258  0.00  0.00    +0.000 A 
ATOM     13  C   UNL     1       7.145   5.166  15.010  0.00  0.00    +0.000 A 
ATOM     14  O   UNL     1       7.998   5.221  13.951  0.00  0.00    +0.000 OA
ATOM     15  C   UNL     1       7.395   4.566  12.926  0.00  0.00    +0.000 A 
ATOM     16  C   UNL     1       6.158   4.086  13.305  0.00  0.00    +0.000 A 
ATOM     17  C   UNL     1       5.180   3.345  12.476  0.00  0.00    +0.000 C 
ATOM     18  C   UNL     1       5.997   4.468  14.667  0.00  0.00    +0.000 A 
ATOM     19  C   UNL     1       4.985   4.320  15.634  0.00  0.00    +0.000 A 
ENDBRANCH   7  10
BRANCH   5  20
ATOM     20  C   UNL     1       2.031   8.445  19.200  0.00  0.00    +0.000 C 
ATOM     21  C   UNL     1       2.210   8.347  17.686  0.00  0.00    +0.000 C 
BRANCH  20  22
ATOM     22  C   UNL     1       0.858   9.351  19.536  0.00  0.00    +0.000 A 
ATOM     23  C   UNL     1       0.086   9.990  18.556  0.00  0.00    +0.000 A 
ATOM     24  C   UNL     1      -0.938  10.865  18.921  0.00  0.00    +0.000 A 
ATOM     25  C   UNL     1      -1.187  11.129  20.267  0.00  0.00    +0.000 A 
ATOM     26  C   UNL     1      -0.420  10.519  21.257  0.00  0.00    +0.000 A 
ATOM     27  C   UNL     1       0.573   9.610  20.892  0.00  0.00    +0.000 A 
BRANCH  26  28
ATOM     28  O   UNL     1      -0.726  10.874  22.541  0.00  0.00    +0.000 OA
BRANCH  28  29
ATOM     29  C   UNL     1      -1.783  11.818  22.692  0.00  0.00    +0.000 C 
BRANCH  29  30
ATOM     30  C   UNL     1      -1.273  13.145  23.271  0.00  0.00    +0.000 C 
ATOM     31  O   UNL     1      -0.116  13.526  23.082  0.00  0.00    +0.000 OA
ATOM     32  N   UNL     1      -2.174  13.888  24.038  0.00  0.00    +0.000 N 
ATOM     33  C   UNL     1      -3.561  13.530  24.294  0.00  0.00    +0.000 C 
ATOM     34  C   UNL     1      -1.718  15.128  24.646  0.00  0.00    +0.000 C 
ENDBRANCH  29  30
ENDBRANCH  28  29
ENDBRANCH  26  28
ENDBRANCH  20  22
ENDBRANCH   5  20
TORSDOF 6
ENDMDL
MODEL 7
REMARK VINA RESULT:      -8.4      2.257      3.194
REMARK  Name = 
REMARK  11 active torsions:
REMARK  status: ('A' for Active; 'I' for Inactive)
REMARK    1  A    between atoms: C_1  and  C_2
REMARK    2  A    between atoms: N_5  and  C_6
REMARK    3  A    between atoms: C_6  and  C_7
REMARK    4  A    between atoms: C_6  and  C_8
REMARK    5  A    between atoms: C_12  and  O_13
REMARK    6  A    between atoms: O_13  and  C_14
REMARK    7  A    between atoms: C_14  and  C_15
REMARK    8  A    between atoms: N_17  and  C_18
REMARK    9  A    between atoms: N_17  and  C_19
REMARK   10  A    between atoms: C_22  and  C_23
REMARK   11  A    between atoms: C_29  and  C_30
REMARK                            x       y       z     vdW  Elec       q    Type
REMARK                         _______ _______ _______ _____ _____    ______ ____
ROOT
ATOM      1  C   UNL     1       1.428   3.136  20.063  0.00  0.00    +0.000 C 
ATOM      2  C   UNL     1       2.085   4.418  19.651  0.00  0.00    +0.000 A 
ATOM      3  N   UNL     1       1.527   5.577  20.054  0.00  0.00    +0.000 NA
ATOM      4  C   UNL     1       2.160   6.710  19.724  0.00  0.00    +0.000 A 
ATOM      5  N   UNL     1       1.574   7.893  20.149  0.00  0.00    +0.000 N 
ATOM      6  C   UNL     1       3.349   6.685  19.034  0.00  0.00    +0.000 A 
ATOM      7  C   UNL     1       3.822   5.469  18.591  0.00  0.00    +0.000 A 
ATOM      8  N   UNL     1       3.195   4.317  18.898  0.00  0.00    +0.000 NA
ATOM      9  H   UNL     1       0.649   7.678  20.506  0.00  0.00    +0.000 HD
ENDROOT
BRANCH   7  10
ATOM     10  C   UNL     1       4.964   5.391  17.657  0.00  0.00    +0.000 A 
ATOM     11  C   UNL     1       6.197   6.023  17.933  0.00  0.00    +0.000 A 
ATOM     12  C   UNL     1       7.241   6.086  16.999  0.00  0.00    +0.000 A 
ATOM     13  C   UNL     1       7.004   5.473  15.775  0.00  0.00    +0.000 A 
ATOM     14  O   UNL     1       7.870   5.437  14.726  0.00  0.00    +0.000 OA
ATOM     15  C   UNL     1       7.248   4.763  13.726  0.00  0.00    +0.000 A 
ATOM     16  C   UNL     1       5.985   4.360  14.110  0.00  0.00    +0.000 A 
ATOM     17  C   UNL     1       4.982   3.625  13.305  0.00  0.00    +0.000 C 
ATOM     18  C   UNL     1       5.828   4.813  15.451  0.00  0.00    +0.000 A 
ATOM     19  C   UNL     1       4.799   4.759  16.410  0.00  0.00    +0.000 A 
ENDBRANCH   7  10
BRANCH   5  20
ATOM     20  C   UNL     1       1.674   9.107  19.342  0.00  0.00    +0.000 C 
ATOM     21  C   UNL     1       1.750   8.782  17.850  0.00  0.00    +0.000 C 
BRANCH  20  22
ATOM     22  C   UNL     1       0.520  10.058  19.617  0.00  0.00    +0.000 A 
ATOM     23  C   UNL     1      -0.590  10.170  18.770  0.00  0.00    +0.000 A 
ATOM     24  C   UNL     1      -1.590  11.107  19.035  0.00  0.00    +0.000 A 
ATOM     25  C   UNL     1      -1.480  11.957  20.134  0.00  0.00    +0.000 A 
ATOM     26  C   UNL     1      -0.376  11.874  20.979  0.00  0.00    +0.000 A 
ATOM     27  C   UNL     1       0.600  10.906  20.739  0.00  0.00    +0.000 A 
BRANCH  26  28
ATOM     28  O   UNL     1      -0.351  12.776  22.006  0.00  0.00    +0.000 OA
BRANCH  28  29
ATOM     29  C   UNL     1      -1.612  13.085  22.595  0.00  0.00    +0.000 C 
BRANCH  29  30
ATOM     30  C   UNL     1      -1.474  14.149  23.692  0.00  0.00    +0.000 C 
ATOM     31  O   UNL     1      -0.433  14.792  23.836  0.00  0.00    +0.000 OA
ATOM     32  N   UNL     1      -2.575  14.338  24.531  0.00  0.00    +0.000 N 
ATOM     33  C   UNL     1      -3.850  13.644  24.422  0.00  0.00    +0.000 C 
ATOM     34  C   UNL     1      -2.471  15.302  25.615  0.00  0.00    +0.000 C 
ENDBRANCH  29  30
ENDBRANCH  28  29
ENDBRANCH  26  28
ENDBRANCH  20  22
ENDBRANCH   5  20
TORSDOF 6
ENDMDL
MODEL 8
REMARK VINA RESULT:      -8.3      1.177      1.254
REMARK  Name = 
REMARK  11 active torsions:
REMARK  status: ('A' for Active; 'I' for Inactive)
REMARK    1  A    between atoms: C_1  and  C_2
REMARK    2  A    between atoms: N_5  and  C_6
REMARK    3  A    between atoms: C_6  and  C_7
REMARK    4  A    between atoms: C_6  and  C_8
REMARK    5  A    between atoms: C_12  and  O_13
REMARK    6  A    between atoms: O_13  and  C_14
REMARK    7  A    between atoms: C_14  and  C_15
REMARK    8  A    between atoms: N_17  and  C_18
REMARK    9  A    between atoms: N_17  and  C_19
REMARK   10  A    between atoms: C_22  and  C_23
REMARK   11  A    between atoms: C_29  and  C_30
REMARK                            x       y       z     vdW  Elec       q    Type
REMARK                         _______ _______ _______ _____ _____    ______ ____
ROOT
ATOM      1  C   UNL     1       3.067   1.930  20.006  0.00  0.00    +0.000 C 
ATOM      2  C   UNL     1       3.420   3.295  19.500  0.00  0.00    +0.000 A 
ATOM      3  N   UNL     1       2.805   4.358  20.057  0.00  0.00    +0.000 NA
ATOM      4  C   UNL     1       3.174   5.573  19.631  0.00  0.00    +0.000 A 
ATOM      5  N   UNL     1       2.534   6.655  20.215  0.00  0.00    +0.000 N 
ATOM      6  C   UNL     1       4.167   5.726  18.692  0.00  0.00    +0.000 A 
ATOM      7  C   UNL     1       4.700   4.593  18.114  0.00  0.00    +0.000 A 
ATOM      8  N   UNL     1       4.333   3.361  18.515  0.00  0.00    +0.000 NA
ATOM      9  H   UNL     1       1.755   6.304  20.763  0.00  0.00    +0.000 HD
ENDROOT
BRANCH   7  10
ATOM     10  C   UNL     1       5.600   4.687  16.946  0.00  0.00    +0.000 A 
ATOM     11  C   UNL     1       6.792   5.445  16.982  0.00  0.00    +0.000 A 
ATOM     12  C   UNL     1       7.582   5.667  15.845  0.00  0.00    +0.000 A 
ATOM     13  C   UNL     1       7.135   5.081  14.667  0.00  0.00    +0.000 A 
ATOM     14  O   UNL     1       7.737   5.189  13.451  0.00  0.00    +0.000 OA
ATOM     15  C   UNL     1       6.976   4.489  12.572  0.00  0.00    +0.000 A 
ATOM     16  C   UNL     1       5.883   3.928  13.200  0.00  0.00    +0.000 A 
ATOM     17  C   UNL     1       4.804   3.116  12.592  0.00  0.00    +0.000 C 
ATOM     18  C   UNL     1       5.991   4.304  14.570  0.00  0.00    +0.000 A 
ATOM     19  C   UNL     1       5.220   4.091  15.728  0.00  0.00    +0.000 A 
ENDBRANCH   7  10
BRANCH   5  20
ATOM     20  C   UNL     1       2.269   7.869  19.446  0.00  0.00    +0.000 C 
ATOM     21  C   UNL     1       1.732   7.543  18.053  0.00  0.00    +0.000 C 
BRANCH  20  22
ATOM     22  C   UNL     1       1.313   8.797  20.178  0.00  0.00    +0.000 A 
ATOM     23  C   UNL     1       0.976   8.630  21.528  0.00  0.00    +0.000 A 
ATOM     24  C   UNL     1       0.041   9.471  22.133  0.00  0.00    +0.000 A 
ATOM     25  C   UNL     1      -0.584  10.471  21.392  0.00  0.00    +0.000 A 
ATOM     26  C   UNL     1      -0.277  10.644  20.044  0.00  0.00    +0.000 A 
ATOM     27  C   UNL     1       0.691   9.832  19.452  0.00  0.00    +0.000 A 
BRANCH  26  28
ATOM     28  O   UNL     1      -0.971  11.632  19.403  0.00  0.00    +0.000 OA
BRANCH  28  29
ATOM     29  C   UNL     1      -1.694  11.233  18.241  0.00  0.00    +0.000 C 
BRANCH  29  30
ATOM     30  C   UNL     1      -3.167  11.655  18.322  0.00  0.00    +0.000 C 
ATOM     31  O   UNL     1      -3.644  12.127  19.356  0.00  0.00    +0.000 OA
ATOM     32  N   UNL     1      -3.944  11.459  17.178  0.00  0.00    +0.000 N 
ATOM     33  C   UNL     1      -3.463  10.932  15.909  0.00  0.00    +0.000 C 
ATOM     34  C   UNL     1      -5.357  11.800  17.226  0.00  0.00    +0.000 C 
ENDBRANCH  29  30
ENDBRANCH  28  29
ENDBRANCH  26  28
ENDBRANCH  20  22
ENDBRANCH   5  20
TORSDOF 6
ENDMDL
MODEL 9
REMARK VINA RESULT:      -8.2      2.078      2.962
REMARK  Name = 
REMARK  11 active torsions:
REMARK  status: ('A' for Active; 'I' for Inactive)
REMARK    1  A    between atoms: C_1  and  C_2
REMARK    2  A    between atoms: N_5  and  C_6
REMARK    3  A    between atoms: C_6  and  C_7
REMARK    4  A    between atoms: C_6  and  C_8
REMARK    5  A    between atoms: C_12  and  O_13
REMARK    6  A    between atoms: O_13  and  C_14
REMARK    7  A    between atoms: C_14  and  C_15
REMARK    8  A    between atoms: N_17  and  C_18
REMARK    9  A    between atoms: N_17  and  C_19
REMARK   10  A    between atoms: C_22  and  C_23
REMARK   11  A    between atoms: C_29  and  C_30
REMARK                            x       y       z     vdW  Elec       q    Type
REMARK                         _______ _______ _______ _____ _____    ______ ____
ROOT
ATOM      1  C   UNL     1       1.108   2.809  19.204  0.00  0.00    +0.000 C 
ATOM      2  C   UNL     1       1.880   4.078  19.011  0.00  0.00    +0.000 A 
ATOM      3  N   UNL     1       1.391   5.209  19.560  0.00  0.00    +0.000 NA
ATOM      4  C   UNL     1       2.124   6.323  19.426  0.00  0.00    +0.000 A 
ATOM      5  N   UNL     1       1.609   7.476  19.999  0.00  0.00    +0.000 N 
ATOM      6  C   UNL     1       3.341   6.300  18.785  0.00  0.00    +0.000 A 
ATOM      7  C   UNL     1       3.741   5.125  18.185  0.00  0.00    +0.000 A 
ATOM      8  N   UNL     1       3.014   3.997  18.294  0.00  0.00    +0.000 NA
ATOM      9  H   UNL     1       0.654   7.288  20.285  0.00  0.00    +0.000 HD
ENDROOT
BRANCH   7  10
ATOM     10  C   UNL     1       4.919   5.090  17.294  0.00  0.00    +0.000 A 
ATOM     11  C   UNL     1       6.140   5.706  17.647  0.00  0.00    +0.000 A 
ATOM     12  C   UNL     1       7.220   5.811  16.757  0.00  0.00    +0.000 A 
ATOM     13  C   UNL     1       7.030   5.257  15.498  0.00  0.00    +0.000 A 
ATOM     14  O   UNL     1       7.936   5.269  14.483  0.00  0.00    +0.000 OA
ATOM     15  C   UNL     1       7.354   4.643  13.429  0.00  0.00    +0.000 A 
ATOM     16  C   UNL     1       6.078   4.225  13.744  0.00  0.00    +0.000 A 
ATOM     17  C   UNL     1       5.107   3.531  12.867  0.00  0.00    +0.000 C 
ATOM     18  C   UNL     1       5.868   4.615  15.098  0.00  0.00    +0.000 A 
ATOM     19  C   UNL     1       4.803   4.517  16.013  0.00  0.00    +0.000 A 
ENDBRANCH   7  10
BRANCH   5  20
ATOM     20  C   UNL     1       1.840   8.781  19.384  0.00  0.00    +0.000 C 
ATOM     21  C   UNL     1       1.963   8.670  17.864  0.00  0.00    +0.000 C 
BRANCH  20  22
ATOM     22  C   UNL     1       0.751   9.774  19.755  0.00  0.00    +0.000 A 
ATOM     23  C   UNL     1      -0.471   9.851  19.073  0.00  0.00    +0.000 A 
ATOM     24  C   UNL     1      -1.410  10.826  19.412  0.00  0.00    +0.000 A 
ATOM     25  C   UNL     1      -1.130  11.748  20.417  0.00  0.00    +0.000 A 
ATOM     26  C   UNL     1       0.086  11.702  21.096  0.00  0.00    +0.000 A 
ATOM     27  C   UNL     1       1.005  10.698  20.787  0.00  0.00    +0.000 A 
BRANCH  26  28
ATOM     28  O   UNL     1       0.272  12.673  22.039  0.00  0.00    +0.000 OA
BRANCH  28  29
ATOM     29  C   UNL     1       0.389  14.006  21.548  0.00  0.00    +0.000 C 
BRANCH  29  30
ATOM     30  C   UNL     1       1.857  14.403  21.343  0.00  0.00    +0.000 C 
ATOM     31  O   UNL     1       2.619  14.562  22.299  0.00  0.00    +0.000 OA
ATOM     32  N   UNL     1       2.282  14.596  20.026  0.00  0.00    +0.000 N 
ATOM     33  C   UNL     1       1.463  14.409  18.838  0.00  0.00    +0.000 C 
ATOM     34  C   UNL     1       3.653  15.021  19.789  0.00  0.00    +0.000 C 
ENDBRANCH  29  30
ENDBRANCH  28  29
ENDBRANCH  26  28
ENDBRANCH  20  22
ENDBRANCH   5  20
TORSDOF 6
ENDMDL
