MODEL 1
REMARK VINA RESULT:      -5.8      0.000      0.000
REMARK  Name = 
REMARK  10 active torsions:
REMARK  status: ('A' for Active; 'I' for Inactive)
REMARK    1  A    between atoms: C_1  and  C_2
REMARK    2  A    between atoms: C_2  and  C_4
REMARK    3  A    between atoms: C_4  and  C_5
REMARK    4  A    between atoms: C_5  and  C_6
REMARK    5  A    between atoms: C_7  and  C_8
REMARK    6  A    between atoms: C_7  and  C_9
REMARK    7  A    between atoms: C_9  and  C_10
REMARK    8  A    between atoms: C_10  and  C_11
REMARK    9  A    between atoms: C_12  and  C_13
REMARK   10  A    between atoms: C_12  and  C_14
REMARK                            x       y       z     vdW  Elec       q    Type
REMARK                         _______ _______ _______ _____ _____    ______ ____
ROOT
ATOM      1  C   UNL     1       4.361   4.862  16.968  0.00  0.00    +0.000 C 
ATOM      2  C   UNL     1       4.368   5.169  18.284  0.00  0.00    +0.000 C 
ATOM      3  C   UNL     1       5.340   4.568  19.268  0.00  0.00    +0.000 C 
ENDROOT
BRANCH   1   4
ATOM      4  C   UNL     1       5.293   3.924  16.255  0.00  0.00    +0.000 C 
BRANCH   4   5
ATOM      5  C   UNL     1       6.678   4.537  16.043  0.00  0.00    +0.000 C 
BRANCH   5   7
ATOM      6  C   UNL     1       6.119   3.922  13.612  0.00  0.00    +0.000 C 
ATOM      7  C   UNL     1       6.946   4.741  14.566  0.00  0.00    +0.000 C 
ATOM      8  O   UNL     1       7.795   5.525  14.143  0.00  0.00    +0.000 OA
ENDBRANCH   5   7
ENDBRANCH   4   5
ENDBRANCH   1   4
BRANCH   2   9
ATOM      9  C   UNL     1       3.372   6.133  18.927  0.00  0.00    +0.000 C 
BRANCH   9  10
ATOM     10  C   UNL     1       1.966   5.557  19.137  0.00  0.00    +0.000 C 
BRANCH  10  11
ATOM     11  C   UNL     1       1.766   4.746  20.384  0.00  0.00    +0.000 C 
ATOM     12  C   UNL     1       1.506   3.421  20.363  0.00  0.00    +0.000 C 
ATOM     13  C   UNL     1       1.391   2.610  19.097  0.00  0.00    +0.000 C 
ATOM     14  C   UNL     1       1.317   2.637  21.629  0.00  0.00    +0.000 C 
ENDBRANCH  10  11
ENDBRANCH   9  10
ENDBRANCH   2   9
TORSDOF 6
ENDMDL
MODEL 2
REMARK VINA RESULT:      -5.8      2.171      2.985
REMARK  Name = 
REMARK  10 active torsions:
REMARK  status: ('A' for Active; 'I' for Inactive)
REMARK    1  A    between atoms: C_1  and  C_2
REMARK    2  A    between atoms: C_2  and  C_4
REMARK    3  A    between atoms: C_4  and  C_5
REMARK    4  A    between atoms: C_5  and  C_6
REMARK    5  A    between atoms: C_7  and  C_8
REMARK    6  A    between atoms: C_7  and  C_9
REMARK    7  A    between atoms: C_9  and  C_10
REMARK    8  A    between atoms: C_10  and  C_11
REMARK    9  A    between atoms: C_12  and  C_13
REMARK   10  A    between atoms: C_12  and  C_14
REMARK                            x       y       z     vdW  Elec       q    Type
REMARK                         _______ _______ _______ _____ _____    ______ ____
ROOT
ATOM      1  C   UNL     1       5.890   4.450  17.997  0.00  0.00    +0.000 C 
ATOM      2  C   UNL     1       5.081   4.086  16.978  0.00  0.00    +0.000 C 
ATOM      3  C   UNL     1       5.525   4.061  15.538  0.00  0.00    +0.000 C 
ENDROOT
BRANCH   1   4
ATOM      4  C   UNL     1       7.333   4.858  17.903  0.00  0.00    +0.000 C 
BRANCH   4   5
ATOM      5  C   UNL     1       7.600   6.197  18.590  0.00  0.00    +0.000 C 
BRANCH   5   7
ATOM      6  C   UNL     1       8.174   8.618  17.952  0.00  0.00    +0.000 C 
ATOM      7  C   UNL     1       7.472   7.335  17.598  0.00  0.00    +0.000 C 
ATOM      8  O   UNL     1       6.828   7.243  16.554  0.00  0.00    +0.000 OA
ENDBRANCH   5   7
ENDBRANCH   4   5
ENDBRANCH   1   4
BRANCH   2   9
ATOM      9  C   UNL     1       3.616   3.692  17.168  0.00  0.00    +0.000 C 
BRANCH   9  10
ATOM     10  C   UNL     1       2.795   4.669  18.019  0.00  0.00    +0.000 C 
BRANCH  10  11
ATOM     11  C   UNL     1       2.536   4.251  19.437  0.00  0.00    +0.000 C 
ATOM     12  C   UNL     1       1.620   3.317  19.772  0.00  0.00    +0.000 C 
ATOM     13  C   UNL     1       0.761   2.591  18.768  0.00  0.00    +0.000 C 
ATOM     14  C   UNL     1       1.391   2.917  21.200  0.00  0.00    +0.000 C 
ENDBRANCH  10  11
ENDBRANCH   9  10
ENDBRANCH   2   9
TORSDOF 6
ENDMDL
MODEL 3
REMARK VINA RESULT:      -5.8      2.885      6.349
REMARK  Name = 
REMARK  10 active torsions:
REMARK  status: ('A' for Active; 'I' for Inactive)
REMARK    1  A    between atoms: C_1  and  C_2
REMARK    2  A    between atoms: C_2  and  C_4
REMARK    3  A    between atoms: C_4  and  C_5
REMARK    4  A    between atoms: C_5  and  C_6
REMARK    5  A    between atoms: C_7  and  C_8
REMARK    6  A    between atoms: C_7  and  C_9
REMARK    7  A    between atoms: C_9  and  C_10
REMARK    8  A    between atoms: C_10  and  C_11
REMARK    9  A    between atoms: C_12  and  C_13
REMARK   10  A    between atoms: C_12  and  C_14
REMARK                            x       y       z     vdW  Elec       q    Type
REMARK                         _______ _______ _______ _____ _____    ______ ____
ROOT
ATOM      1  C   UNL     1       3.894   5.636  19.432  0.00  0.00    +0.000 C 
ATOM      2  C   UNL     1       4.779   4.698  19.028  0.00  0.00    +0.000 C 
ATOM      3  C   UNL     1       4.368   3.374  18.434  0.00  0.00    +0.000 C 
ENDROOT
BRANCH   1   4
ATOM      4  C   UNL     1       2.396   5.559  19.350  0.00  0.00    +0.000 C 
BRANCH   4   5
ATOM      5  C   UNL     1       1.753   5.354  20.721  0.00  0.00    +0.000 C 
BRANCH   5   7
ATOM      6  C   UNL     1       0.974   2.985  20.103  0.00  0.00    +0.000 C 
ATOM      7  C   UNL     1       1.704   3.880  21.068  0.00  0.00    +0.000 C 
ATOM      8  O   UNL     1       2.220   3.415  22.084  0.00  0.00    +0.000 OA
ENDBRANCH   5   7
ENDBRANCH   4   5
ENDBRANCH   1   4
BRANCH   2   9
ATOM      9  C   UNL     1       6.293   4.861  19.157  0.00  0.00    +0.000 C 
BRANCH   9  10
ATOM     10  C   UNL     1       6.964   5.571  17.975  0.00  0.00    +0.000 C 
BRANCH  10  11
ATOM     11  C   UNL     1       7.113   4.764  16.719  0.00  0.00    +0.000 C 
ATOM     12  C   UNL     1       6.340   4.954  15.629  0.00  0.00    +0.000 C 
ATOM     13  C   UNL     1       5.248   5.991  15.548  0.00  0.00    +0.000 C 
ATOM     14  C   UNL     1       6.520   4.134  14.384  0.00  0.00    +0.000 C 
ENDBRANCH  10  11
ENDBRANCH   9  10
ENDBRANCH   2   9
TORSDOF 6
ENDMDL
MODEL 4
REMARK VINA RESULT:      -5.8      1.750      2.800
REMARK  Name = 
REMARK  10 active torsions:
REMARK  status: ('A' for Active; 'I' for Inactive)
REMARK    1  A    between atoms: C_1  and  C_2
REMARK    2  A    between atoms: C_2  and  C_4
REMARK    3  A    between atoms: C_4  and  C_5
REMARK    4  A    between atoms: C_5  and  C_6
REMARK    5  A    between atoms: C_7  and  C_8
REMARK    6  A    between atoms: C_7  and  C_9
REMARK    7  A    between atoms: C_9  and  C_10
REMARK    8  A    between atoms: C_10  and  C_11
REMARK    9  A    between atoms: C_12  and  C_13
REMARK   10  A    between atoms: C_12  and  C_14
REMARK                            x       y       z     vdW  Elec       q    Type
REMARK                         _______ _______ _______ _____ _____    ______ ____
ROOT
ATOM      1  C   UNL     1       4.901   4.466  16.283  0.00  0.00    +0.000 C 
ATOM      2  C   UNL     1       3.780   4.613  17.022  0.00  0.00    +0.000 C 
ATOM      3  C   UNL     1       3.443   5.879  17.770  0.00  0.00    +0.000 C 
ENDROOT
BRANCH   1   4
ATOM      4  C   UNL     1       5.972   5.493  16.052  0.00  0.00    +0.000 C 
BRANCH   4   5
ATOM      5  C   UNL     1       7.252   5.177  16.824  0.00  0.00    +0.000 C 
BRANCH   5   7
ATOM      6  C   UNL     1       7.258   5.668  19.346  0.00  0.00    +0.000 C 
ATOM      7  C   UNL     1       7.455   6.178  17.944  0.00  0.00    +0.000 C 
ATOM      8  O   UNL     1       7.760   7.353  17.743  0.00  0.00    +0.000 OA
ENDBRANCH   5   7
ENDBRANCH   4   5
ENDBRANCH   1   4
BRANCH   2   9
ATOM      9  C   UNL     1       2.744   3.505  17.208  0.00  0.00    +0.000 C 
BRANCH   9  10
ATOM     10  C   UNL     1       1.562   3.877  18.112  0.00  0.00    +0.000 C 
BRANCH  10  11
ATOM     11  C   UNL     1       1.369   3.022  19.331  0.00  0.00    +0.000 C 
ATOM     12  C   UNL     1       1.583   3.473  20.585  0.00  0.00    +0.000 C 
ATOM     13  C   UNL     1       2.036   4.875  20.905  0.00  0.00    +0.000 C 
ATOM     14  C   UNL     1       1.374   2.593  21.783  0.00  0.00    +0.000 C 
ENDBRANCH  10  11
ENDBRANCH   9  10
ENDBRANCH   2   9
TORSDOF 6
ENDMDL
MODEL 5
REMARK VINA RESULT:      -5.8      2.751      6.234
REMARK  Name = 
REMARK  10 active torsions:
REMARK  status: ('A' for Active; 'I' for Inactive)
REMARK    1  A    between atoms: C_1  and  C_2
REMARK    2  A    between atoms: C_2  and  C_4
REMARK    3  A    between atoms: C_4  and  C_5
REMARK    4  A    between atoms: C_5  and  C_6
REMARK    5  A    between atoms: C_7  and  C_8
REMARK    6  A    between atoms: C_7  and  C_9
REMARK    7  A    between atoms: C_9  and  C_10
REMARK    8  A    between atoms: C_10  and  C_11
REMARK    9  A    between atoms: C_12  and  C_13
REMARK   10  A    between atoms: C_12  and  C_14
REMARK                            x       y       z     vdW  Elec       q    Type
REMARK                         _______ _______ _______ _____ _____    ______ ____
ROOT
ATOM      1  C   UNL     1       3.773   5.587  19.004  0.00  0.00    +0.000 C 
ATOM      2  C   UNL     1       4.843   4.780  19.177  0.00  0.00    +0.000 C 
ATOM      3  C   UNL     1       4.737   3.280  19.292  0.00  0.00    +0.000 C 
ENDROOT
BRANCH   1   4
ATOM      4  C   UNL     1       2.336   5.167  18.874  0.00  0.00    +0.000 C 
BRANCH   4   5
ATOM      5  C   UNL     1       1.671   4.956  20.234  0.00  0.00    +0.000 C 
BRANCH   5   7
ATOM      6  C   UNL     1       1.674   2.793  21.620  0.00  0.00    +0.000 C 
ATOM      7  C   UNL     1       1.217   3.518  20.383  0.00  0.00    +0.000 C 
ATOM      8  O   UNL     1       0.515   2.949  19.547  0.00  0.00    +0.000 OA
ENDBRANCH   5   7
ENDBRANCH   4   5
ENDBRANCH   1   4
BRANCH   2   9
ATOM      9  C   UNL     1       6.274   5.299  19.306  0.00  0.00    +0.000 C 
BRANCH   9  10
ATOM     10  C   UNL     1       6.899   5.789  17.994  0.00  0.00    +0.000 C 
BRANCH  10  11
ATOM     11  C   UNL     1       6.915   4.803  16.863  0.00  0.00    +0.000 C 
ATOM     12  C   UNL     1       6.165   4.951  15.750  0.00  0.00    +0.000 C 
ATOM     13  C   UNL     1       5.235   6.115  15.516  0.00  0.00    +0.000 C 
ATOM     14  C   UNL     1       6.210   3.949  14.633  0.00  0.00    +0.000 C 
ENDBRANCH  10  11
ENDBRANCH   9  10
ENDBRANCH   2   9
TORSDOF 6
ENDMDL
MODEL 6
REMARK VINA RESULT:      -5.7      1.799      2.929
REMARK  Name = 
REMARK  10 active torsions:
REMARK  status: ('A' for Active; 'I' for Inactive)
REMARK    1  A    between atoms: C_1  and  C_2
REMARK    2  A    between atoms: C_2  and  C_4
REMARK    3  A    between atoms: C_4  and  C_5
REMARK    4  A    between atoms: C_5  and  C_6
REMARK    5  A    between atoms: C_7  and  C_8
REMARK    6  A    between atoms: C_7  and  C_9
REMARK    7  A    between atoms: C_9  and  C_10
REMARK    8  A    between atoms: C_10  and  C_11
REMARK    9  A    between atoms: C_12  and  C_13
REMARK   10  A    between atoms: C_12  and  C_14
REMARK                            x       y       z     vdW  Elec       q    Type
REMARK                         _______ _______ _______ _____ _____    ______ ____
ROOT
ATOM      1  C   UNL     1       4.030   5.171  17.794  0.00  0.00    +0.000 C 
ATOM      2  C   UNL     1       4.075   4.071  17.010  0.00  0.00    +0.000 C 
ATOM      3  C   UNL     1       4.993   3.940  15.821  0.00  0.00    +0.000 C 
ENDROOT
BRANCH   1   4
ATOM      4  C   UNL     1       4.864   6.413  17.656  0.00  0.00    +0.000 C 
BRANCH   4   5
ATOM      5  C   UNL     1       6.284   6.216  18.186  0.00  0.00    +0.000 C 
BRANCH   5   7
ATOM      6  C   UNL     1       7.892   8.158  17.697  0.00  0.00    +0.000 C 
ATOM      7  C   UNL     1       7.292   6.853  17.251  0.00  0.00    +0.000 C 
ATOM      8  O   UNL     1       7.614   6.351  16.174  0.00  0.00    +0.000 OA
ENDBRANCH   5   7
ENDBRANCH   4   5
ENDBRANCH   1   4
BRANCH   2   9
ATOM      9  C   UNL     1       3.179   2.852  17.223  0.00  0.00    +0.000 C 
BRANCH   9  10
ATOM     10  C   UNL     1       1.868   3.141  17.965  0.00  0.00    +0.000 C 
BRANCH  10  11
ATOM     11  C   UNL     1       1.732   2.529  19.328  0.00  0.00    +0.000 C 
ATOM     12  C   UNL     1       1.562   3.263  20.449  0.00  0.00    +0.000 C 
ATOM     13  C   UNL     1       1.487   4.769  20.459  0.00  0.00    +0.000 C 
ATOM     14  C   UNL     1       1.423   2.618  21.797  0.00  0.00    +0.000 C 
ENDBRANCH  10  11
ENDBRANCH   9  10
ENDBRANCH   2   9
TORSDOF 6
ENDMDL
MODEL 7
REMARK VINA RESULT:      -5.6      2.991      6.180
REMARK  Name = 
REMARK  10 active torsions:
REMARK  status: ('A' for Active; 'I' for Inactive)
REMARK    1  A    between atoms: C_1  and  C_2
REMARK    2  A    between atoms: C_2  and  C_4
REMARK    3  A    between atoms: C_4  and  C_5
REMARK    4  A    between atoms: C_5  and  C_6
REMARK    5  A    between atoms: C_7  and  C_8
REMARK    6  A    between atoms: C_7  and  C_9
REMARK    7  A    between atoms: C_9  and  C_10
REMARK    8  A    between atoms: C_10  and  C_11
REMARK    9  A    between atoms: C_12  and  C_13
REMARK   10  A    between atoms: C_12  and  C_14
REMARK                            x       y       z     vdW  Elec       q    Type
REMARK                         _______ _______ _______ _____ _____    ______ ____
ROOT
ATOM      1  C   UNL     1       2.278   6.058  19.375  0.00  0.00    +0.000 C 
ATOM      2  C   UNL     1       3.495   6.049  18.788  0.00  0.00    +0.000 C 
ATOM      3  C   UNL     1       4.701   5.377  19.395  0.00  0.00    +0.000 C 
ENDROOT
BRANCH   1   4
ATOM      4  C   UNL     1       1.897   5.409  20.674  0.00  0.00    +0.000 C 
BRANCH   4   5
ATOM      5  C   UNL     1       0.999   4.189  20.469  0.00  0.00    +0.000 C 
BRANCH   5   7
ATOM      6  C   UNL     1       2.550   2.290  19.704  0.00  0.00    +0.000 C 
ATOM      7  C   UNL     1       1.747   2.917  20.811  0.00  0.00    +0.000 C 
ATOM      8  O   UNL     1       1.709   2.399  21.927  0.00  0.00    +0.000 OA
ENDBRANCH   5   7
ENDBRANCH   4   5
ENDBRANCH   1   4
BRANCH   2   9
ATOM      9  C   UNL     1       3.794   6.747  17.461  0.00  0.00    +0.000 C 
BRANCH   9  10
ATOM     10  C   UNL     1       5.235   6.584  16.962  0.00  0.00    +0.000 C 
BRANCH  10  11
ATOM     11  C   UNL     1       5.393   6.035  15.574  0.00  0.00    +0.000 C 
ATOM     12  C   UNL     1       5.490   4.714  15.314  0.00  0.00    +0.000 C 
ATOM     13  C   UNL     1       5.449   3.646  16.378  0.00  0.00    +0.000 C 
ATOM     14  C   UNL     1       5.641   4.197  13.912  0.00  0.00    +0.000 C 
ENDBRANCH  10  11
ENDBRANCH   9  10
ENDBRANCH   2   9
TORSDOF 6
ENDMDL
MODEL 8
REMARK VINA RESULT:      -5.6      3.087      5.523
REMARK  Name = 
REMARK  10 active torsions:
REMARK  status: ('A' for Active; 'I' for Inactive)
REMARK    1  A    between atoms: C_1  and  C_2
REMARK    2  A    between atoms: C_2  and  C_4
REMARK    3  A    between atoms: C_4  and  C_5
REMARK    4  A    between atoms: C_5  and  C_6
REMARK    5  A    between atoms: C_7  and  C_8
REMARK    6  A    between atoms: C_7  and  C_9
REMARK    7  A    between atoms: C_9  and  C_10
REMARK    8  A    between atoms: C_10  and  C_11
REMARK    9  A    between atoms: C_12  and  C_13
REMARK   10  A    between atoms: C_12  and  C_14
REMARK                            x       y       z     vdW  Elec       q    Type
REMARK                         _______ _______ _______ _____ _____    ______ ____
ROOT
ATOM      1  C   UNL     1       3.401   2.967  17.603  0.00  0.00    +0.000 C 
ATOM      2  C   UNL     1       4.240   3.998  17.848  0.00  0.00    +0.000 C 
ATOM      3  C   UNL     1       5.010   4.149  19.136  0.00  0.00    +0.000 C 
ENDROOT
BRANCH   1   4
ATOM      4  C   UNL     1       3.104   1.809  18.512  0.00  0.00    +0.000 C 
BRANCH   4   5
ATOM      5  C   UNL     1       1.730   1.930  19.171  0.00  0.00    +0.000 C 
BRANCH   5   7
ATOM      6  C   UNL     1       0.937   4.024  20.431  0.00  0.00    +0.000 C 
ATOM      7  C   UNL     1       1.812   2.800  20.409  0.00  0.00    +0.000 C 
ATOM      8  O   UNL     1       2.552   2.543  21.359  0.00  0.00    +0.000 OA
ENDBRANCH   5   7
ENDBRANCH   4   5
ENDBRANCH   1   4
BRANCH   2   9
ATOM      9  C   UNL     1       4.476   5.141  16.862  0.00  0.00    +0.000 C 
BRANCH   9  10
ATOM     10  C   UNL     1       4.759   6.501  17.514  0.00  0.00    +0.000 C 
BRANCH  10  11
ATOM     11  C   UNL     1       3.731   7.569  17.283  0.00  0.00    +0.000 C 
ATOM     12  C   UNL     1       2.707   7.798  18.133  0.00  0.00    +0.000 C 
ATOM     13  C   UNL     1       2.482   7.016  19.402  0.00  0.00    +0.000 C 
ATOM     14  C   UNL     1       1.699   8.881  17.876  0.00  0.00    +0.000 C 
ENDBRANCH  10  11
ENDBRANCH   9  10
ENDBRANCH   2   9
TORSDOF 6
ENDMDL
MODEL 9
REMARK VINA RESULT:      -5.6      3.308      6.239
REMARK  Name = 
REMARK  10 active torsions:
REMARK  status: ('A' for Active; 'I' for Inactive)
REMARK    1  A    between atoms: C_1  and  C_2
REMARK    2  A    between atoms: C_2  and  C_4
REMARK    3  A    between atoms: C_4  and  C_5
REMARK    4  A    between atoms: C_5  and  C_6
REMARK    5  A    between atoms: C_7  and  C_8
REMARK    6  A    between atoms: C_7  and  C_9
REMARK    7  A    between atoms: C_9  and  C_10
REMARK    8  A    between atoms: C_10  and  C_11
REMARK    9  A    between atoms: C_12  and  C_13
REMARK   10  A    between atoms: C_12  and  C_14
REMARK                            x       y       z     vdW  Elec       q    Type
REMARK                         _______ _______ _______ _____ _____    ______ ____
ROOT
ATOM      1  C   UNL     1       1.838   3.543  18.087  0.00  0.00    +0.000 C 
ATOM      2  C   UNL     1       3.099   3.177  17.767  0.00  0.00    +0.000 C 
ATOM      3  C   UNL     1       3.722   1.879  18.215  0.00  0.00    +0.000 C 
ENDROOT
BRANCH   1   4
ATOM      4  C   UNL     1       0.845   2.754  18.892  0.00  0.00    +0.000 C 
BRANCH   4   5
ATOM      5  C   UNL     1       0.486   3.449  20.205  0.00  0.00    +0.000 C 
BRANCH   5   7
ATOM      6  C   UNL     1       2.591   4.451  21.285  0.00  0.00    +0.000 C 
ATOM      7  C   UNL     1       1.615   3.308  21.206  0.00  0.00    +0.000 C 
ATOM      8  O   UNL     1       1.752   2.317  21.923  0.00  0.00    +0.000 OA
ENDBRANCH   5   7
ENDBRANCH   4   5
ENDBRANCH   1   4
BRANCH   2   9
ATOM      9  C   UNL     1       4.044   4.052  16.945  0.00  0.00    +0.000 C 
BRANCH   9  10
ATOM     10  C   UNL     1       4.415   5.388  17.601  0.00  0.00    +0.000 C 
BRANCH  10  11
ATOM     11  C   UNL     1       5.507   5.337  18.630  0.00  0.00    +0.000 C 
ATOM     12  C   UNL     1       6.754   5.799  18.400  0.00  0.00    +0.000 C 
ATOM     13  C   UNL     1       7.190   6.417  17.095  0.00  0.00    +0.000 C 
ATOM     14  C   UNL     1       7.822   5.739  19.454  0.00  0.00    +0.000 C 
ENDBRANCH  10  11
ENDBRANCH   9  10
ENDBRANCH   2   9
TORSDOF 6
ENDMDL
