MODEL 1
REMARK VINA RESULT:      -6.8      0.000      0.000
REMARK  Name = 
REMARK  5 active torsions:
REMARK  status: ('A' for Active; 'I' for Inactive)
REMARK    1  A    between atoms: C_1  and  N_2
REMARK    2  A    between atoms: N_2  and  C_3
REMARK    3  A    between atoms: N_2  and  S_4
REMARK    4  A    between atoms: S_4  and  C_7
REMARK    5  A    between atoms: C_12  and  N_13
REMARK                            x       y       z     vdW  Elec       q    Type
REMARK                         _______ _______ _______ _____ _____    ______ ____
ROOT
ATOM      1  C   UNL     1       3.879   4.673  17.905  0.00  0.00    +0.000 A 
ATOM      2  C   UNL     1       3.595   5.991  17.524  0.00  0.00    +0.000 A 
ATOM      3  C   UNL     1       4.640   6.905  17.342  0.00  0.00    +0.000 A 
ATOM      4  C   UNL     1       5.971   6.501  17.500  0.00  0.00    +0.000 A 
ATOM      5 CL   UNL     1       7.197   7.701  17.308  0.00  0.00    +0.000 Cl
ATOM      6  C   UNL     1       6.234   5.170  17.832  0.00  0.00    +0.000 A 
ATOM      7  C   UNL     1       5.202   4.246  18.047  0.00  0.00    +0.000 A 
ENDROOT
BRANCH   1   8
ATOM      8  S   UNL     1       2.555   3.493  18.102  0.00  0.00    +0.000 S 
ATOM      9  O   UNL     1       3.107   2.192  17.799  0.00  0.00    +0.000 OA
ATOM     10  O   UNL     1       1.401   4.002  17.392  0.00  0.00    +0.000 OA
BRANCH   8  12
ATOM     11  C   UNL     1       0.794   3.417  20.144  0.00  0.00    +0.000 C 
ATOM     12  N   UNL     1       2.222   3.565  19.779  0.00  0.00    +0.000 NA
ATOM     13  C   UNL     1       3.067   2.643  20.579  0.00  0.00    +0.000 C 
ENDBRANCH   8  12
ENDBRANCH   1   8
BRANCH   6  14
ATOM     14  N   UNL     1       7.596   4.697  17.956  0.00  0.00    +0.000 N 
ATOM     15  O   UNL     1       8.160   4.866  19.044  0.00  0.00    +0.000 OA
ATOM     16  O   UNL     1       8.110   4.208  16.941  0.00  0.00    +0.000 OA
ENDBRANCH   6  14
TORSDOF 3
ENDMDL
MODEL 2
REMARK VINA RESULT:      -6.7      0.575      1.005
REMARK  Name = 
REMARK  5 active torsions:
REMARK  status: ('A' for Active; 'I' for Inactive)
REMARK    1  A    between atoms: C_1  and  N_2
REMARK    2  A    between atoms: N_2  and  C_3
REMARK    3  A    between atoms: N_2  and  S_4
REMARK    4  A    between atoms: S_4  and  C_7
REMARK    5  A    between atoms: C_12  and  N_13
REMARK                            x       y       z     vdW  Elec       q    Type
REMARK                         _______ _______ _______ _____ _____    ______ ____
ROOT
ATOM      1  C   UNL     1       3.661   4.584  17.779  0.00  0.00    +0.000 A 
ATOM      2  C   UNL     1       3.379   5.954  17.716  0.00  0.00    +0.000 A 
ATOM      3  C   UNL     1       4.424   6.875  17.572  0.00  0.00    +0.000 A 
ATOM      4  C   UNL     1       5.747   6.433  17.449  0.00  0.00    +0.000 A 
ATOM      5 CL   UNL     1       6.981   7.634  17.326  0.00  0.00    +0.000 Cl
ATOM      6  C   UNL     1       6.000   5.060  17.465  0.00  0.00    +0.000 A 
ATOM      7  C   UNL     1       4.973   4.123  17.638  0.00  0.00    +0.000 A 
ENDROOT
BRANCH   1   8
ATOM      8  S   UNL     1       2.331   3.403  17.925  0.00  0.00    +0.000 S 
ATOM      9  O   UNL     1       2.839   2.140  17.438  0.00  0.00    +0.000 OA
ATOM     10  O   UNL     1       1.143   4.003  17.357  0.00  0.00    +0.000 OA
BRANCH   8  12
ATOM     11  C   UNL     1       3.309   2.867  20.382  0.00  0.00    +0.000 C 
ATOM     12  N   UNL     1       2.109   3.282  19.618  0.00  0.00    +0.000 NA
ATOM     13  C   UNL     1       1.502   4.498  20.214  0.00  0.00    +0.000 C 
ENDBRANCH   8  12
ENDBRANCH   1   8
BRANCH   6  14
ATOM     14  N   UNL     1       7.346   4.557  17.292  0.00  0.00    +0.000 N 
ATOM     15  O   UNL     1       8.013   4.353  18.313  0.00  0.00    +0.000 OA
ATOM     16  O   UNL     1       7.744   4.423  16.128  0.00  0.00    +0.000 OA
ENDBRANCH   6  14
TORSDOF 3
ENDMDL
MODEL 3
REMARK VINA RESULT:      -6.5      0.648      1.006
REMARK  Name = 
REMARK  5 active torsions:
REMARK  status: ('A' for Active; 'I' for Inactive)
REMARK    1  A    between atoms: C_1  and  N_2
REMARK    2  A    between atoms: N_2  and  C_3
REMARK    3  A    between atoms: N_2  and  S_4
REMARK    4  A    between atoms: S_4  and  C_7
REMARK    5  A    between atoms: C_12  and  N_13
REMARK                            x       y       z     vdW  Elec       q    Type
REMARK                         _______ _______ _______ _____ _____    ______ ____
ROOT
ATOM      1  C   UNL     1       3.985   4.540  18.264  0.00  0.00    +0.000 A 
ATOM      2  C   UNL     1       3.644   5.754  17.654  0.00  0.00    +0.000 A 
ATOM      3  C   UNL     1       4.641   6.694  17.366  0.00  0.00    +0.000 A 
ATOM      4  C   UNL     1       5.983   6.413  17.647  0.00  0.00    +0.000 A 
ATOM      5 CL   UNL     1       7.144   7.645  17.308  0.00  0.00    +0.000 Cl
ATOM      6  C   UNL     1       6.306   5.177  18.211  0.00  0.00    +0.000 A 
ATOM      7  C   UNL     1       5.322   4.234  18.534  0.00  0.00    +0.000 A 
ENDROOT
BRANCH   1   8
ATOM      8  S   UNL     1       2.725   3.322  18.601  0.00  0.00    +0.000 S 
ATOM      9  O   UNL     1       3.372   2.030  18.558  0.00  0.00    +0.000 OA
ATOM     10  O   UNL     1       1.587   3.620  17.757  0.00  0.00    +0.000 OA
BRANCH   8  12
ATOM     11  C   UNL     1       1.240   4.690  20.390  0.00  0.00    +0.000 C 
ATOM     12  N   UNL     1       2.289   3.657  20.221  0.00  0.00    +0.000 NA
ATOM     13  C   UNL     1       1.953   2.438  20.998  0.00  0.00    +0.000 C 
ENDBRANCH   8  12
ENDBRANCH   1   8
BRANCH   6  14
ATOM     14  N   UNL     1       7.686   4.825  18.473  0.00  0.00    +0.000 N 
ATOM     15  O   UNL     1       8.267   4.134  17.628  0.00  0.00    +0.000 OA
ATOM     16  O   UNL     1       8.160   5.200  19.553  0.00  0.00    +0.000 OA
ENDBRANCH   6  14
TORSDOF 3
ENDMDL
MODEL 4
REMARK VINA RESULT:      -6.5      2.933      5.118
REMARK  Name = 
REMARK  5 active torsions:
REMARK  status: ('A' for Active; 'I' for Inactive)
REMARK    1  A    between atoms: C_1  and  N_2
REMARK    2  A    between atoms: N_2  and  C_3
REMARK    3  A    between atoms: N_2  and  S_4
REMARK    4  A    between atoms: S_4  and  C_7
REMARK    5  A    between atoms: C_12  and  N_13
REMARK                            x       y       z     vdW  Elec       q    Type
REMARK                         _______ _______ _______ _____ _____    ______ ____
ROOT
ATOM      1  C   UNL     1       4.931   5.191  17.526  0.00  0.00    +0.000 A 
ATOM      2  C   UNL     1       3.738   5.909  17.669  0.00  0.00    +0.000 A 
ATOM      3  C   UNL     1       2.642   5.321  18.313  0.00  0.00    +0.000 A 
ATOM      4  C   UNL     1       2.744   4.032  18.850  0.00  0.00    +0.000 A 
ATOM      5 CL   UNL     1       1.332   3.360  19.582  0.00  0.00    +0.000 Cl
ATOM      6  C   UNL     1       3.958   3.353  18.739  0.00  0.00    +0.000 A 
ATOM      7  C   UNL     1       5.058   3.912  18.074  0.00  0.00    +0.000 A 
ENDROOT
BRANCH   1   8
ATOM      8  S   UNL     1       6.343   5.948  16.740  0.00  0.00    +0.000 S 
ATOM      9  O   UNL     1       5.826   6.871  15.754  0.00  0.00    +0.000 OA
ATOM     10  O   UNL     1       7.262   4.893  16.371  0.00  0.00    +0.000 OA
BRANCH   8  12
ATOM     11  C   UNL     1       7.885   6.067  18.950  0.00  0.00    +0.000 C 
ATOM     12  N   UNL     1       7.051   6.851  18.009  0.00  0.00    +0.000 NA
ATOM     13  C   UNL     1       7.785   8.050  17.532  0.00  0.00    +0.000 C 
ENDBRANCH   8  12
ENDBRANCH   1   8
BRANCH   6  14
ATOM     14  N   UNL     1       4.123   2.039  19.323  0.00  0.00    +0.000 N 
ATOM     15  O   UNL     1       4.733   1.966  20.397  0.00  0.00    +0.000 OA
ATOM     16  O   UNL     1       3.687   1.082  18.671  0.00  0.00    +0.000 OA
ENDBRANCH   6  14
TORSDOF 3
ENDMDL
MODEL 5
REMARK VINA RESULT:      -6.4      0.949      1.005
REMARK  Name = 
REMARK  5 active torsions:
REMARK  status: ('A' for Active; 'I' for Inactive)
REMARK    1  A    between atoms: C_1  and  N_2
REMARK    2  A    between atoms: N_2  and  C_3
REMARK    3  A    between atoms: N_2  and  S_4
REMARK    4  A    between atoms: S_4  and  C_7
REMARK    5  A    between atoms: C_12  and  N_13
REMARK                            x       y       z     vdW  Elec       q    Type
REMARK                         _______ _______ _______ _____ _____    ______ ____
ROOT
ATOM      1  C   UNL     1       3.789   4.883  17.815  0.00  0.00    +0.000 A 
ATOM      2  C   UNL     1       3.571   6.260  17.683  0.00  0.00    +0.000 A 
ATOM      3  C   UNL     1       4.659   7.125  17.511  0.00  0.00    +0.000 A 
ATOM      4  C   UNL     1       5.961   6.619  17.429  0.00  0.00    +0.000 A 
ATOM      5 CL   UNL     1       7.250   7.757  17.268  0.00  0.00    +0.000 Cl
ATOM      6  C   UNL     1       6.151   5.239  17.514  0.00  0.00    +0.000 A 
ATOM      7  C   UNL     1       5.081   4.358  17.716  0.00  0.00    +0.000 A 
ENDROOT
BRANCH   1   8
ATOM      8  S   UNL     1       2.406   3.771  17.997  0.00  0.00    +0.000 S 
ATOM      9  O   UNL     1       2.269   3.066  16.742  0.00  0.00    +0.000 OA
ATOM     10  O   UNL     1       1.305   4.524  18.558  0.00  0.00    +0.000 OA
BRANCH   8  12
ATOM     11  C   UNL     1       1.996   2.394  20.281  0.00  0.00    +0.000 C 
ATOM     12  N   UNL     1       2.954   2.666  19.184  0.00  0.00    +0.000 NA
ATOM     13  C   UNL     1       3.464   1.398  18.606  0.00  0.00    +0.000 C 
ENDBRANCH   8  12
ENDBRANCH   1   8
BRANCH   6  14
ATOM     14  N   UNL     1       7.476   4.668  17.386  0.00  0.00    +0.000 N 
ATOM     15  O   UNL     1       8.109   4.461  18.427  0.00  0.00    +0.000 OA
ATOM     16  O   UNL     1       7.892   4.484  16.235  0.00  0.00    +0.000 OA
ENDBRANCH   6  14
TORSDOF 3
ENDMDL
MODEL 6
REMARK VINA RESULT:      -6.4      3.070      5.449
REMARK  Name = 
REMARK  5 active torsions:
REMARK  status: ('A' for Active; 'I' for Inactive)
REMARK    1  A    between atoms: C_1  and  N_2
REMARK    2  A    between atoms: N_2  and  C_3
REMARK    3  A    between atoms: N_2  and  S_4
REMARK    4  A    between atoms: S_4  and  C_7
REMARK    5  A    between atoms: C_12  and  N_13
REMARK                            x       y       z     vdW  Elec       q    Type
REMARK                         _______ _______ _______ _____ _____    ______ ____
ROOT
ATOM      1  C   UNL     1       4.801   4.024  17.964  0.00  0.00    +0.000 A 
ATOM      2  C   UNL     1       3.905   3.703  16.937  0.00  0.00    +0.000 A 
ATOM      3  C   UNL     1       2.632   3.211  17.250  0.00  0.00    +0.000 A 
ATOM      4  C   UNL     1       2.233   3.074  18.585  0.00  0.00    +0.000 A 
ATOM      5 CL   UNL     1       0.668   2.412  18.886  0.00  0.00    +0.000 Cl
ATOM      6  C   UNL     1       3.124   3.446  19.593  0.00  0.00    +0.000 A 
ATOM      7  C   UNL     1       4.413   3.914  19.303  0.00  0.00    +0.000 A 
ENDROOT
BRANCH   1   8
ATOM      8  S   UNL     1       6.411   4.688  17.573  0.00  0.00    +0.000 S 
ATOM      9  O   UNL     1       6.746   4.214  16.249  0.00  0.00    +0.000 OA
ATOM     10  O   UNL     1       7.279   4.435  18.703  0.00  0.00    +0.000 OA
BRANCH   8  12
ATOM     11  C   UNL     1       7.335   7.222  17.548  0.00  0.00    +0.000 C 
ATOM     12  N   UNL     1       6.122   6.373  17.490  0.00  0.00    +0.000 NA
ATOM     13  C   UNL     1       5.264   6.761  16.343  0.00  0.00    +0.000 C 
ENDBRANCH   8  12
ENDBRANCH   1   8
BRANCH   6  14
ATOM     14  N   UNL     1       2.736   3.368  20.986  0.00  0.00    +0.000 N 
ATOM     15  O   UNL     1       2.037   4.285  21.434  0.00  0.00    +0.000 OA
ATOM     16  O   UNL     1       3.183   2.414  21.635  0.00  0.00    +0.000 OA
ENDBRANCH   6  14
TORSDOF 3
ENDMDL
MODEL 7
REMARK VINA RESULT:      -6.4      1.042      1.259
REMARK  Name = 
REMARK  5 active torsions:
REMARK  status: ('A' for Active; 'I' for Inactive)
REMARK    1  A    between atoms: C_1  and  N_2
REMARK    2  A    between atoms: N_2  and  C_3
REMARK    3  A    between atoms: N_2  and  S_4
REMARK    4  A    between atoms: S_4  and  C_7
REMARK    5  A    between atoms: C_12  and  N_13
REMARK                            x       y       z     vdW  Elec       q    Type
REMARK                         _______ _______ _______ _____ _____    ______ ____
ROOT
ATOM      1  C   UNL     1       3.526   4.360  18.461  0.00  0.00    +0.000 A 
ATOM      2  C   UNL     1       3.200   5.427  17.615  0.00  0.00    +0.000 A 
ATOM      3  C   UNL     1       4.176   6.372  17.276  0.00  0.00    +0.000 A 
ATOM      4  C   UNL     1       5.487   6.237  17.746  0.00  0.00    +0.000 A 
ATOM      5 CL   UNL     1       6.617   7.472  17.325  0.00  0.00    +0.000 Cl
ATOM      6  C   UNL     1       5.802   5.139  18.548  0.00  0.00    +0.000 A 
ATOM      7  C   UNL     1       4.835   4.197  18.923  0.00  0.00    +0.000 A 
ENDROOT
BRANCH   1   8
ATOM      8  S   UNL     1       2.298   3.131  18.866  0.00  0.00    +0.000 S 
ATOM      9  O   UNL     1       2.996   1.872  19.001  0.00  0.00    +0.000 OA
ATOM     10  O   UNL     1       1.197   3.283  17.938  0.00  0.00    +0.000 OA
BRANCH   8  12
ATOM     11  C   UNL     1       2.436   2.959  21.555  0.00  0.00    +0.000 C 
ATOM     12  N   UNL     1       1.759   3.621  20.415  0.00  0.00    +0.000 NA
ATOM     13  C   UNL     1       1.756   5.094  20.590  0.00  0.00    +0.000 C 
ENDBRANCH   8  12
ENDBRANCH   1   8
BRANCH   6  14
ATOM     14  N   UNL     1       7.157   4.932  19.016  0.00  0.00    +0.000 N 
ATOM     15  O   UNL     1       7.448   5.378  20.132  0.00  0.00    +0.000 OA
ATOM     16  O   UNL     1       7.936   4.372  18.234  0.00  0.00    +0.000 OA
ENDBRANCH   6  14
TORSDOF 3
ENDMDL
MODEL 8
REMARK VINA RESULT:      -6.3      1.329      1.567
REMARK  Name = 
REMARK  5 active torsions:
REMARK  status: ('A' for Active; 'I' for Inactive)
REMARK    1  A    between atoms: C_1  and  N_2
REMARK    2  A    between atoms: N_2  and  C_3
REMARK    3  A    between atoms: N_2  and  S_4
REMARK    4  A    between atoms: S_4  and  C_7
REMARK    5  A    between atoms: C_12  and  N_13
REMARK                            x       y       z     vdW  Elec       q    Type
REMARK                         _______ _______ _______ _____ _____    ______ ____
ROOT
ATOM      1  C   UNL     1       3.623   5.367  18.745  0.00  0.00    +0.000 A 
ATOM      2  C   UNL     1       3.516   6.359  17.762  0.00  0.00    +0.000 A 
ATOM      3  C   UNL     1       4.670   6.976  17.265  0.00  0.00    +0.000 A 
ATOM      4  C   UNL     1       5.935   6.580  17.714  0.00  0.00    +0.000 A 
ATOM      5 CL   UNL     1       7.304   7.426  17.089  0.00  0.00    +0.000 Cl
ATOM      6  C   UNL     1       6.021   5.556  18.659  0.00  0.00    +0.000 A 
ATOM      7  C   UNL     1       4.878   4.945  19.191  0.00  0.00    +0.000 A 
ENDROOT
BRANCH   1   8
ATOM      8  S   UNL     1       2.159   4.551  19.356  0.00  0.00    +0.000 S 
ATOM      9  O   UNL     1       1.344   4.238  18.204  0.00  0.00    +0.000 OA
ATOM     10  O   UNL     1       1.638   5.340  20.452  0.00  0.00    +0.000 OA
BRANCH   8  12
ATOM     11  C   UNL     1       2.329   2.770  21.376  0.00  0.00    +0.000 C 
ATOM     12  N   UNL     1       2.774   3.089  19.999  0.00  0.00    +0.000 NA
ATOM     13  C   UNL     1       2.568   1.926  19.100  0.00  0.00    +0.000 C 
ENDBRANCH   8  12
ENDBRANCH   1   8
BRANCH   6  14
ATOM     14  N   UNL     1       7.311   5.081  19.115  0.00  0.00    +0.000 N 
ATOM     15  O   UNL     1       7.674   5.421  20.247  0.00  0.00    +0.000 OA
ATOM     16  O   UNL     1       7.974   4.414  18.310  0.00  0.00    +0.000 OA
ENDBRANCH   6  14
TORSDOF 3
ENDMDL
MODEL 9
REMARK VINA RESULT:      -6.3      2.939      4.937
REMARK  Name = 
REMARK  5 active torsions:
REMARK  status: ('A' for Active; 'I' for Inactive)
REMARK    1  A    between atoms: C_1  and  N_2
REMARK    2  A    between atoms: N_2  and  C_3
REMARK    3  A    between atoms: N_2  and  S_4
REMARK    4  A    between atoms: S_4  and  C_7
REMARK    5  A    between atoms: C_12  and  N_13
REMARK                            x       y       z     vdW  Elec       q    Type
REMARK                         _______ _______ _______ _____ _____    ______ ____
ROOT
ATOM      1  C   UNL     1       4.526   5.359  17.190  0.00  0.00    +0.000 A 
ATOM      2  C   UNL     1       3.907   6.442  17.825  0.00  0.00    +0.000 A 
ATOM      3  C   UNL     1       3.103   6.224  18.951  0.00  0.00    +0.000 A 
ATOM      4  C   UNL     1       2.944   4.934  19.470  0.00  0.00    +0.000 A 
ATOM      5 CL   UNL     1       1.896   4.744  20.827  0.00  0.00    +0.000 Cl
ATOM      6  C   UNL     1       3.610   3.875  18.849  0.00  0.00    +0.000 A 
ATOM      7  C   UNL     1       4.396   4.066  17.705  0.00  0.00    +0.000 A 
ENDROOT
BRANCH   1   8
ATOM      8  S   UNL     1       5.582   5.634  15.778  0.00  0.00    +0.000 S 
ATOM      9  O   UNL     1       5.190   6.901  15.204  0.00  0.00    +0.000 OA
ATOM     10  O   UNL     1       5.587   4.421  14.987  0.00  0.00    +0.000 OA
BRANCH   8  12
ATOM     11  C   UNL     1       7.307   7.033  17.309  0.00  0.00    +0.000 C 
ATOM     12  N   UNL     1       7.130   5.814  16.485  0.00  0.00    +0.000 NA
ATOM     13  C   UNL     1       7.574   4.609  17.229  0.00  0.00    +0.000 C 
ENDBRANCH   8  12
ENDBRANCH   1   8
BRANCH   6  14
ATOM     14  N   UNL     1       3.514   2.532  19.382  0.00  0.00    +0.000 N 
ATOM     15  O   UNL     1       2.584   1.825  18.978  0.00  0.00    +0.000 OA
ATOM     16  O   UNL     1       4.344   2.215  20.245  0.00  0.00    +0.000 OA
ENDBRANCH   6  14
TORSDOF 3
ENDMDL
