MODEL 1
REMARK VINA RESULT:      -6.7      0.000      0.000
REMARK  Name = 
REMARK  11 active torsions:
REMARK  status: ('A' for Active; 'I' for Inactive)
REMARK    1  A    between atoms: C_1  and  N_2
REMARK    2  A    between atoms: N_2  and  C_3
REMARK    3  A    between atoms: N_2  and  C_4
REMARK    4  A    between atoms: C_4  and  C_5
REMARK    5  A    between atoms: C_5  and  C_6
REMARK    6  A    between atoms: C_6  and  O_7
REMARK    7  A    between atoms: O_7  and  C_8
REMARK    8  A    between atoms: C_11  and  C_12
REMARK    9  A    between atoms: C_12  and  N_13
REMARK   10  A    between atoms: C_16  and  N_17
REMARK   11  A    between atoms: C_18  and  C_20
REMARK                            x       y       z     vdW  Elec       q    Type
REMARK                         _______ _______ _______ _____ _____    ______ ____
ROOT
ATOM      1  N   UNL     1       4.975   3.703  17.835  0.00  0.00    +0.000 NA
ATOM      2  C   UNL     1       4.903   4.349  19.146  0.00  0.00    +0.000 C 
ATOM      3  C   UNL     1       3.607   4.072  19.900  0.00  0.00    +0.000 C 
ATOM      4  C   UNL     1       2.372   4.389  19.056  0.00  0.00    +0.000 C 
ATOM      5  C   UNL     1       2.445   3.560  17.774  0.00  0.00    +0.000 C 
ATOM      6  C   UNL     1       3.756   3.764  17.003  0.00  0.00    +0.000 C 
ENDROOT
BRANCH   4   7
ATOM      7  N   UNL     1       2.189   5.828  18.790  0.00  0.00    +0.000 N 
ATOM      8  C   UNL     1       1.765   6.691  19.778  0.00  0.00    +0.000 C 
ATOM      9  O   UNL     1       1.502   6.335  20.930  0.00  0.00    +0.000 OA
ATOM     10  H   UNL     1       2.347   6.172  17.856  0.00  0.00    +0.000 HD
BRANCH   8  11
ATOM     11  C   UNL     1       1.634   8.132  19.438  0.00  0.00    +0.000 A 
ATOM     12  C   UNL     1       2.155   8.573  18.210  0.00  0.00    +0.000 A 
ATOM     13  C   UNL     1       2.135   9.928  17.874  0.00  0.00    +0.000 A 
ATOM     14  C   UNL     1       1.601  10.857  18.772  0.00  0.00    +0.000 A 
ATOM     15 CL   UNL     1       1.627  12.521  18.310  0.00  0.00    +0.000 Cl
ATOM     16  C   UNL     1       1.085  10.422  20.000  0.00  0.00    +0.000 A 
ATOM     17 CL   UNL     1       0.451  11.523  21.173  0.00  0.00    +0.000 Cl
ATOM     18  C   UNL     1       1.094   9.062  20.334  0.00  0.00    +0.000 A 
ENDBRANCH   8  11
ENDBRANCH   4   7
BRANCH   1  19
ATOM     19  C   UNL     1       6.169   4.137  17.071  0.00  0.00    +0.000 C 
BRANCH  19  23
ATOM     20  C   UNL     1       7.426   8.241  17.741  0.00  0.00    +0.000 A 
ATOM     21  C   UNL     1       6.354   7.921  16.919  0.00  0.00    +0.000 A 
ATOM     22  C   UNL     1       5.939   6.637  16.715  0.00  0.00    +0.000 A 
ATOM     23  C   UNL     1       6.608   5.572  17.320  0.00  0.00    +0.000 A 
ATOM     24  C   UNL     1       7.686   5.876  18.170  0.00  0.00    +0.000 A 
ATOM     25  C   UNL     1       8.113   7.204  18.396  0.00  0.00    +0.000 A 
BRANCH  20  26
ATOM     26  O   UNL     1       7.840   9.534  17.920  0.00  0.00    +0.000 OA
BRANCH  26  27
ATOM     27  C   UNL     1       8.945   9.651  18.839  0.00  0.00    +0.000 C 
BRANCH  27  28
ATOM     28  C   UNL     1       9.680  10.909  18.483  0.00  0.00    +0.000 C 
BRANCH  28  29
ATOM     29  C   UNL     1       9.472  12.010  19.522  0.00  0.00    +0.000 C 
BRANCH  29  31
ATOM     30  C   UNL     1       8.734  14.260  19.943  0.00  0.00    +0.000 C 
ATOM     31  N   UNL     1       9.076  13.286  18.905  0.00  0.00    +0.000 NA
ATOM     32  C   UNL     1      10.141  13.827  18.059  0.00  0.00    +0.000 C 
ENDBRANCH  29  31
ENDBRANCH  28  29
ENDBRANCH  27  28
ENDBRANCH  26  27
ENDBRANCH  20  26
ENDBRANCH  19  23
ENDBRANCH   1  19
TORSDOF 9
ENDMDL
MODEL 2
REMARK VINA RESULT:      -6.5      4.654      7.822
REMARK  Name = 
REMARK  11 active torsions:
REMARK  status: ('A' for Active; 'I' for Inactive)
REMARK    1  A    between atoms: C_1  and  N_2
REMARK    2  A    between atoms: N_2  and  C_3
REMARK    3  A    between atoms: N_2  and  C_4
REMARK    4  A    between atoms: C_4  and  C_5
REMARK    5  A    between atoms: C_5  and  C_6
REMARK    6  A    between atoms: C_6  and  O_7
REMARK    7  A    between atoms: O_7  and  C_8
REMARK    8  A    between atoms: C_11  and  C_12
REMARK    9  A    between atoms: C_12  and  N_13
REMARK   10  A    between atoms: C_16  and  N_17
REMARK   11  A    between atoms: C_18  and  C_20
REMARK                            x       y       z     vdW  Elec       q    Type
REMARK                         _______ _______ _______ _____ _____    ______ ____
ROOT
ATOM      1  N   UNL     1       0.989   9.960  20.137  0.00  0.00    +0.000 NA
ATOM      2  C   UNL     1      -0.145   9.936  19.212  0.00  0.00    +0.000 C 
ATOM      3  C   UNL     1      -0.396  11.265  18.509  0.00  0.00    +0.000 C 
ATOM      4  C   UNL     1      -0.511  12.425  19.498  0.00  0.00    +0.000 C 
ATOM      5  C   UNL     1       0.775  12.479  20.322  0.00  0.00    +0.000 C 
ATOM      6  C   UNL     1       1.101  11.147  21.009  0.00  0.00    +0.000 C 
ENDROOT
BRANCH   4   7
ATOM      7  N   UNL     1      -1.721  12.370  20.340  0.00  0.00    +0.000 N 
ATOM      8  C   UNL     1      -2.365  13.519  20.747  0.00  0.00    +0.000 C 
ATOM      9  O   UNL     1      -1.983  14.656  20.455  0.00  0.00    +0.000 OA
ATOM     10  H   UNL     1      -2.057  11.471  20.645  0.00  0.00    +0.000 HD
BRANCH   8  11
ATOM     11  C   UNL     1      -3.595  13.377  21.567  0.00  0.00    +0.000 A 
ATOM     12  C   UNL     1      -3.452  13.073  22.930  0.00  0.00    +0.000 A 
ATOM     13  C   UNL     1      -4.573  12.847  23.732  0.00  0.00    +0.000 A 
ATOM     14  C   UNL     1      -5.851  12.913  23.169  0.00  0.00    +0.000 A 
ATOM     15 CL   UNL     1      -7.198  12.600  24.205  0.00  0.00    +0.000 Cl
ATOM     16  C   UNL     1      -5.999  13.211  21.808  0.00  0.00    +0.000 A 
ATOM     17 CL   UNL     1      -7.548  13.266  21.042  0.00  0.00    +0.000 Cl
ATOM     18  C   UNL     1      -4.876  13.450  21.006  0.00  0.00    +0.000 A 
ENDBRANCH   8  11
ENDBRANCH   4   7
BRANCH   1  19
ATOM     19  C   UNL     1       1.089   8.706  20.920  0.00  0.00    +0.000 C 
BRANCH  19  23
ATOM     20  C   UNL     1       2.785   5.310  18.809  0.00  0.00    +0.000 A 
ATOM     21  C   UNL     1       2.083   5.166  19.998  0.00  0.00    +0.000 A 
ATOM     22  C   UNL     1       1.531   6.223  20.661  0.00  0.00    +0.000 A 
ATOM     23  C   UNL     1       1.675   7.520  20.169  0.00  0.00    +0.000 A 
ATOM     24  C   UNL     1       2.369   7.687  18.957  0.00  0.00    +0.000 A 
ATOM     25  C   UNL     1       2.933   6.595  18.259  0.00  0.00    +0.000 A 
BRANCH  20  26
ATOM     26  O   UNL     1       3.349   4.239  18.166  0.00  0.00    +0.000 OA
BRANCH  26  27
ATOM     27  C   UNL     1       4.741   4.054  18.490  0.00  0.00    +0.000 C 
BRANCH  27  28
ATOM     28  C   UNL     1       5.517   4.257  17.222  0.00  0.00    +0.000 C 
BRANCH  28  29
ATOM     29  C   UNL     1       6.949   4.716  17.492  0.00  0.00    +0.000 C 
BRANCH  29  31
ATOM     30  C   UNL     1       7.944   5.815  19.387  0.00  0.00    +0.000 C 
ATOM     31  N   UNL     1       6.993   5.957  18.282  0.00  0.00    +0.000 NA
ATOM     32  C   UNL     1       7.370   7.105  17.457  0.00  0.00    +0.000 C 
ENDBRANCH  29  31
ENDBRANCH  28  29
ENDBRANCH  27  28
ENDBRANCH  26  27
ENDBRANCH  20  26
ENDBRANCH  19  23
ENDBRANCH   1  19
TORSDOF 9
ENDMDL
MODEL 3
REMARK VINA RESULT:      -6.5      5.268      9.080
REMARK  Name = 
REMARK  11 active torsions:
REMARK  status: ('A' for Active; 'I' for Inactive)
REMARK    1  A    between atoms: C_1  and  N_2
REMARK    2  A    between atoms: N_2  and  C_3
REMARK    3  A    between atoms: N_2  and  C_4
REMARK    4  A    between atoms: C_4  and  C_5
REMARK    5  A    between atoms: C_5  and  C_6
REMARK    6  A    between atoms: C_6  and  O_7
REMARK    7  A    between atoms: O_7  and  C_8
REMARK    8  A    between atoms: C_11  and  C_12
REMARK    9  A    between atoms: C_12  and  N_13
REMARK   10  A    between atoms: C_16  and  N_17
REMARK   11  A    between atoms: C_18  and  C_20
REMARK                            x       y       z     vdW  Elec       q    Type
REMARK                         _______ _______ _______ _____ _____    ______ ____
ROOT
ATOM      1  N   UNL     1      -0.553  10.497  18.450  0.00  0.00    +0.000 NA
ATOM      2  C   UNL     1      -1.778   9.723  18.659  0.00  0.00    +0.000 C 
ATOM      3  C   UNL     1      -2.897  10.064  17.681  0.00  0.00    +0.000 C 
ATOM      4  C   UNL     1      -3.188  11.564  17.639  0.00  0.00    +0.000 C 
ATOM      5  C   UNL     1      -1.896  12.290  17.264  0.00  0.00    +0.000 C 
ATOM      6  C   UNL     1      -0.723  11.941  18.189  0.00  0.00    +0.000 C 
ENDROOT
BRANCH   4   7
ATOM      7  N   UNL     1      -3.791  12.086  18.880  0.00  0.00    +0.000 N 
ATOM      8  C   UNL     1      -5.158  12.101  19.061  0.00  0.00    +0.000 C 
ATOM      9  O   UNL     1      -5.963  11.698  18.217  0.00  0.00    +0.000 OA
ATOM     10  H   UNL     1      -3.185  12.468  19.589  0.00  0.00    +0.000 HD
BRANCH   8  11
ATOM     11  C   UNL     1      -5.685  12.614  20.352  0.00  0.00    +0.000 A 
ATOM     12  C   UNL     1      -6.929  13.267  20.347  0.00  0.00    +0.000 A 
ATOM     13  C   UNL     1      -7.436  13.841  21.515  0.00  0.00    +0.000 A 
ATOM     14  C   UNL     1      -6.694  13.776  22.698  0.00  0.00    +0.000 A 
ATOM     15 CL   UNL     1      -7.361  14.527  24.103  0.00  0.00    +0.000 Cl
ATOM     16  C   UNL     1      -5.450  13.131  22.705  0.00  0.00    +0.000 A 
ATOM     17 CL   UNL     1      -4.463  13.054  24.123  0.00  0.00    +0.000 Cl
ATOM     18  C   UNL     1      -4.945  12.545  21.538  0.00  0.00    +0.000 A 
ENDBRANCH   8  11
ENDBRANCH   4   7
BRANCH   1  19
ATOM     19  C   UNL     1       0.440  10.258  19.524  0.00  0.00    +0.000 C 
BRANCH  19  23
ATOM     20  C   UNL     1       2.827   6.652  19.110  0.00  0.00    +0.000 A 
ATOM     21  C   UNL     1       2.084   6.920  20.252  0.00  0.00    +0.000 A 
ATOM     22  C   UNL     1       1.317   8.041  20.387  0.00  0.00    +0.000 A 
ATOM     23  C   UNL     1       1.269   8.992  19.367  0.00  0.00    +0.000 A 
ATOM     24  C   UNL     1       2.001   8.732  18.194  0.00  0.00    +0.000 A 
ATOM     25  C   UNL     1       2.788   7.568  18.044  0.00  0.00    +0.000 A 
BRANCH  20  26
ATOM     26  O   UNL     1       3.606   5.531  19.000  0.00  0.00    +0.000 OA
BRANCH  26  27
ATOM     27  C   UNL     1       3.390   4.812  17.769  0.00  0.00    +0.000 C 
BRANCH  27  28
ATOM     28  C   UNL     1       2.101   4.059  17.923  0.00  0.00    +0.000 C 
BRANCH  28  29
ATOM     29  C   UNL     1       2.320   2.655  18.484  0.00  0.00    +0.000 C 
BRANCH  29  31
ATOM     30  C   UNL     1       2.969   2.626  20.800  0.00  0.00    +0.000 C 
ATOM     31  N   UNL     1       1.842   2.532  19.870  0.00  0.00    +0.000 NA
ATOM     32  C   UNL     1       0.857   3.567  20.191  0.00  0.00    +0.000 C 
ENDBRANCH  29  31
ENDBRANCH  28  29
ENDBRANCH  27  28
ENDBRANCH  26  27
ENDBRANCH  20  26
ENDBRANCH  19  23
ENDBRANCH   1  19
TORSDOF 9
ENDMDL
MODEL 4
REMARK VINA RESULT:      -6.5      5.348      8.825
REMARK  Name = 
REMARK  11 active torsions:
REMARK  status: ('A' for Active; 'I' for Inactive)
REMARK    1  A    between atoms: C_1  and  N_2
REMARK    2  A    between atoms: N_2  and  C_3
REMARK    3  A    between atoms: N_2  and  C_4
REMARK    4  A    between atoms: C_4  and  C_5
REMARK    5  A    between atoms: C_5  and  C_6
REMARK    6  A    between atoms: C_6  and  O_7
REMARK    7  A    between atoms: O_7  and  C_8
REMARK    8  A    between atoms: C_11  and  C_12
REMARK    9  A    between atoms: C_12  and  N_13
REMARK   10  A    between atoms: C_16  and  N_17
REMARK   11  A    between atoms: C_18  and  C_20
REMARK                            x       y       z     vdW  Elec       q    Type
REMARK                         _______ _______ _______ _____ _____    ______ ____
ROOT
ATOM      1  N   UNL     1       2.469   6.177  19.001  0.00  0.00    +0.000 NA
ATOM      2  C   UNL     1       1.806   5.137  18.213  0.00  0.00    +0.000 C 
ATOM      3  C   UNL     1       2.304   3.726  18.510  0.00  0.00    +0.000 C 
ATOM      4  C   UNL     1       3.826   3.620  18.402  0.00  0.00    +0.000 C 
ATOM      5  C   UNL     1       4.445   4.631  19.367  0.00  0.00    +0.000 C 
ATOM      6  C   UNL     1       3.935   6.061  19.143  0.00  0.00    +0.000 C 
ENDROOT
BRANCH   4   7
ATOM      7  N   UNL     1       4.334   3.766  17.025  0.00  0.00    +0.000 N 
ATOM      8  C   UNL     1       5.653   4.085  16.778  0.00  0.00    +0.000 C 
ATOM      9  O   UNL     1       6.487   4.279  17.667  0.00  0.00    +0.000 OA
ATOM     10  H   UNL     1       3.690   3.660  16.258  0.00  0.00    +0.000 HD
BRANCH   8  11
ATOM     11  C   UNL     1       6.094   4.183  15.363  0.00  0.00    +0.000 A 
ATOM     12  C   UNL     1       7.263   4.909  15.082  0.00  0.00    +0.000 A 
ATOM     13  C   UNL     1       7.680   5.104  13.763  0.00  0.00    +0.000 A 
ATOM     14  C   UNL     1       6.921   4.580  12.712  0.00  0.00    +0.000 A 
ATOM     15 CL   UNL     1       7.475   4.876  11.102  0.00  0.00    +0.000 Cl
ATOM     16  C   UNL     1       5.752   3.860  12.988  0.00  0.00    +0.000 A 
ATOM     17 CL   UNL     1       4.745   3.225  11.733  0.00  0.00    +0.000 Cl
ATOM     18  C   UNL     1       5.338   3.654  14.310  0.00  0.00    +0.000 A 
ENDBRANCH   8  11
ENDBRANCH   4   7
BRANCH   1  19
ATOM     19  C   UNL     1       2.079   7.537  18.558  0.00  0.00    +0.000 C 
BRANCH  19  23
ATOM     20  C   UNL     1       0.604  10.166  21.686  0.00  0.00    +0.000 A 
ATOM     21  C   UNL     1       0.560  10.517  20.343  0.00  0.00    +0.000 A 
ATOM     22  C   UNL     1       1.004   9.692  19.351  0.00  0.00    +0.000 A 
ATOM     23  C   UNL     1       1.554   8.447  19.658  0.00  0.00    +0.000 A 
ATOM     24  C   UNL     1       1.593   8.065  21.012  0.00  0.00    +0.000 A 
ATOM     25  C   UNL     1       1.123   8.909  22.043  0.00  0.00    +0.000 A 
BRANCH  20  26
ATOM     26  O   UNL     1       0.170  11.014  22.671  0.00  0.00    +0.000 OA
BRANCH  26  27
ATOM     27  C   UNL     1      -1.253  10.947  22.887  0.00  0.00    +0.000 C 
BRANCH  27  28
ATOM     28  C   UNL     1      -1.754  12.360  22.956  0.00  0.00    +0.000 C 
BRANCH  28  29
ATOM     29  C   UNL     1      -3.144  12.446  23.583  0.00  0.00    +0.000 C 
BRANCH  29  31
ATOM     30  C   UNL     1      -5.439  12.977  23.095  0.00  0.00    +0.000 C 
ATOM     31  N   UNL     1      -4.212  12.371  22.573  0.00  0.00    +0.000 NA
ATOM     32  C   UNL     1      -3.825  13.043  21.332  0.00  0.00    +0.000 C 
ENDBRANCH  29  31
ENDBRANCH  28  29
ENDBRANCH  27  28
ENDBRANCH  26  27
ENDBRANCH  20  26
ENDBRANCH  19  23
ENDBRANCH   1  19
TORSDOF 9
ENDMDL
MODEL 5
REMARK VINA RESULT:      -6.5      6.003     11.141
REMARK  Name = 
REMARK  11 active torsions:
REMARK  status: ('A' for Active; 'I' for Inactive)
REMARK    1  A    between atoms: C_1  and  N_2
REMARK    2  A    between atoms: N_2  and  C_3
REMARK    3  A    between atoms: N_2  and  C_4
REMARK    4  A    between atoms: C_4  and  C_5
REMARK    5  A    between atoms: C_5  and  C_6
REMARK    6  A    between atoms: C_6  and  O_7
REMARK    7  A    between atoms: O_7  and  C_8
REMARK    8  A    between atoms: C_11  and  C_12
REMARK    9  A    between atoms: C_12  and  N_13
REMARK   10  A    between atoms: C_16  and  N_17
REMARK   11  A    between atoms: C_18  and  C_20
REMARK                            x       y       z     vdW  Elec       q    Type
REMARK                         _______ _______ _______ _____ _____    ______ ____
ROOT
ATOM      1  N   UNL     1      -0.261  11.827  20.802  0.00  0.00    +0.000 NA
ATOM      2  C   UNL     1       1.182  11.657  20.623  0.00  0.00    +0.000 C 
ATOM      3  C   UNL     1       1.618  11.581  19.163  0.00  0.00    +0.000 C 
ATOM      4  C   UNL     1       0.833  10.524  18.384  0.00  0.00    +0.000 C 
ATOM      5  C   UNL     1      -0.654  10.858  18.492  0.00  0.00    +0.000 C 
ATOM      6  C   UNL     1      -1.132  10.998  19.943  0.00  0.00    +0.000 C 
ENDROOT
BRANCH   4   7
ATOM      7  N   UNL     1       1.134   9.140  18.794  0.00  0.00    +0.000 N 
ATOM      8  C   UNL     1       2.107   8.399  18.157  0.00  0.00    +0.000 C 
ATOM      9  O   UNL     1       2.777   8.821  17.211  0.00  0.00    +0.000 OA
ATOM     10  H   UNL     1       0.590   8.725  19.534  0.00  0.00    +0.000 HD
BRANCH   8  11
ATOM     11  C   UNL     1       2.371   7.022  18.650  0.00  0.00    +0.000 A 
ATOM     12  C   UNL     1       2.001   6.708  19.968  0.00  0.00    +0.000 A 
ATOM     13  C   UNL     1       2.299   5.457  20.512  0.00  0.00    +0.000 A 
ATOM     14  C   UNL     1       2.982   4.511  19.741  0.00  0.00    +0.000 A 
ATOM     15 CL   UNL     1       3.344   2.991  20.477  0.00  0.00    +0.000 Cl
ATOM     16  C   UNL     1       3.357   4.822  18.428  0.00  0.00    +0.000 A 
ATOM     17 CL   UNL     1       4.241   3.714  17.438  0.00  0.00    +0.000 Cl
ATOM     18  C   UNL     1       3.049   6.073  17.877  0.00  0.00    +0.000 A 
ENDBRANCH   8  11
ENDBRANCH   4   7
BRANCH   1  19
ATOM     19  C   UNL     1      -0.656  11.723  22.226  0.00  0.00    +0.000 C 
BRANCH  19  23
ATOM     20  C   UNL     1      -4.223  13.952  23.312  0.00  0.00    +0.000 A 
ATOM     21  C   UNL     1      -3.965  12.682  23.810  0.00  0.00    +0.000 A 
ATOM     22  C   UNL     1      -2.839  11.979  23.490  0.00  0.00    +0.000 A 
ATOM     23  C   UNL     1      -1.897  12.514  22.611  0.00  0.00    +0.000 A 
ATOM     24  C   UNL     1      -2.131  13.807  22.108  0.00  0.00    +0.000 A 
ATOM     25  C   UNL     1      -3.288  14.545  22.445  0.00  0.00    +0.000 A 
BRANCH  20  26
ATOM     26  O   UNL     1      -5.367  14.636  23.630  0.00  0.00    +0.000 OA
BRANCH  26  27
ATOM     27  C   UNL     1      -6.526  13.784  23.726  0.00  0.00    +0.000 C 
BRANCH  27  28
ATOM     28  C   UNL     1      -7.136  13.715  22.357  0.00  0.00    +0.000 C 
BRANCH  28  29
ATOM     29  C   UNL     1      -7.266  12.277  21.858  0.00  0.00    +0.000 C 
BRANCH  29  31
ATOM     30  C   UNL     1      -7.602  13.110  19.626  0.00  0.00    +0.000 C 
ATOM     31  N   UNL     1      -6.870  12.143  20.447  0.00  0.00    +0.000 NA
ATOM     32  C   UNL     1      -5.431  12.345  20.273  0.00  0.00    +0.000 C 
ENDBRANCH  29  31
ENDBRANCH  28  29
ENDBRANCH  27  28
ENDBRANCH  26  27
ENDBRANCH  20  26
ENDBRANCH  19  23
ENDBRANCH   1  19
TORSDOF 9
ENDMDL
MODEL 6
REMARK VINA RESULT:      -6.5      5.090      9.038
REMARK  Name = 
REMARK  11 active torsions:
REMARK  status: ('A' for Active; 'I' for Inactive)
REMARK    1  A    between atoms: C_1  and  N_2
REMARK    2  A    between atoms: N_2  and  C_3
REMARK    3  A    between atoms: N_2  and  C_4
REMARK    4  A    between atoms: C_4  and  C_5
REMARK    5  A    between atoms: C_5  and  C_6
REMARK    6  A    between atoms: C_6  and  O_7
REMARK    7  A    between atoms: O_7  and  C_8
REMARK    8  A    between atoms: C_11  and  C_12
REMARK    9  A    between atoms: C_12  and  N_13
REMARK   10  A    between atoms: C_16  and  N_17
REMARK   11  A    between atoms: C_18  and  C_20
REMARK                            x       y       z     vdW  Elec       q    Type
REMARK                         _______ _______ _______ _____ _____    ______ ____
ROOT
ATOM      1  N   UNL     1       0.567  10.961  19.618  0.00  0.00    +0.000 NA
ATOM      2  C   UNL     1      -0.611  11.057  18.754  0.00  0.00    +0.000 C 
ATOM      3  C   UNL     1      -0.877  12.463  18.227  0.00  0.00    +0.000 C 
ATOM      4  C   UNL     1      -0.927  13.498  19.352  0.00  0.00    +0.000 C 
ATOM      5  C   UNL     1       0.398  13.442  20.111  0.00  0.00    +0.000 C 
ATOM      6  C   UNL     1       0.738  12.035  20.619  0.00  0.00    +0.000 C 
ENDROOT
BRANCH   4   7
ATOM      7  N   UNL     1      -2.096  13.353  20.240  0.00  0.00    +0.000 N 
ATOM      8  C   UNL     1      -2.715  14.452  20.796  0.00  0.00    +0.000 C 
ATOM      9  O   UNL     1      -2.343  15.614  20.607  0.00  0.00    +0.000 OA
ATOM     10  H   UNL     1      -2.420  12.426  20.465  0.00  0.00    +0.000 HD
BRANCH   8  11
ATOM     11  C   UNL     1      -3.905  14.223  21.655  0.00  0.00    +0.000 A 
ATOM     12  C   UNL     1      -5.054  14.995  21.415  0.00  0.00    +0.000 A 
ATOM     13  C   UNL     1      -6.174  14.881  22.242  0.00  0.00    +0.000 A 
ATOM     14  C   UNL     1      -6.147  13.999  23.326  0.00  0.00    +0.000 A 
ATOM     15 CL   UNL     1      -7.553  13.920  24.328  0.00  0.00    +0.000 Cl
ATOM     16  C   UNL     1      -5.001  13.231  23.572  0.00  0.00    +0.000 A 
ATOM     17 CL   UNL     1      -4.888  12.155  24.921  0.00  0.00    +0.000 Cl
ATOM     18  C   UNL     1      -3.882  13.336  22.737  0.00  0.00    +0.000 A 
ENDBRANCH   8  11
ENDBRANCH   4   7
BRANCH   1  19
ATOM     19  C   UNL     1       0.686   9.622  20.242  0.00  0.00    +0.000 C 
BRANCH  19  23
ATOM     20  C   UNL     1       3.218   6.804  18.117  0.00  0.00    +0.000 A 
ATOM     21  C   UNL     1       2.759   6.560  19.404  0.00  0.00    +0.000 A 
ATOM     22  C   UNL     1       1.949   7.430  20.075  0.00  0.00    +0.000 A 
ATOM     23  C   UNL     1       1.564   8.635  19.487  0.00  0.00    +0.000 A 
ATOM     24  C   UNL     1       2.004   8.893  18.176  0.00  0.00    +0.000 A 
ATOM     25  C   UNL     1       2.833   7.992  17.471  0.00  0.00    +0.000 A 
BRANCH  20  26
ATOM     26  O   UNL     1       4.046   5.927  17.465  0.00  0.00    +0.000 OA
BRANCH  26  27
ATOM     27  C   UNL     1       4.236   4.691  18.181  0.00  0.00    +0.000 C 
BRANCH  27  28
ATOM     28  C   UNL     1       3.772   3.586  17.279  0.00  0.00    +0.000 C 
BRANCH  28  29
ATOM     29  C   UNL     1       3.027   2.494  18.045  0.00  0.00    +0.000 C 
BRANCH  29  31
ATOM     30  C   UNL     1       0.831   2.604  19.021  0.00  0.00    +0.000 C 
ATOM     31  N   UNL     1       2.223   3.042  19.149  0.00  0.00    +0.000 NA
ATOM     32  C   UNL     1       2.748   2.628  20.451  0.00  0.00    +0.000 C 
ENDBRANCH  29  31
ENDBRANCH  28  29
ENDBRANCH  27  28
ENDBRANCH  26  27
ENDBRANCH  20  26
ENDBRANCH  19  23
ENDBRANCH   1  19
TORSDOF 9
ENDMDL
MODEL 7
REMARK VINA RESULT:      -6.4      1.046      1.732
REMARK  Name = 
REMARK  11 active torsions:
REMARK  status: ('A' for Active; 'I' for Inactive)
REMARK    1  A    between atoms: C_1  and  N_2
REMARK    2  A    between atoms: N_2  and  C_3
REMARK    3  A    between atoms: N_2  and  C_4
REMARK    4  A    between atoms: C_4  and  C_5
REMARK    5  A    between atoms: C_5  and  C_6
REMARK    6  A    between atoms: C_6  and  O_7
REMARK    7  A    between atoms: O_7  and  C_8
REMARK    8  A    between atoms: C_11  and  C_12
REMARK    9  A    between atoms: C_12  and  N_13
REMARK   10  A    between atoms: C_16  and  N_17
REMARK   11  A    between atoms: C_18  and  C_20
REMARK                            x       y       z     vdW  Elec       q    Type
REMARK                         _______ _______ _______ _____ _____    ______ ____
ROOT
ATOM      1  N   UNL     1       5.127   3.667  17.299  0.00  0.00    +0.000 NA
ATOM      2  C   UNL     1       5.282   3.929  18.731  0.00  0.00    +0.000 C 
ATOM      3  C   UNL     1       4.112   3.440  19.578  0.00  0.00    +0.000 C 
ATOM      4  C   UNL     1       2.770   3.959  19.059  0.00  0.00    +0.000 C 
ATOM      5  C   UNL     1       2.616   3.513  17.606  0.00  0.00    +0.000 C 
ATOM      6  C   UNL     1       3.795   3.937  16.721  0.00  0.00    +0.000 C 
ENDROOT
BRANCH   4   7
ATOM      7  N   UNL     1       2.592   5.413  19.228  0.00  0.00    +0.000 N 
ATOM      8  C   UNL     1       1.672   5.924  20.118  0.00  0.00    +0.000 C 
ATOM      9  O   UNL     1       0.937   5.223  20.819  0.00  0.00    +0.000 OA
ATOM     10  H   UNL     1       3.135   6.037  18.652  0.00  0.00    +0.000 HD
BRANCH   8  11
ATOM     11  C   UNL     1       1.575   7.401  20.252  0.00  0.00    +0.000 A 
ATOM     12  C   UNL     1       1.098   7.927  21.463  0.00  0.00    +0.000 A 
ATOM     13  C   UNL     1       0.908   9.302  21.617  0.00  0.00    +0.000 A 
ATOM     14  C   UNL     1       1.185  10.163  20.550  0.00  0.00    +0.000 A 
ATOM     15 CL   UNL     1       0.906  11.850  20.792  0.00  0.00    +0.000 Cl
ATOM     16  C   UNL     1       1.656   9.641  19.338  0.00  0.00    +0.000 A 
ATOM     17 CL   UNL     1       1.975  10.646  17.967  0.00  0.00    +0.000 Cl
ATOM     18  C   UNL     1       1.857   8.264  19.186  0.00  0.00    +0.000 A 
ENDBRANCH   8  11
ENDBRANCH   4   7
BRANCH   1  19
ATOM     19  C   UNL     1       6.199   4.309  16.502  0.00  0.00    +0.000 C 
BRANCH  19  23
ATOM     20  C   UNL     1       8.194   7.670  18.397  0.00  0.00    +0.000 A 
ATOM     21  C   UNL     1       7.461   7.810  17.227  0.00  0.00    +0.000 A 
ATOM     22  C   UNL     1       6.815   6.766  16.632  0.00  0.00    +0.000 A 
ATOM     23  C   UNL     1       6.890   5.484  17.178  0.00  0.00    +0.000 A 
ATOM     24  C   UNL     1       7.615   5.323  18.373  0.00  0.00    +0.000 A 
ATOM     25  C   UNL     1       8.275   6.403  19.001  0.00  0.00    +0.000 A 
BRANCH  20  26
ATOM     26  O   UNL     1       8.851   8.727  18.971  0.00  0.00    +0.000 OA
BRANCH  26  27
ATOM     27  C   UNL     1       8.607   9.978  18.296  0.00  0.00    +0.000 C 
BRANCH  27  28
ATOM     28  C   UNL     1       9.259  11.052  19.115  0.00  0.00    +0.000 C 
BRANCH  28  29
ATOM     29  C   UNL     1       9.289  12.393  18.384  0.00  0.00    +0.000 C 
BRANCH  29  31
ATOM     30  C   UNL     1      11.072  13.128  16.946  0.00  0.00    +0.000 C 
ATOM     31  N   UNL     1      10.643  12.967  18.337  0.00  0.00    +0.000 NA
ATOM     32  C   UNL     1      10.701  14.262  19.018  0.00  0.00    +0.000 C 
ENDBRANCH  29  31
ENDBRANCH  28  29
ENDBRANCH  27  28
ENDBRANCH  26  27
ENDBRANCH  20  26
ENDBRANCH  19  23
ENDBRANCH   1  19
TORSDOF 9
ENDMDL
MODEL 8
REMARK VINA RESULT:      -6.4      4.611      7.880
REMARK  Name = 
REMARK  11 active torsions:
REMARK  status: ('A' for Active; 'I' for Inactive)
REMARK    1  A    between atoms: C_1  and  N_2
REMARK    2  A    between atoms: N_2  and  C_3
REMARK    3  A    between atoms: N_2  and  C_4
REMARK    4  A    between atoms: C_4  and  C_5
REMARK    5  A    between atoms: C_5  and  C_6
REMARK    6  A    between atoms: C_6  and  O_7
REMARK    7  A    between atoms: O_7  and  C_8
REMARK    8  A    between atoms: C_11  and  C_12
REMARK    9  A    between atoms: C_12  and  N_13
REMARK   10  A    between atoms: C_16  and  N_17
REMARK   11  A    between atoms: C_18  and  C_20
REMARK                            x       y       z     vdW  Elec       q    Type
REMARK                         _______ _______ _______ _____ _____    ______ ____
ROOT
ATOM      1  N   UNL     1       0.774  10.056  20.001  0.00  0.00    +0.000 NA
ATOM      2  C   UNL     1      -0.458  10.142  19.216  0.00  0.00    +0.000 C 
ATOM      3  C   UNL     1      -0.627  11.464  18.475  0.00  0.00    +0.000 C 
ATOM      4  C   UNL     1      -0.476  12.668  19.406  0.00  0.00    +0.000 C 
ATOM      5  C   UNL     1       0.897  12.587  20.071  0.00  0.00    +0.000 C 
ATOM      6  C   UNL     1       1.138  11.253  20.788  0.00  0.00    +0.000 C 
ENDROOT
BRANCH   4   7
ATOM      7  N   UNL     1      -1.572  12.803  20.384  0.00  0.00    +0.000 N 
ATOM      8  C   UNL     1      -2.890  12.645  20.010  0.00  0.00    +0.000 C 
ATOM      9  O   UNL     1      -3.247  12.395  18.855  0.00  0.00    +0.000 OA
ATOM     10  H   UNL     1      -1.345  13.048  21.334  0.00  0.00    +0.000 HD
BRANCH   8  11
ATOM     11  C   UNL     1      -3.933  12.766  21.061  0.00  0.00    +0.000 A 
ATOM     12  C   UNL     1      -3.521  12.797  22.403  0.00  0.00    +0.000 A 
ATOM     13  C   UNL     1      -4.461  12.827  23.436  0.00  0.00    +0.000 A 
ATOM     14  C   UNL     1      -5.826  12.815  23.132  0.00  0.00    +0.000 A 
ATOM     15 CL   UNL     1      -6.939  12.827  24.452  0.00  0.00    +0.000 Cl
ATOM     16  C   UNL     1      -6.240  12.778  21.794  0.00  0.00    +0.000 A 
ATOM     17 CL   UNL     1      -7.911  12.716  21.352  0.00  0.00    +0.000 Cl
ATOM     18  C   UNL     1      -5.300  12.759  20.757  0.00  0.00    +0.000 A 
ENDBRANCH   8  11
ENDBRANCH   4   7
BRANCH   1  19
ATOM     19  C   UNL     1       0.813   8.832  20.836  0.00  0.00    +0.000 C 
BRANCH  19  23
ATOM     20  C   UNL     1       3.073   5.537  19.130  0.00  0.00    +0.000 A 
ATOM     21  C   UNL     1       3.035   6.792  18.539  0.00  0.00    +0.000 A 
ATOM     22  C   UNL     1       2.343   7.840  19.074  0.00  0.00    +0.000 A 
ATOM     23  C   UNL     1       1.612   7.677  20.251  0.00  0.00    +0.000 A 
ATOM     24  C   UNL     1       1.650   6.417  20.876  0.00  0.00    +0.000 A 
ATOM     25  C   UNL     1       2.375   5.332  20.333  0.00  0.00    +0.000 A 
BRANCH  20  26
ATOM     26  O   UNL     1       3.758   4.492  18.569  0.00  0.00    +0.000 OA
BRANCH  26  27
ATOM     27  C   UNL     1       3.885   4.603  17.137  0.00  0.00    +0.000 C 
BRANCH  27  28
ATOM     28  C   UNL     1       5.241   4.077  16.774  0.00  0.00    +0.000 C 
BRANCH  28  29
ATOM     29  C   UNL     1       6.048   5.083  15.956  0.00  0.00    +0.000 C 
BRANCH  29  31
ATOM     30  C   UNL     1       6.949   6.846  17.322  0.00  0.00    +0.000 C 
ATOM     31  N   UNL     1       7.236   5.561  16.681  0.00  0.00    +0.000 NA
ATOM     32  C   UNL     1       7.671   4.597  17.693  0.00  0.00    +0.000 C 
ENDBRANCH  29  31
ENDBRANCH  28  29
ENDBRANCH  27  28
ENDBRANCH  26  27
ENDBRANCH  20  26
ENDBRANCH  19  23
ENDBRANCH   1  19
TORSDOF 9
ENDMDL
MODEL 9
REMARK VINA RESULT:      -6.4      4.696      8.354
REMARK  Name = 
REMARK  11 active torsions:
REMARK  status: ('A' for Active; 'I' for Inactive)
REMARK    1  A    between atoms: C_1  and  N_2
REMARK    2  A    between atoms: N_2  and  C_3
REMARK    3  A    between atoms: N_2  and  C_4
REMARK    4  A    between atoms: C_4  and  C_5
REMARK    5  A    between atoms: C_5  and  C_6
REMARK    6  A    between atoms: C_6  and  O_7
REMARK    7  A    between atoms: O_7  and  C_8
REMARK    8  A    between atoms: C_11  and  C_12
REMARK    9  A    between atoms: C_12  and  N_13
REMARK   10  A    between atoms: C_16  and  N_17
REMARK   11  A    between atoms: C_18  and  C_20
REMARK                            x       y       z     vdW  Elec       q    Type
REMARK                         _______ _______ _______ _____ _____    ______ ____
ROOT
ATOM      1  N   UNL     1       1.259  10.139  19.676  0.00  0.00    +0.000 NA
ATOM      2  C   UNL     1       1.019  11.551  19.373  0.00  0.00    +0.000 C 
ATOM      3  C   UNL     1       0.770  12.413  20.605  0.00  0.00    +0.000 C 
ATOM      4  C   UNL     1      -0.335  11.840  21.493  0.00  0.00    +0.000 C 
ATOM      5  C   UNL     1       0.062  10.420  21.893  0.00  0.00    +0.000 C 
ATOM      6  C   UNL     1       0.374   9.524  20.687  0.00  0.00    +0.000 C 
ENDROOT
BRANCH   4   7
ATOM      7  N   UNL     1      -1.677  11.904  20.885  0.00  0.00    +0.000 N 
ATOM      8  C   UNL     1      -2.471  13.023  21.015  0.00  0.00    +0.000 C 
ATOM      9  O   UNL     1      -2.134  14.031  21.643  0.00  0.00    +0.000 OA
ATOM     10  H   UNL     1      -2.025  11.095  20.394  0.00  0.00    +0.000 HD
BRANCH   8  11
ATOM     11  C   UNL     1      -3.798  13.020  20.346  0.00  0.00    +0.000 A 
ATOM     12  C   UNL     1      -3.996  12.138  19.271  0.00  0.00    +0.000 A 
ATOM     13  C   UNL     1      -5.193  12.149  18.553  0.00  0.00    +0.000 A 
ATOM     14  C   UNL     1      -6.201  13.054  18.899  0.00  0.00    +0.000 A 
ATOM     15 CL   UNL     1      -7.649  13.037  17.957  0.00  0.00    +0.000 Cl
ATOM     16  C   UNL     1      -6.005  13.939  19.966  0.00  0.00    +0.000 A 
ATOM     17 CL   UNL     1      -7.193  15.113  20.417  0.00  0.00    +0.000 Cl
ATOM     18  C   UNL     1      -4.810  13.922  20.695  0.00  0.00    +0.000 A 
ENDBRANCH   8  11
ENDBRANCH   4   7
BRANCH   1  19
ATOM     19  C   UNL     1       1.324   9.314  18.447  0.00  0.00    +0.000 C 
BRANCH  19  23
ATOM     20  C   UNL     1       3.946   5.856  18.640  0.00  0.00    +0.000 A 
ATOM     21  C   UNL     1       4.002   6.769  17.596  0.00  0.00    +0.000 A 
ATOM     22  C   UNL     1       3.196   7.868  17.533  0.00  0.00    +0.000 A 
ATOM     23  C   UNL     1       2.247   8.107  18.527  0.00  0.00    +0.000 A 
ATOM     24  C   UNL     1       2.184   7.203  19.603  0.00  0.00    +0.000 A 
ATOM     25  C   UNL     1       3.024   6.070  19.680  0.00  0.00    +0.000 A 
BRANCH  20  26
ATOM     26  O   UNL     1       4.751   4.748  18.678  0.00  0.00    +0.000 OA
BRANCH  26  27
ATOM     27  C   UNL     1       4.698   3.970  17.466  0.00  0.00    +0.000 C 
BRANCH  27  28
ATOM     28  C   UNL     1       3.411   3.199  17.495  0.00  0.00    +0.000 C 
BRANCH  28  29
ATOM     29  C   UNL     1       3.205   2.477  18.825  0.00  0.00    +0.000 C 
BRANCH  29  31
ATOM     30  C   UNL     1       0.809   2.266  18.810  0.00  0.00    +0.000 C 
ATOM     31  N   UNL     1       1.954   2.880  19.486  0.00  0.00    +0.000 NA
ATOM     32  C   UNL     1       1.947   2.501  20.900  0.00  0.00    +0.000 C 
ENDBRANCH  29  31
ENDBRANCH  28  29
ENDBRANCH  27  28
ENDBRANCH  26  27
ENDBRANCH  20  26
ENDBRANCH  19  23
ENDBRANCH   1  19
TORSDOF 9
ENDMDL
