MODEL 1
REMARK VINA RESULT:      -9.1      0.000      0.000
REMARK  Name = 
REMARK  9 active torsions:
REMARK  status: ('A' for Active; 'I' for Inactive)
REMARK    1  A    between atoms: C_1  and  C_2
REMARK    2  A    between atoms: C_2  and  O_3
REMARK    3  A    between atoms: C_2  and  C_4
REMARK    4  A    between atoms: C_4  and  N_5
REMARK    5  A    between atoms: C_6  and  C_8
REMARK    6  A    between atoms: C_10  and  N_11
REMARK    7  A    between atoms: C_12  and  C_14
REMARK    8  A    between atoms: C_16  and  C_17
REMARK    9  A    between atoms: N_28  and  C_29
REMARK                            x       y       z     vdW  Elec       q    Type
REMARK                         _______ _______ _______ _____ _____    ______ ____
ROOT
ATOM      1  C   UNL     1       5.337   5.168  15.952  0.00  0.00    +0.000 A 
ATOM      2  C   UNL     1       4.887   6.451  16.374  0.00  0.00    +0.000 A 
ATOM      3  C   UNL     1       4.044   6.211  17.429  0.00  0.00    +0.000 A 
ATOM      4  N   UNL     1       3.949   4.832  17.548  0.00  0.00    +0.000 N 
ATOM      5  N   UNL     1       4.792   4.188  16.701  0.00  0.00    +0.000 NA
ENDROOT
BRANCH   4   6
ATOM      6  C   UNL     1       3.085   4.118  18.422  0.00  0.00    +0.000 A 
ATOM      7  C   UNL     1       3.516   3.751  19.707  0.00  0.00    +0.000 A 
ATOM      8  C   UNL     1       2.687   2.992  20.534  0.00  0.00    +0.000 A 
ATOM      9  C   UNL     1       1.428   2.605  20.084  0.00  0.00    +0.000 A 
ATOM     10  C   UNL     1       0.979   3.002  18.824  0.00  0.00    +0.000 A 
ATOM     11  C   UNL     1       1.798   3.778  17.999  0.00  0.00    +0.000 A 
ENDBRANCH   4   6
BRANCH   1  13
ATOM     12  N   UNL     1       5.872   4.017  13.908  0.00  0.00    +0.000 N 
ATOM     13  C   UNL     1       6.306   4.900  14.872  0.00  0.00    +0.000 C 
ATOM     14  O   UNL     1       7.408   5.442  14.841  0.00  0.00    +0.000 OA
ATOM     15  H   UNL     1       4.897   3.726  13.945  0.00  0.00    +0.000 HD
BRANCH  12  16
ATOM     16  C   UNL     1       6.669   3.725  12.731  0.00  0.00    +0.000 C 
BRANCH  16  18
ATOM     17  C   UNL     1       4.388   3.314  11.716  0.00  0.00    +0.000 C 
ATOM     18  C   UNL     1       5.872   2.971  11.657  0.00  0.00    +0.000 C 
BRANCH  18  19
ATOM     19  O   UNL     1       6.036   1.562  11.834  0.00  0.00    +0.000 OA
ATOM     20  H   UNL     1       5.327   1.249  12.424  0.00  0.00    +0.000 HD
ENDBRANCH  18  19
ENDBRANCH  16  18
ENDBRANCH  12  16
ENDBRANCH   1  13
BRANCH   3  21
ATOM     21  N   UNL     1       3.503   7.155  18.299  0.00  0.00    +0.000 N 
ATOM     22  C   UNL     1       2.174   7.665  18.151  0.00  0.00    +0.000 C 
ATOM     23  O   UNL     1       1.456   7.241  17.261  0.00  0.00    +0.000 OA
ATOM     24  H   UNL     1       4.037   7.375  19.135  0.00  0.00    +0.000 HD
BRANCH  22  25
ATOM     25  C   UNL     1       1.677   8.585  19.207  0.00  0.00    +0.000 A 
ATOM     26  C   UNL     1       1.538   9.948  18.870  0.00  0.00    +0.000 A 
ATOM     27  C   UNL     1       1.113  10.911  19.811  0.00  0.00    +0.000 A 
ATOM     28  C   UNL     1       0.795  10.450  21.098  0.00  0.00    +0.000 A 
ATOM     29  C   UNL     1       0.923   9.100  21.443  0.00  0.00    +0.000 A 
ATOM     30  C   UNL     1       1.367   8.168  20.505  0.00  0.00    +0.000 A 
ATOM     31 CL   UNL     1       1.530   6.536  21.043  0.00  0.00    +0.000 Cl
BRANCH  27  32
ATOM     32  C   UNL     1       1.019  12.344  19.446  0.00  0.00    +0.000 A 
ATOM     33  N   UNL     1       2.209  12.998  19.338  0.00  0.00    +0.000 NA
ATOM     34  C   UNL     1       2.175  14.317  19.024  0.00  0.00    +0.000 A 
ATOM     35  C   UNL     1       1.008  15.036  18.814  0.00  0.00    +0.000 A 
ATOM     36  C   UNL     1      -0.201  14.364  18.928  0.00  0.00    +0.000 A 
ATOM     37  C   UNL     1      -0.194  13.012  19.246  0.00  0.00    +0.000 A 
ATOM     38  F   UNL     1      -1.371  12.383  19.385  0.00  0.00    +0.000 F 
ENDBRANCH  27  32
ENDBRANCH  22  25
ENDBRANCH   3  21
TORSDOF 8
ENDMDL
MODEL 2
REMARK VINA RESULT:      -8.9      0.925      1.100
REMARK  Name = 
REMARK  9 active torsions:
REMARK  status: ('A' for Active; 'I' for Inactive)
REMARK    1  A    between atoms: C_1  and  C_2
REMARK    2  A    between atoms: C_2  and  O_3
REMARK    3  A    between atoms: C_2  and  C_4
REMARK    4  A    between atoms: C_4  and  N_5
REMARK    5  A    between atoms: C_6  and  C_8
REMARK    6  A    between atoms: C_10  and  N_11
REMARK    7  A    between atoms: C_12  and  C_14
REMARK    8  A    between atoms: C_16  and  C_17
REMARK    9  A    between atoms: N_28  and  C_29
REMARK                            x       y       z     vdW  Elec       q    Type
REMARK                         _______ _______ _______ _____ _____    ______ ____
ROOT
ATOM      1  C   UNL     1       5.344   5.137  15.936  0.00  0.00    +0.000 A 
ATOM      2  C   UNL     1       4.884   6.408  16.379  0.00  0.00    +0.000 A 
ATOM      3  C   UNL     1       4.053   6.144  17.439  0.00  0.00    +0.000 A 
ATOM      4  N   UNL     1       3.976   4.763  17.540  0.00  0.00    +0.000 N 
ATOM      5  N   UNL     1       4.819   4.140  16.676  0.00  0.00    +0.000 NA
ENDROOT
BRANCH   4   6
ATOM      6  C   UNL     1       3.129   4.026  18.412  0.00  0.00    +0.000 A 
ATOM      7  C   UNL     1       3.587   3.621  19.677  0.00  0.00    +0.000 A 
ATOM      8  C   UNL     1       2.774   2.841  20.499  0.00  0.00    +0.000 A 
ATOM      9  C   UNL     1       1.504   2.471  20.066  0.00  0.00    +0.000 A 
ATOM     10  C   UNL     1       1.028   2.906  18.829  0.00  0.00    +0.000 A 
ATOM     11  C   UNL     1       1.832   3.703  18.009  0.00  0.00    +0.000 A 
ENDBRANCH   4   6
BRANCH   1  13
ATOM     12  N   UNL     1       5.879   4.009  13.879  0.00  0.00    +0.000 N 
ATOM     13  C   UNL     1       6.307   4.895  14.844  0.00  0.00    +0.000 C 
ATOM     14  O   UNL     1       7.397   5.459  14.803  0.00  0.00    +0.000 OA
ATOM     15  H   UNL     1       4.912   3.699  13.925  0.00  0.00    +0.000 HD
BRANCH  12  16
ATOM     16  C   UNL     1       6.670   3.741  12.691  0.00  0.00    +0.000 C 
BRANCH  16  18
ATOM     17  C   UNL     1       4.394   3.298  11.677  0.00  0.00    +0.000 C 
ATOM     18  C   UNL     1       5.880   2.965  11.627  0.00  0.00    +0.000 C 
BRANCH  18  19
ATOM     19  O   UNL     1       6.053   1.560  11.826  0.00  0.00    +0.000 OA
ATOM     20  H   UNL     1       6.542   1.433  12.660  0.00  0.00    +0.000 HD
ENDBRANCH  18  19
ENDBRANCH  16  18
ENDBRANCH  12  16
ENDBRANCH   1  13
BRANCH   3  21
ATOM     21  N   UNL     1       3.509   7.070  18.327  0.00  0.00    +0.000 N 
ATOM     22  C   UNL     1       2.176   7.574  18.191  0.00  0.00    +0.000 C 
ATOM     23  O   UNL     1       1.458   7.160  17.296  0.00  0.00    +0.000 OA
ATOM     24  H   UNL     1       4.044   7.279  19.164  0.00  0.00    +0.000 HD
BRANCH  22  25
ATOM     25  C   UNL     1       1.676   8.472  19.264  0.00  0.00    +0.000 A 
ATOM     26  C   UNL     1       1.465   9.827  18.933  0.00  0.00    +0.000 A 
ATOM     27  C   UNL     1       1.032  10.772  19.888  0.00  0.00    +0.000 A 
ATOM     28  C   UNL     1       0.781  10.299  21.185  0.00  0.00    +0.000 A 
ATOM     29  C   UNL     1       0.980   8.957  21.526  0.00  0.00    +0.000 A 
ATOM     30  C   UNL     1       1.432   8.044  20.572  0.00  0.00    +0.000 A 
ATOM     31 CL   UNL     1       1.686   6.421  21.104  0.00  0.00    +0.000 Cl
BRANCH  27  32
ATOM     32  C   UNL     1       0.861  12.199  19.526  0.00  0.00    +0.000 A 
ATOM     33  N   UNL     1      -0.303  12.770  19.939  0.00  0.00    +0.000 NA
ATOM     34  C   UNL     1      -0.515  14.070  19.617  0.00  0.00    +0.000 A 
ATOM     35  C   UNL     1       0.376  14.845  18.890  0.00  0.00    +0.000 A 
ATOM     36  C   UNL     1       1.560  14.256  18.469  0.00  0.00    +0.000 A 
ATOM     37  C   UNL     1       1.802  12.926  18.789  0.00  0.00    +0.000 A 
ATOM     38  F   UNL     1       2.936  12.360  18.348  0.00  0.00    +0.000 F 
ENDBRANCH  27  32
ENDBRANCH  22  25
ENDBRANCH   3  21
TORSDOF 8
ENDMDL
MODEL 3
REMARK VINA RESULT:      -8.5      0.774      1.184
REMARK  Name = 
REMARK  9 active torsions:
REMARK  status: ('A' for Active; 'I' for Inactive)
REMARK    1  A    between atoms: C_1  and  C_2
REMARK    2  A    between atoms: C_2  and  O_3
REMARK    3  A    between atoms: C_2  and  C_4
REMARK    4  A    between atoms: C_4  and  N_5
REMARK    5  A    between atoms: C_6  and  C_8
REMARK    6  A    between atoms: C_10  and  N_11
REMARK    7  A    between atoms: C_12  and  C_14
REMARK    8  A    between atoms: C_16  and  C_17
REMARK    9  A    between atoms: N_28  and  C_29
REMARK                            x       y       z     vdW  Elec       q    Type
REMARK                         _______ _______ _______ _____ _____    ______ ____
ROOT
ATOM      1  C   UNL     1       5.109   5.372  16.382  0.00  0.00    +0.000 A 
ATOM      2  C   UNL     1       4.634   6.647  16.798  0.00  0.00    +0.000 A 
ATOM      3  C   UNL     1       3.788   6.394  17.848  0.00  0.00    +0.000 A 
ATOM      4  N   UNL     1       3.717   5.014  17.968  0.00  0.00    +0.000 N 
ATOM      5  N   UNL     1       4.578   4.384  17.129  0.00  0.00    +0.000 NA
ENDROOT
BRANCH   4   6
ATOM      6  C   UNL     1       2.861   4.285  18.838  0.00  0.00    +0.000 A 
ATOM      7  C   UNL     1       1.603   3.844  18.396  0.00  0.00    +0.000 A 
ATOM      8  C   UNL     1       0.741   3.189  19.277  0.00  0.00    +0.000 A 
ATOM      9  C   UNL     1       1.134   2.967  20.593  0.00  0.00    +0.000 A 
ATOM     10  C   UNL     1       2.399   3.366  21.026  0.00  0.00    +0.000 A 
ATOM     11  C   UNL     1       3.273   4.007  20.143  0.00  0.00    +0.000 A 
ENDBRANCH   4   6
BRANCH   1  13
ATOM     12  N   UNL     1       5.670   4.245  14.331  0.00  0.00    +0.000 N 
ATOM     13  C   UNL     1       6.091   5.119  15.309  0.00  0.00    +0.000 C 
ATOM     14  O   UNL     1       7.190   5.666  15.295  0.00  0.00    +0.000 OA
ATOM     15  H   UNL     1       4.696   3.950  14.355  0.00  0.00    +0.000 HD
BRANCH  12  16
ATOM     16  C   UNL     1       6.481   3.969  13.159  0.00  0.00    +0.000 C 
BRANCH  16  18
ATOM     17  C   UNL     1       6.907   2.311  11.296  0.00  0.00    +0.000 C 
ATOM     18  C   UNL     1       5.883   2.859  12.282  0.00  0.00    +0.000 C 
BRANCH  18  19
ATOM     19  O   UNL     1       4.760   3.368  11.558  0.00  0.00    +0.000 OA
ATOM     20  H   UNL     1       4.302   2.613  11.145  0.00  0.00    +0.000 HD
ENDBRANCH  18  19
ENDBRANCH  16  18
ENDBRANCH  12  16
ENDBRANCH   1  13
BRANCH   3  21
ATOM     21  N   UNL     1       3.224   7.330  18.712  0.00  0.00    +0.000 N 
ATOM     22  C   UNL     1       2.116   8.155  18.336  0.00  0.00    +0.000 C 
ATOM     23  O   UNL     1       1.606   8.022  17.236  0.00  0.00    +0.000 OA
ATOM     24  H   UNL     1       3.536   7.316  19.679  0.00  0.00    +0.000 HD
BRANCH  22  25
ATOM     25  C   UNL     1       1.537   9.034  19.384  0.00  0.00    +0.000 A 
ATOM     26  C   UNL     1       1.415  10.408  19.086  0.00  0.00    +0.000 A 
ATOM     27  C   UNL     1       0.916  11.335  20.027  0.00  0.00    +0.000 A 
ATOM     28  C   UNL     1       0.506  10.828  21.269  0.00  0.00    +0.000 A 
ATOM     29  C   UNL     1       0.616   9.467  21.575  0.00  0.00    +0.000 A 
ATOM     30  C   UNL     1       1.134   8.571  20.640  0.00  0.00    +0.000 A 
ATOM     31 CL   UNL     1       1.267   6.921  21.130  0.00  0.00    +0.000 Cl
BRANCH  27  32
ATOM     32  C   UNL     1       0.840  12.781  19.706  0.00  0.00    +0.000 A 
ATOM     33  N   UNL     1       1.788  13.559  20.297  0.00  0.00    +0.000 NA
ATOM     34  C   UNL     1       1.749  14.892  20.050  0.00  0.00    +0.000 A 
ATOM     35  C   UNL     1       0.805  15.506  19.242  0.00  0.00    +0.000 A 
ATOM     36  C   UNL     1      -0.161  14.706  18.645  0.00  0.00    +0.000 A 
ATOM     37  C   UNL     1      -0.142  13.337  18.880  0.00  0.00    +0.000 A 
ATOM     38  F   UNL     1      -1.100  12.582  18.323  0.00  0.00    +0.000 F 
ENDBRANCH  27  32
ENDBRANCH  22  25
ENDBRANCH   3  21
TORSDOF 8
ENDMDL
MODEL 4
REMARK VINA RESULT:      -8.3      1.208      1.633
REMARK  Name = 
REMARK  9 active torsions:
REMARK  status: ('A' for Active; 'I' for Inactive)
REMARK    1  A    between atoms: C_1  and  C_2
REMARK    2  A    between atoms: C_2  and  O_3
REMARK    3  A    between atoms: C_2  and  C_4
REMARK    4  A    between atoms: C_4  and  N_5
REMARK    5  A    between atoms: C_6  and  C_8
REMARK    6  A    between atoms: C_10  and  N_11
REMARK    7  A    between atoms: C_12  and  C_14
REMARK    8  A    between atoms: C_16  and  C_17
REMARK    9  A    between atoms: N_28  and  C_29
REMARK                            x       y       z     vdW  Elec       q    Type
REMARK                         _______ _______ _______ _____ _____    ______ ____
ROOT
ATOM      1  C   UNL     1       4.941   5.411  16.409  0.00  0.00    +0.000 A 
ATOM      2  C   UNL     1       4.438   6.674  16.831  0.00  0.00    +0.000 A 
ATOM      3  C   UNL     1       3.609   6.399  17.889  0.00  0.00    +0.000 A 
ATOM      4  N   UNL     1       3.573   5.018  18.009  0.00  0.00    +0.000 N 
ATOM      5  N   UNL     1       4.441   4.409  17.161  0.00  0.00    +0.000 NA
ENDROOT
BRANCH   4   6
ATOM      6  C   UNL     1       2.744   4.268  18.887  0.00  0.00    +0.000 A 
ATOM      7  C   UNL     1       1.530   3.727  18.433  0.00  0.00    +0.000 A 
ATOM      8  C   UNL     1       0.690   3.051  19.318  0.00  0.00    +0.000 A 
ATOM      9  C   UNL     1       1.062   2.906  20.652  0.00  0.00    +0.000 A 
ATOM     10  C   UNL     1       2.285   3.405  21.099  0.00  0.00    +0.000 A 
ATOM     11  C   UNL     1       3.139   4.068  20.212  0.00  0.00    +0.000 A 
ENDBRANCH   4   6
BRANCH   1  13
ATOM     12  N   UNL     1       5.555   4.221  14.411  0.00  0.00    +0.000 N 
ATOM     13  C   UNL     1       5.919   5.183  15.327  0.00  0.00    +0.000 C 
ATOM     14  O   UNL     1       6.965   5.821  15.254  0.00  0.00    +0.000 OA
ATOM     15  H   UNL     1       4.612   3.844  14.476  0.00  0.00    +0.000 HD
BRANCH  12  16
ATOM     16  C   UNL     1       6.362   3.949  13.235  0.00  0.00    +0.000 C 
BRANCH  16  18
ATOM     17  C   UNL     1       6.751   2.291  11.363  0.00  0.00    +0.000 C 
ATOM     18  C   UNL     1       5.728   2.890  12.322  0.00  0.00    +0.000 C 
BRANCH  18  19
ATOM     19  O   UNL     1       4.665   3.477  11.567  0.00  0.00    +0.000 OA
ATOM     20  H   UNL     1       3.925   2.844  11.549  0.00  0.00    +0.000 HD
ENDBRANCH  18  19
ENDBRANCH  16  18
ENDBRANCH  12  16
ENDBRANCH   1  13
BRANCH   3  21
ATOM     21  N   UNL     1       3.030   7.320  18.759  0.00  0.00    +0.000 N 
ATOM     22  C   UNL     1       2.134   8.343  18.312  0.00  0.00    +0.000 C 
ATOM     23  O   UNL     1       1.820   8.404  17.135  0.00  0.00    +0.000 OA
ATOM     24  H   UNL     1       3.155   7.160  19.754  0.00  0.00    +0.000 HD
BRANCH  22  25
ATOM     25  C   UNL     1       1.499   9.193  19.352  0.00  0.00    +0.000 A 
ATOM     26  C   UNL     1       1.338  10.565  19.063  0.00  0.00    +0.000 A 
ATOM     27  C   UNL     1       0.784  11.466  19.998  0.00  0.00    +0.000 A 
ATOM     28  C   UNL     1       0.361  10.933  21.225  0.00  0.00    +0.000 A 
ATOM     29  C   UNL     1       0.509   9.574  21.522  0.00  0.00    +0.000 A 
ATOM     30  C   UNL     1       1.080   8.704  20.593  0.00  0.00    +0.000 A 
ATOM     31 CL   UNL     1       1.256   7.055  21.073  0.00  0.00    +0.000 Cl
BRANCH  27  32
ATOM     32  C   UNL     1       0.668  12.911  19.688  0.00  0.00    +0.000 A 
ATOM     33  N   UNL     1      -0.569  13.448  19.868  0.00  0.00    +0.000 NA
ATOM     34  C   UNL     1      -0.732  14.763  19.580  0.00  0.00    +0.000 A 
ATOM     35  C   UNL     1       0.280  15.586  19.109  0.00  0.00    +0.000 A 
ATOM     36  C   UNL     1       1.539  15.031  18.924  0.00  0.00    +0.000 A 
ATOM     37  C   UNL     1       1.732  13.686  19.215  0.00  0.00    +0.000 A 
ATOM     38  F   UNL     1       2.945  13.156  19.000  0.00  0.00    +0.000 F 
ENDBRANCH  27  32
ENDBRANCH  22  25
ENDBRANCH   3  21
TORSDOF 8
ENDMDL
MODEL 5
REMARK VINA RESULT:      -8.0      1.078      1.158
REMARK  Name = 
REMARK  9 active torsions:
REMARK  status: ('A' for Active; 'I' for Inactive)
REMARK    1  A    between atoms: C_1  and  C_2
REMARK    2  A    between atoms: C_2  and  O_3
REMARK    3  A    between atoms: C_2  and  C_4
REMARK    4  A    between atoms: C_4  and  N_5
REMARK    5  A    between atoms: C_6  and  C_8
REMARK    6  A    between atoms: C_10  and  N_11
REMARK    7  A    between atoms: C_12  and  C_14
REMARK    8  A    between atoms: C_16  and  C_17
REMARK    9  A    between atoms: N_28  and  C_29
REMARK                            x       y       z     vdW  Elec       q    Type
REMARK                         _______ _______ _______ _____ _____    ______ ____
ROOT
ATOM      1  C   UNL     1       4.879   5.504  16.726  0.00  0.00    +0.000 A 
ATOM      2  C   UNL     1       4.358   6.786  17.055  0.00  0.00    +0.000 A 
ATOM      3  C   UNL     1       3.488   6.568  18.093  0.00  0.00    +0.000 A 
ATOM      4  N   UNL     1       3.450   5.196  18.290  0.00  0.00    +0.000 N 
ATOM      5  N   UNL     1       4.352   4.544  17.512  0.00  0.00    +0.000 NA
ENDROOT
BRANCH   4   6
ATOM      6  C   UNL     1       2.588   4.494  19.175  0.00  0.00    +0.000 A 
ATOM      7  C   UNL     1       2.846   4.472  20.556  0.00  0.00    +0.000 A 
ATOM      8  C   UNL     1       2.034   3.725  21.409  0.00  0.00    +0.000 A 
ATOM      9  C   UNL     1       0.960   3.007  20.889  0.00  0.00    +0.000 A 
ATOM     10  C   UNL     1       0.674   3.059  19.525  0.00  0.00    +0.000 A 
ATOM     11  C   UNL     1       1.474   3.820  18.668  0.00  0.00    +0.000 A 
ENDBRANCH   4   6
BRANCH   1  13
ATOM     12  N   UNL     1       5.746   4.014  15.046  0.00  0.00    +0.000 N 
ATOM     13  C   UNL     1       5.899   5.219  15.697  0.00  0.00    +0.000 C 
ATOM     14  O   UNL     1       6.801   6.012  15.442  0.00  0.00    +0.000 OA
ATOM     15  H   UNL     1       4.894   3.488  15.229  0.00  0.00    +0.000 HD
BRANCH  12  16
ATOM     16  C   UNL     1       6.609   3.633  13.943  0.00  0.00    +0.000 C 
BRANCH  16  18
ATOM     17  C   UNL     1       5.130   3.110  11.957  0.00  0.00    +0.000 C 
ATOM     18  C   UNL     1       6.078   4.123  12.588  0.00  0.00    +0.000 C 
BRANCH  18  19
ATOM     19  O   UNL     1       7.171   4.361  11.698  0.00  0.00    +0.000 OA
ATOM     20  H   UNL     1       7.669   3.529  11.606  0.00  0.00    +0.000 HD
ENDBRANCH  18  19
ENDBRANCH  16  18
ENDBRANCH  12  16
ENDBRANCH   1  13
BRANCH   3  21
ATOM     21  N   UNL     1       2.874   7.535  18.886  0.00  0.00    +0.000 N 
ATOM     22  C   UNL     1       2.139   8.631  18.333  0.00  0.00    +0.000 C 
ATOM     23  O   UNL     1       1.999   8.720  17.124  0.00  0.00    +0.000 OA
ATOM     24  H   UNL     1       2.845   7.364  19.887  0.00  0.00    +0.000 HD
BRANCH  22  25
ATOM     25  C   UNL     1       1.439   9.532  19.286  0.00  0.00    +0.000 A 
ATOM     26  C   UNL     1       1.347  10.898  18.943  0.00  0.00    +0.000 A 
ATOM     27  C   UNL     1       0.740  11.843  19.797  0.00  0.00    +0.000 A 
ATOM     28  C   UNL     1       0.192  11.362  20.996  0.00  0.00    +0.000 A 
ATOM     29  C   UNL     1       0.271  10.010  21.345  0.00  0.00    +0.000 A 
ATOM     30  C   UNL     1       0.896   9.095  20.497  0.00  0.00    +0.000 A 
ATOM     31 CL   UNL     1       0.978   7.458  21.039  0.00  0.00    +0.000 Cl
BRANCH  27  32
ATOM     32  C   UNL     1       0.696  13.280  19.435  0.00  0.00    +0.000 A 
ATOM     33  N   UNL     1       1.907  13.863  19.214  0.00  0.00    +0.000 NA
ATOM     34  C   UNL     1       1.921  15.181  18.898  0.00  0.00    +0.000 A 
ATOM     35  C   UNL     1       0.784  15.968  18.795  0.00  0.00    +0.000 A 
ATOM     36  C   UNL     1      -0.446  15.369  19.025  0.00  0.00    +0.000 A 
ATOM     37  C   UNL     1      -0.489  14.018  19.347  0.00  0.00    +0.000 A 
ATOM     38  F   UNL     1      -1.682  13.460  19.599  0.00  0.00    +0.000 F 
ENDBRANCH  27  32
ENDBRANCH  22  25
ENDBRANCH   3  21
TORSDOF 8
ENDMDL
MODEL 6
REMARK VINA RESULT:      -7.9      2.587      3.153
REMARK  Name = 
REMARK  9 active torsions:
REMARK  status: ('A' for Active; 'I' for Inactive)
REMARK    1  A    between atoms: C_1  and  C_2
REMARK    2  A    between atoms: C_2  and  O_3
REMARK    3  A    between atoms: C_2  and  C_4
REMARK    4  A    between atoms: C_4  and  N_5
REMARK    5  A    between atoms: C_6  and  C_8
REMARK    6  A    between atoms: C_10  and  N_11
REMARK    7  A    between atoms: C_12  and  C_14
REMARK    8  A    between atoms: C_16  and  C_17
REMARK    9  A    between atoms: N_28  and  C_29
REMARK                            x       y       z     vdW  Elec       q    Type
REMARK                         _______ _______ _______ _____ _____    ______ ____
ROOT
ATOM      1  C   UNL     1       4.845   6.029  17.212  0.00  0.00    +0.000 A 
ATOM      2  C   UNL     1       3.984   7.146  17.394  0.00  0.00    +0.000 A 
ATOM      3  C   UNL     1       3.055   6.742  18.319  0.00  0.00    +0.000 A 
ATOM      4  N   UNL     1       3.327   5.409  18.590  0.00  0.00    +0.000 N 
ATOM      5  N   UNL     1       4.463   4.987  17.977  0.00  0.00    +0.000 NA
ENDROOT
BRANCH   4   6
ATOM      6  C   UNL     1       2.546   4.535  19.393  0.00  0.00    +0.000 A 
ATOM      7  C   UNL     1       1.563   3.718  18.811  0.00  0.00    +0.000 A 
ATOM      8  C   UNL     1       0.756   2.913  19.614  0.00  0.00    +0.000 A 
ATOM      9  C   UNL     1       0.932   2.915  20.995  0.00  0.00    +0.000 A 
ATOM     10  C   UNL     1       1.935   3.692  21.575  0.00  0.00    +0.000 A 
ATOM     11  C   UNL     1       2.759   4.487  20.772  0.00  0.00    +0.000 A 
ENDBRANCH   4   6
BRANCH   1  13
ATOM     12  N   UNL     1       6.112   4.890  15.513  0.00  0.00    +0.000 N 
ATOM     13  C   UNL     1       6.040   5.985  16.346  0.00  0.00    +0.000 C 
ATOM     14  O   UNL     1       6.889   6.871  16.367  0.00  0.00    +0.000 OA
ATOM     15  H   UNL     1       5.298   4.281  15.468  0.00  0.00    +0.000 HD
BRANCH  12  16
ATOM     16  C   UNL     1       7.174   4.751  14.532  0.00  0.00    +0.000 C 
BRANCH  16  18
ATOM     17  C   UNL     1       7.226   4.631  12.005  0.00  0.00    +0.000 C 
ATOM     18  C   UNL     1       6.722   3.977  13.286  0.00  0.00    +0.000 C 
BRANCH  18  19
ATOM     19  O   UNL     1       5.293   3.913  13.249  0.00  0.00    +0.000 OA
ATOM     20  H   UNL     1       4.989   4.439  12.488  0.00  0.00    +0.000 HD
ENDBRANCH  18  19
ENDBRANCH  16  18
ENDBRANCH  12  16
ENDBRANCH   1  13
BRANCH   3  21
ATOM     21  N   UNL     1       2.115   7.542  18.965  0.00  0.00    +0.000 N 
ATOM     22  C   UNL     1       1.730   8.829  18.471  0.00  0.00    +0.000 C 
ATOM     23  O   UNL     1       2.199   9.243  17.425  0.00  0.00    +0.000 OA
ATOM     24  H   UNL     1       1.602   7.124  19.736  0.00  0.00    +0.000 HD
BRANCH  22  25
ATOM     25  C   UNL     1       0.639   9.535  19.191  0.00  0.00    +0.000 A 
ATOM     26  C   UNL     1      -0.495   9.916  18.442  0.00  0.00    +0.000 A 
ATOM     27  C   UNL     1      -1.569  10.627  19.021  0.00  0.00    +0.000 A 
ATOM     28  C   UNL     1      -1.482  10.911  20.392  0.00  0.00    +0.000 A 
ATOM     29  C   UNL     1      -0.366  10.534  21.148  0.00  0.00    +0.000 A 
ATOM     30  C   UNL     1       0.695   9.853  20.551  0.00  0.00    +0.000 A 
ATOM     31 CL   UNL     1       2.043   9.470  21.560  0.00  0.00    +0.000 Cl
BRANCH  27  32
ATOM     32  C   UNL     1      -2.728  11.056  18.203  0.00  0.00    +0.000 A 
ATOM     33  N   UNL     1      -3.680  11.767  18.868  0.00  0.00    +0.000 NA
ATOM     34  C   UNL     1      -4.770  12.166  18.167  0.00  0.00    +0.000 A 
ATOM     35  C   UNL     1      -4.975  11.890  16.824  0.00  0.00    +0.000 A 
ATOM     36  C   UNL     1      -4.002  11.161  16.153  0.00  0.00    +0.000 A 
ATOM     37  C   UNL     1      -2.873  10.743  16.847  0.00  0.00    +0.000 A 
ATOM     38  F   UNL     1      -1.958  10.013  16.194  0.00  0.00    +0.000 F 
ENDBRANCH  27  32
ENDBRANCH  22  25
ENDBRANCH   3  21
TORSDOF 8
ENDMDL
MODEL 7
REMARK VINA RESULT:      -7.8      2.605      3.115
REMARK  Name = 
REMARK  9 active torsions:
REMARK  status: ('A' for Active; 'I' for Inactive)
REMARK    1  A    between atoms: C_1  and  C_2
REMARK    2  A    between atoms: C_2  and  O_3
REMARK    3  A    between atoms: C_2  and  C_4
REMARK    4  A    between atoms: C_4  and  N_5
REMARK    5  A    between atoms: C_6  and  C_8
REMARK    6  A    between atoms: C_10  and  N_11
REMARK    7  A    between atoms: C_12  and  C_14
REMARK    8  A    between atoms: C_16  and  C_17
REMARK    9  A    between atoms: N_28  and  C_29
REMARK                            x       y       z     vdW  Elec       q    Type
REMARK                         _______ _______ _______ _____ _____    ______ ____
ROOT
ATOM      1  C   UNL     1       4.918   5.953  17.290  0.00  0.00    +0.000 A 
ATOM      2  C   UNL     1       4.010   7.047  17.355  0.00  0.00    +0.000 A 
ATOM      3  C   UNL     1       3.049   6.668  18.258  0.00  0.00    +0.000 A 
ATOM      4  N   UNL     1       3.353   5.367  18.629  0.00  0.00    +0.000 N 
ATOM      5  N   UNL     1       4.532   4.948  18.103  0.00  0.00    +0.000 NA
ENDROOT
BRANCH   4   6
ATOM      6  C   UNL     1       2.562   4.516  19.449  0.00  0.00    +0.000 A 
ATOM      7  C   UNL     1       2.799   4.436  20.831  0.00  0.00    +0.000 A 
ATOM      8  C   UNL     1       2.063   3.549  21.617  0.00  0.00    +0.000 A 
ATOM      9  C   UNL     1       1.088   2.749  21.030  0.00  0.00    +0.000 A 
ATOM     10  C   UNL     1       0.819   2.855  19.665  0.00  0.00    +0.000 A 
ATOM     11  C   UNL     1       1.541   3.755  18.876  0.00  0.00    +0.000 A 
ENDBRANCH   4   6
BRANCH   1  13
ATOM     12  N   UNL     1       6.246   4.822  15.633  0.00  0.00    +0.000 N 
ATOM     13  C   UNL     1       6.156   5.898  16.489  0.00  0.00    +0.000 C 
ATOM     14  O   UNL     1       7.024   6.762  16.578  0.00  0.00    +0.000 OA
ATOM     15  H   UNL     1       5.421   4.236  15.529  0.00  0.00    +0.000 HD
BRANCH  12  16
ATOM     16  C   UNL     1       7.356   4.679  14.708  0.00  0.00    +0.000 C 
BRANCH  16  18
ATOM     17  C   UNL     1       6.596   3.676  12.513  0.00  0.00    +0.000 C 
ATOM     18  C   UNL     1       6.947   4.960  13.256  0.00  0.00    +0.000 C 
BRANCH  18  19
ATOM     19  O   UNL     1       8.015   5.621  12.572  0.00  0.00    +0.000 OA
ATOM     20  H   UNL     1       8.818   5.534  13.116  0.00  0.00    +0.000 HD
ENDBRANCH  18  19
ENDBRANCH  16  18
ENDBRANCH  12  16
ENDBRANCH   1  13
BRANCH   3  21
ATOM     21  N   UNL     1       2.050   7.472  18.803  0.00  0.00    +0.000 N 
ATOM     22  C   UNL     1       1.872   8.841  18.424  0.00  0.00    +0.000 C 
ATOM     23  O   UNL     1       2.584   9.331  17.563  0.00  0.00    +0.000 OA
ATOM     24  H   UNL     1       1.354   7.016  19.386  0.00  0.00    +0.000 HD
BRANCH  22  25
ATOM     25  C   UNL     1       0.703   9.558  18.996  0.00  0.00    +0.000 A 
ATOM     26  C   UNL     1      -0.373   9.845  18.128  0.00  0.00    +0.000 A 
ATOM     27  C   UNL     1      -1.512  10.558  18.561  0.00  0.00    +0.000 A 
ATOM     28  C   UNL     1      -1.552  10.941  19.910  0.00  0.00    +0.000 A 
ATOM     29  C   UNL     1      -0.495  10.658  20.782  0.00  0.00    +0.000 A 
ATOM     30  C   UNL     1       0.633   9.972  20.329  0.00  0.00    +0.000 A 
ATOM     31 CL   UNL     1       1.899   9.709  21.473  0.00  0.00    +0.000 Cl
BRANCH  27  32
ATOM     32  C   UNL     1      -2.608  10.887  17.619  0.00  0.00    +0.000 A 
ATOM     33  N   UNL     1      -2.365  10.590  16.313  0.00  0.00    +0.000 NA
ATOM     34  C   UNL     1      -3.330  10.890  15.410  0.00  0.00    +0.000 A 
ATOM     35  C   UNL     1      -4.540  11.484  15.734  0.00  0.00    +0.000 A 
ATOM     36  C   UNL     1      -4.781  11.788  17.067  0.00  0.00    +0.000 A 
ATOM     37  C   UNL     1      -3.809  11.488  18.013  0.00  0.00    +0.000 A 
ATOM     38  F   UNL     1      -4.042  11.817  19.292  0.00  0.00    +0.000 F 
ENDBRANCH  27  32
ENDBRANCH  22  25
ENDBRANCH   3  21
TORSDOF 8
ENDMDL
MODEL 8
REMARK VINA RESULT:      -7.8      2.530      4.481
REMARK  Name = 
REMARK  9 active torsions:
REMARK  status: ('A' for Active; 'I' for Inactive)
REMARK    1  A    between atoms: C_1  and  C_2
REMARK    2  A    between atoms: C_2  and  O_3
REMARK    3  A    between atoms: C_2  and  C_4
REMARK    4  A    between atoms: C_4  and  N_5
REMARK    5  A    between atoms: C_6  and  C_8
REMARK    6  A    between atoms: C_10  and  N_11
REMARK    7  A    between atoms: C_12  and  C_14
REMARK    8  A    between atoms: C_16  and  C_17
REMARK    9  A    between atoms: N_28  and  C_29
REMARK                            x       y       z     vdW  Elec       q    Type
REMARK                         _______ _______ _______ _____ _____    ______ ____
ROOT
ATOM      1  C   UNL     1       6.684   4.717  14.110  0.00  0.00    +0.000 A 
ATOM      2  C   UNL     1       5.447   4.459  14.765  0.00  0.00    +0.000 A 
ATOM      3  C   UNL     1       5.508   5.159  15.944  0.00  0.00    +0.000 A 
ATOM      4  N   UNL     1       6.773   5.725  15.997  0.00  0.00    +0.000 N 
ATOM      5  N   UNL     1       7.470   5.525  14.849  0.00  0.00    +0.000 NA
ENDROOT
BRANCH   4   6
ATOM      6  C   UNL     1       7.336   6.433  17.094  0.00  0.00    +0.000 A 
ATOM      7  C   UNL     1       7.554   7.818  17.013  0.00  0.00    +0.000 A 
ATOM      8  C   UNL     1       8.168   8.493  18.068  0.00  0.00    +0.000 A 
ATOM      9  C   UNL     1       8.558   7.792  19.205  0.00  0.00    +0.000 A 
ATOM     10  C   UNL     1       8.306   6.423  19.308  0.00  0.00    +0.000 A 
ATOM     11  C   UNL     1       7.674   5.745  18.261  0.00  0.00    +0.000 A 
ENDBRANCH   4   6
BRANCH   1  13
ATOM     12  N   UNL     1       6.924   2.868  12.589  0.00  0.00    +0.000 N 
ATOM     13  C   UNL     1       7.079   4.224  12.776  0.00  0.00    +0.000 C 
ATOM     14  O   UNL     1       7.498   4.980  11.904  0.00  0.00    +0.000 OA
ATOM     15  H   UNL     1       6.443   2.346  13.319  0.00  0.00    +0.000 HD
BRANCH  12  16
ATOM     16  C   UNL     1       7.176   2.245  11.302  0.00  0.00    +0.000 C 
BRANCH  16  18
ATOM     17  C   UNL     1       4.656   2.077  11.141  0.00  0.00    +0.000 C 
ATOM     18  C   UNL     1       5.986   1.406  10.816  0.00  0.00    +0.000 C 
BRANCH  18  19
ATOM     19  O   UNL     1       6.022   0.115  11.429  0.00  0.00    +0.000 OA
ATOM     20  H   UNL     1       5.270  -0.401  11.087  0.00  0.00    +0.000 HD
ENDBRANCH  18  19
ENDBRANCH  16  18
ENDBRANCH  12  16
ENDBRANCH   1  13
BRANCH   3  21
ATOM     21  N   UNL     1       4.466   5.377  16.842  0.00  0.00    +0.000 N 
ATOM     22  C   UNL     1       4.299   4.599  18.031  0.00  0.00    +0.000 C 
ATOM     23  O   UNL     1       5.111   3.734  18.310  0.00  0.00    +0.000 OA
ATOM     24  H   UNL     1       3.896   6.206  16.698  0.00  0.00    +0.000 HD
BRANCH  22  25
ATOM     25  C   UNL     1       3.212   5.003  18.961  0.00  0.00    +0.000 A 
ATOM     26  C   UNL     1       2.845   6.366  18.981  0.00  0.00    +0.000 A 
ATOM     27  C   UNL     1       1.854   6.860  19.856  0.00  0.00    +0.000 A 
ATOM     28  C   UNL     1       1.215   5.930  20.689  0.00  0.00    +0.000 A 
ATOM     29  C   UNL     1       1.566   4.575  20.676  0.00  0.00    +0.000 A 
ATOM     30  C   UNL     1       2.564   4.110  19.820  0.00  0.00    +0.000 A 
ATOM     31 CL   UNL     1       2.951   2.430  19.910  0.00  0.00    +0.000 Cl
BRANCH  27  32
ATOM     32  C   UNL     1       1.518   8.304  19.889  0.00  0.00    +0.000 A 
ATOM     33  N   UNL     1       1.566   8.942  18.688  0.00  0.00    +0.000 NA
ATOM     34  C   UNL     1       1.285  10.268  18.669  0.00  0.00    +0.000 A 
ATOM     35  C   UNL     1       0.960  11.010  19.795  0.00  0.00    +0.000 A 
ATOM     36  C   UNL     1       0.917  10.354  21.017  0.00  0.00    +0.000 A 
ATOM     37  C   UNL     1       1.198   8.994  21.063  0.00  0.00    +0.000 A 
ATOM     38  F   UNL     1       1.184   8.380  22.256  0.00  0.00    +0.000 F 
ENDBRANCH  27  32
ENDBRANCH  22  25
ENDBRANCH   3  21
TORSDOF 8
ENDMDL
MODEL 9
REMARK VINA RESULT:      -7.7      2.459      4.345
REMARK  Name = 
REMARK  9 active torsions:
REMARK  status: ('A' for Active; 'I' for Inactive)
REMARK    1  A    between atoms: C_1  and  C_2
REMARK    2  A    between atoms: C_2  and  O_3
REMARK    3  A    between atoms: C_2  and  C_4
REMARK    4  A    between atoms: C_4  and  N_5
REMARK    5  A    between atoms: C_6  and  C_8
REMARK    6  A    between atoms: C_10  and  N_11
REMARK    7  A    between atoms: C_12  and  C_14
REMARK    8  A    between atoms: C_16  and  C_17
REMARK    9  A    between atoms: N_28  and  C_29
REMARK                            x       y       z     vdW  Elec       q    Type
REMARK                         _______ _______ _______ _____ _____    ______ ____
ROOT
ATOM      1  C   UNL     1       6.183   4.230  14.200  0.00  0.00    +0.000 A 
ATOM      2  C   UNL     1       5.148   3.841  15.096  0.00  0.00    +0.000 A 
ATOM      3  C   UNL     1       5.369   4.562  16.242  0.00  0.00    +0.000 A 
ATOM      4  N   UNL     1       6.542   5.273  16.036  0.00  0.00    +0.000 N 
ATOM      5  N   UNL     1       7.005   5.136  14.767  0.00  0.00    +0.000 NA
ENDROOT
BRANCH   4   6
ATOM      6  C   UNL     1       7.232   6.060  16.998  0.00  0.00    +0.000 A 
ATOM      7  C   UNL     1       7.675   5.488  18.201  0.00  0.00    +0.000 A 
ATOM      8  C   UNL     1       8.292   6.282  19.169  0.00  0.00    +0.000 A 
ATOM      9  C   UNL     1       8.474   7.642  18.935  0.00  0.00    +0.000 A 
ATOM     10  C   UNL     1       8.073   8.207  17.724  0.00  0.00    +0.000 A 
ATOM     11  C   UNL     1       7.472   7.412  16.743  0.00  0.00    +0.000 A 
ENDBRANCH   4   6
BRANCH   1  13
ATOM     12  N   UNL     1       5.567   2.684  12.463  0.00  0.00    +0.000 N 
ATOM     13  C   UNL     1       6.348   3.765  12.809  0.00  0.00    +0.000 C 
ATOM     14  O   UNL     1       7.116   4.319  12.028  0.00  0.00    +0.000 OA
ATOM     15  H   UNL     1       4.864   2.380  13.132  0.00  0.00    +0.000 HD
BRANCH  12  16
ATOM     16  C   UNL     1       5.542   2.170  11.105  0.00  0.00    +0.000 C 
BRANCH  16  18
ATOM     17  C   UNL     1       6.120  -0.266  11.475  0.00  0.00    +0.000 C 
ATOM     18  C   UNL     1       6.580   1.061  10.880  0.00  0.00    +0.000 C 
BRANCH  18  19
ATOM     19  O   UNL     1       7.824   1.436  11.476  0.00  0.00    +0.000 OA
ATOM     20  H   UNL     1       8.022   2.351  11.207  0.00  0.00    +0.000 HD
ENDBRANCH  18  19
ENDBRANCH  16  18
ENDBRANCH  12  16
ENDBRANCH   1  13
BRANCH   3  21
ATOM     21  N   UNL     1       4.517   4.672  17.338  0.00  0.00    +0.000 N 
ATOM     22  C   UNL     1       3.895   5.907  17.709  0.00  0.00    +0.000 C 
ATOM     23  O   UNL     1       4.072   6.904  17.029  0.00  0.00    +0.000 OA
ATOM     24  H   UNL     1       4.236   3.810  17.796  0.00  0.00    +0.000 HD
BRANCH  22  25
ATOM     25  C   UNL     1       2.922   5.869  18.831  0.00  0.00    +0.000 A 
ATOM     26  C   UNL     1       2.394   7.099  19.278  0.00  0.00    +0.000 A 
ATOM     27  C   UNL     1       1.496   7.177  20.363  0.00  0.00    +0.000 A 
ATOM     28  C   UNL     1       1.113   5.968  20.965  0.00  0.00    +0.000 A 
ATOM     29  C   UNL     1       1.624   4.741  20.528  0.00  0.00    +0.000 A 
ATOM     30  C   UNL     1       2.530   4.688  19.468  0.00  0.00    +0.000 A 
ATOM     31 CL   UNL     1       3.133   3.130  19.034  0.00  0.00    +0.000 Cl
BRANCH  27  32
ATOM     32  C   UNL     1       0.991   8.486  20.843  0.00  0.00    +0.000 A 
ATOM     33  N   UNL     1       0.805   8.582  22.188  0.00  0.00    +0.000 NA
ATOM     34  C   UNL     1       0.327   9.753  22.675  0.00  0.00    +0.000 A 
ATOM     35  C   UNL     1       0.011  10.850  21.888  0.00  0.00    +0.000 A 
ATOM     36  C   UNL     1       0.199  10.745  20.516  0.00  0.00    +0.000 A 
ATOM     37  C   UNL     1       0.691   9.555  19.993  0.00  0.00    +0.000 A 
ATOM     38  F   UNL     1       0.838   9.457  18.663  0.00  0.00    +0.000 F 
ENDBRANCH  27  32
ENDBRANCH  22  25
ENDBRANCH   3  21
TORSDOF 8
ENDMDL
