MODEL 1
REMARK VINA RESULT:      -9.6      0.000      0.000
REMARK  Name = 
REMARK  7 active torsions:
REMARK  status: ('A' for Active; 'I' for Inactive)
REMARK    1  A    between atoms: C_1  and  C_2
REMARK    2  A    between atoms: N_5  and  C_6
REMARK    3  A    between atoms: C_6  and  C_7
REMARK    4  A    between atoms: C_6  and  C_8
REMARK    5  A    between atoms: C_12  and  C_13
REMARK    6  A    between atoms: C_17  and  C_18
REMARK    7  A    between atoms: C_24  and  C_25
REMARK                            x       y       z     vdW  Elec       q    Type
REMARK                         _______ _______ _______ _____ _____    ______ ____
ROOT
ATOM      1  C   UNL     1       1.421   8.546  19.051  0.00  0.00    +0.000 C 
ATOM      2  C   UNL     1       2.203   9.145  17.883  0.00  0.00    +0.000 C 
ENDROOT
BRANCH   1   7
ATOM      3  C   UNL     1       0.666  13.877  21.765  0.00  0.00    +0.000 C 
ATOM      4  C   UNL     1       0.217  12.711  20.942  0.00  0.00    +0.000 A 
ATOM      5  N   UNL     1       1.021  11.632  20.873  0.00  0.00    +0.000 NA
ATOM      6  C   UNL     1       0.564  10.565  20.208  0.00  0.00    +0.000 A 
ATOM      7  N   UNL     1       1.392   9.454  20.194  0.00  0.00    +0.000 N 
ATOM      8  C   UNL     1      -0.691  10.562  19.636  0.00  0.00    +0.000 A 
ATOM      9  C   UNL     1      -1.441  11.722  19.710  0.00  0.00    +0.000 A 
ATOM     10  N   UNL     1      -0.988  12.812  20.355  0.00  0.00    +0.000 NA
ATOM     11  H   UNL     1       2.300   9.734  20.555  0.00  0.00    +0.000 HD
BRANCH   9  12
ATOM     12  C   UNL     1      -2.772  11.830  19.081  0.00  0.00    +0.000 A 
ATOM     13  C   UNL     1      -2.982  11.377  17.769  0.00  0.00    +0.000 A 
ATOM     14  C   UNL     1      -4.239  11.456  17.151  0.00  0.00    +0.000 A 
ATOM     15  C   UNL     1      -5.330  12.002  17.851  0.00  0.00    +0.000 A 
ATOM     16  N   UNL     1      -6.620  12.147  17.370  0.00  0.00    +0.000 NA
ATOM     17  C   UNL     1      -7.373  12.697  18.295  0.00  0.00    +0.000 A 
ATOM     18  S   UNL     1      -6.609  13.064  19.782  0.00  0.00    +0.000 S 
ATOM     19  C   UNL     1      -5.125  12.451  19.156  0.00  0.00    +0.000 A 
ATOM     20  C   UNL     1      -3.868  12.377  19.780  0.00  0.00    +0.000 A 
ENDBRANCH   9  12
ENDBRANCH   1   7
BRANCH   1  21
ATOM     21  C   UNL     1       2.005   7.193  19.427  0.00  0.00    +0.000 A 
ATOM     22  C   UNL     1       1.432   6.351  20.386  0.00  0.00    +0.000 A 
ATOM     23  C   UNL     1       2.065   5.164  20.748  0.00  0.00    +0.000 A 
ATOM     24  C   UNL     1       3.279   4.803  20.158  0.00  0.00    +0.000 A 
ATOM     25  C   UNL     1       3.889   5.612  19.185  0.00  0.00    +0.000 A 
ATOM     26  C   UNL     1       3.224   6.801  18.835  0.00  0.00    +0.000 A 
BRANCH  25  27
ATOM     27  C   UNL     1       5.188   5.258  18.573  0.00  0.00    +0.000 A 
ATOM     28  C   UNL     1       6.362   5.162  19.322  0.00  0.00    +0.000 A 
ATOM     29  N   UNL     1       7.587   4.865  18.820  0.00  0.00    +0.000 NA
ATOM     30  C   UNL     1       7.663   4.660  17.484  0.00  0.00    +0.000 A 
ATOM     31  C   UNL     1       6.576   4.730  16.629  0.00  0.00    +0.000 A 
ATOM     32  C   UNL     1       5.328   5.026  17.194  0.00  0.00    +0.000 A 
BRANCH  31  33
ATOM     33  C   UNL     1       6.665   4.524  15.163  0.00  0.00    +0.000 C 
ATOM     34  N   UNL     1       7.489   5.328  14.423  0.00  0.00    +0.000 N 
ATOM     35  O   UNL     1       6.008   3.649  14.608  0.00  0.00    +0.000 OA
ATOM     36  H   UNL     1       8.062   6.077  14.772  0.00  0.00    +0.000 HD
ATOM     37  H   UNL     1       7.510   5.151  13.425  0.00  0.00    +0.000 HD
ENDBRANCH  31  33
ENDBRANCH  25  27
ENDBRANCH   1  21
TORSDOF 5
ENDMDL
MODEL 2
REMARK VINA RESULT:      -9.1      3.204      5.072
REMARK  Name = 
REMARK  7 active torsions:
REMARK  status: ('A' for Active; 'I' for Inactive)
REMARK    1  A    between atoms: C_1  and  C_2
REMARK    2  A    between atoms: N_5  and  C_6
REMARK    3  A    between atoms: C_6  and  C_7
REMARK    4  A    between atoms: C_6  and  C_8
REMARK    5  A    between atoms: C_12  and  C_13
REMARK    6  A    between atoms: C_17  and  C_18
REMARK    7  A    between atoms: C_24  and  C_25
REMARK                            x       y       z     vdW  Elec       q    Type
REMARK                         _______ _______ _______ _____ _____    ______ ____
ROOT
ATOM      1  C   UNL     1       1.663   8.500  20.061  0.00  0.00    +0.000 C 
ATOM      2  C   UNL     1       1.202   8.833  21.480  0.00  0.00    +0.000 C 
ENDROOT
BRANCH   1   7
ATOM      3  C   UNL     1      -2.920  11.659  17.742  0.00  0.00    +0.000 C 
ATOM      4  C   UNL     1      -1.514  11.483  18.222  0.00  0.00    +0.000 A 
ATOM      5  N   UNL     1      -1.087  10.237  18.503  0.00  0.00    +0.000 NA
ATOM      6  C   UNL     1       0.199  10.088  18.843  0.00  0.00    +0.000 A 
ATOM      7  N   UNL     1       0.621   8.790  19.081  0.00  0.00    +0.000 N 
ATOM      8  C   UNL     1       1.058  11.166  18.880  0.00  0.00    +0.000 A 
ATOM      9  C   UNL     1       0.537  12.422  18.622  0.00  0.00    +0.000 A 
ATOM     10  N   UNL     1      -0.758  12.592  18.301  0.00  0.00    +0.000 NA
ATOM     11  H   UNL     1      -0.202   8.195  19.126  0.00  0.00    +0.000 HD
BRANCH   9  12
ATOM     12  C   UNL     1       1.369  13.639  18.692  0.00  0.00    +0.000 A 
ATOM     13  C   UNL     1       0.802  14.874  19.044  0.00  0.00    +0.000 A 
ATOM     14  C   UNL     1       1.571  16.044  19.129  0.00  0.00    +0.000 A 
ATOM     15  C   UNL     1       2.950  15.996  18.856  0.00  0.00    +0.000 A 
ATOM     16  N   UNL     1       3.829  17.066  18.897  0.00  0.00    +0.000 NA
ATOM     17  C   UNL     1       5.035  16.653  18.582  0.00  0.00    +0.000 A 
ATOM     18  S   UNL     1       5.205  14.986  18.233  0.00  0.00    +0.000 S 
ATOM     19  C   UNL     1       3.517  14.771  18.508  0.00  0.00    +0.000 A 
ATOM     20  C   UNL     1       2.752  13.594  18.419  0.00  0.00    +0.000 A 
ENDBRANCH   9  12
ENDBRANCH   1   7
BRANCH   1  21
ATOM     21  C   UNL     1       2.112   7.048  19.988  0.00  0.00    +0.000 A 
ATOM     22  C   UNL     1       1.433   6.004  20.622  0.00  0.00    +0.000 A 
ATOM     23  C   UNL     1       1.946   4.709  20.589  0.00  0.00    +0.000 A 
ATOM     24  C   UNL     1       3.145   4.442  19.923  0.00  0.00    +0.000 A 
ATOM     25  C   UNL     1       3.859   5.457  19.265  0.00  0.00    +0.000 A 
ATOM     26  C   UNL     1       3.313   6.752  19.310  0.00  0.00    +0.000 A 
BRANCH  25  27
ATOM     27  C   UNL     1       5.143   5.195  18.581  0.00  0.00    +0.000 A 
ATOM     28  C   UNL     1       6.341   5.037  19.282  0.00  0.00    +0.000 A 
ATOM     29  N   UNL     1       7.554   4.819  18.715  0.00  0.00    +0.000 NA
ATOM     30  C   UNL     1       7.593   4.764  17.363  0.00  0.00    +0.000 A 
ATOM     31  C   UNL     1       6.480   4.909  16.552  0.00  0.00    +0.000 A 
ATOM     32  C   UNL     1       5.245   5.119  17.181  0.00  0.00    +0.000 A 
BRANCH  31  33
ATOM     33  C   UNL     1       6.528   4.867  15.070  0.00  0.00    +0.000 C 
ATOM     34  N   UNL     1       5.475   4.329  14.382  0.00  0.00    +0.000 N 
ATOM     35  O   UNL     1       7.498   5.301  14.458  0.00  0.00    +0.000 OA
ATOM     36  H   UNL     1       4.639   3.937  14.782  0.00  0.00    +0.000 HD
ATOM     37  H   UNL     1       5.559   4.317  13.373  0.00  0.00    +0.000 HD
ENDBRANCH  31  33
ENDBRANCH  25  27
ENDBRANCH   1  21
TORSDOF 5
ENDMDL
MODEL 3
REMARK VINA RESULT:      -9.1      4.434      7.560
REMARK  Name = 
REMARK  7 active torsions:
REMARK  status: ('A' for Active; 'I' for Inactive)
REMARK    1  A    between atoms: C_1  and  C_2
REMARK    2  A    between atoms: N_5  and  C_6
REMARK    3  A    between atoms: C_6  and  C_7
REMARK    4  A    between atoms: C_6  and  C_8
REMARK    5  A    between atoms: C_12  and  C_13
REMARK    6  A    between atoms: C_17  and  C_18
REMARK    7  A    between atoms: C_24  and  C_25
REMARK                            x       y       z     vdW  Elec       q    Type
REMARK                         _______ _______ _______ _____ _____    ______ ____
ROOT
ATOM      1  C   UNL     1       5.912   5.612  15.916  0.00  0.00    +0.000 C 
ATOM      2  C   UNL     1       5.115   6.824  15.434  0.00  0.00    +0.000 C 
ENDROOT
BRANCH   1   7
ATOM      3  C   UNL     1       2.797   2.305  19.880  0.00  0.00    +0.000 C 
ATOM      4  C   UNL     1       3.155   3.575  19.174  0.00  0.00    +0.000 A 
ATOM      5  N   UNL     1       3.979   3.503  18.112  0.00  0.00    +0.000 NA
ATOM      6  C   UNL     1       4.216   4.635  17.438  0.00  0.00    +0.000 A 
ATOM      7  N   UNL     1       5.030   4.522  16.323  0.00  0.00    +0.000 N 
ATOM      8  C   UNL     1       3.618   5.823  17.804  0.00  0.00    +0.000 A 
ATOM      9  C   UNL     1       2.818   5.828  18.933  0.00  0.00    +0.000 A 
ATOM     10  N   UNL     1       2.589   4.704  19.635  0.00  0.00    +0.000 NA
ATOM     11  H   UNL     1       5.451   3.597  16.333  0.00  0.00    +0.000 HD
BRANCH   9  12
ATOM     12  C   UNL     1       2.182   7.063  19.431  0.00  0.00    +0.000 A 
ATOM     13  C   UNL     1       1.627   7.112  20.719  0.00  0.00    +0.000 A 
ATOM     14  C   UNL     1       1.027   8.276  21.222  0.00  0.00    +0.000 A 
ATOM     15  C   UNL     1       0.970   9.434  20.426  0.00  0.00    +0.000 A 
ATOM     16  N   UNL     1       0.408  10.647  20.786  0.00  0.00    +0.000 NA
ATOM     17  C   UNL     1       0.533  11.499  19.795  0.00  0.00    +0.000 A 
ATOM     18  S   UNL     1       1.326  10.926  18.391  0.00  0.00    +0.000 S 
ATOM     19  C   UNL     1       1.522   9.389  19.146  0.00  0.00    +0.000 A 
ATOM     20  C   UNL     1       2.124   8.226  18.635  0.00  0.00    +0.000 A 
ENDBRANCH   9  12
ENDBRANCH   1   7
BRANCH   1  21
ATOM     21  C   UNL     1       6.851   6.022  17.040  0.00  0.00    +0.000 A 
ATOM     22  C   UNL     1       7.293   5.137  18.029  0.00  0.00    +0.000 A 
ATOM     23  C   UNL     1       8.082   5.597  19.081  0.00  0.00    +0.000 A 
ATOM     24  C   UNL     1       8.437   6.946  19.161  0.00  0.00    +0.000 A 
ATOM     25  C   UNL     1       8.022   7.870  18.188  0.00  0.00    +0.000 A 
ATOM     26  C   UNL     1       7.233   7.377  17.134  0.00  0.00    +0.000 A 
BRANCH  25  27
ATOM     27  C   UNL     1       8.366   9.306  18.274  0.00  0.00    +0.000 A 
ATOM     28  C   UNL     1       7.854  10.249  17.381  0.00  0.00    +0.000 A 
ATOM     29  N   UNL     1       8.147  11.574  17.390  0.00  0.00    +0.000 NA
ATOM     30  C   UNL     1       9.014  11.998  18.339  0.00  0.00    +0.000 A 
ATOM     31  C   UNL     1       9.597  11.166  19.279  0.00  0.00    +0.000 A 
ATOM     32  C   UNL     1       9.254   9.807  19.241  0.00  0.00    +0.000 A 
BRANCH  31  33
ATOM     33  C   UNL     1      10.563  11.630  20.306  0.00  0.00    +0.000 C 
ATOM     34  N   UNL     1      10.109  11.935  21.560  0.00  0.00    +0.000 N 
ATOM     35  O   UNL     1      11.755  11.748  20.043  0.00  0.00    +0.000 OA
ATOM     36  H   UNL     1       9.157  11.884  21.879  0.00  0.00    +0.000 HD
ATOM     37  H   UNL     1      10.807  12.253  22.223  0.00  0.00    +0.000 HD
ENDBRANCH  31  33
ENDBRANCH  25  27
ENDBRANCH   1  21
TORSDOF 5
ENDMDL
MODEL 4
REMARK VINA RESULT:      -9.0      0.907      1.285
REMARK  Name = 
REMARK  7 active torsions:
REMARK  status: ('A' for Active; 'I' for Inactive)
REMARK    1  A    between atoms: C_1  and  C_2
REMARK    2  A    between atoms: N_5  and  C_6
REMARK    3  A    between atoms: C_6  and  C_7
REMARK    4  A    between atoms: C_6  and  C_8
REMARK    5  A    between atoms: C_12  and  C_13
REMARK    6  A    between atoms: C_17  and  C_18
REMARK    7  A    between atoms: C_24  and  C_25
REMARK                            x       y       z     vdW  Elec       q    Type
REMARK                         _______ _______ _______ _____ _____    ______ ____
ROOT
ATOM      1  C   UNL     1       1.366   8.858  19.151  0.00  0.00    +0.000 C 
ATOM      2  C   UNL     1       1.949   9.331  17.820  0.00  0.00    +0.000 C 
ENDROOT
BRANCH   1   7
ATOM      3  C   UNL     1       1.378  14.322  21.702  0.00  0.00    +0.000 C 
ATOM      4  C   UNL     1       0.724  13.132  21.072  0.00  0.00    +0.000 A 
ATOM      5  N   UNL     1       1.470  12.031  20.862  0.00  0.00    +0.000 NA
ATOM      6  C   UNL     1       0.848  10.947  20.382  0.00  0.00    +0.000 A 
ATOM      7  N   UNL     1       1.632   9.816  20.220  0.00  0.00    +0.000 N 
ATOM      8  C   UNL     1      -0.508  10.952  20.137  0.00  0.00    +0.000 A 
ATOM      9  C   UNL     1      -1.201  12.133  20.335  0.00  0.00    +0.000 A 
ATOM     10  N   UNL     1      -0.587  13.238  20.795  0.00  0.00    +0.000 NA
ATOM     11  H   UNL     1       2.605  10.088  20.333  0.00  0.00    +0.000 HD
BRANCH   9  12
ATOM     12  C   UNL     1      -2.644  12.246  20.047  0.00  0.00    +0.000 A 
ATOM     13  C   UNL     1      -3.523  12.783  21.001  0.00  0.00    +0.000 A 
ATOM     14  C   UNL     1      -4.897  12.914  20.750  0.00  0.00    +0.000 A 
ATOM     15  C   UNL     1      -5.425  12.500  19.513  0.00  0.00    +0.000 A 
ATOM     16  N   UNL     1      -6.754  12.564  19.129  0.00  0.00    +0.000 NA
ATOM     17  C   UNL     1      -6.881  12.087  17.912  0.00  0.00    +0.000 A 
ATOM     18  S   UNL     1      -5.447  11.548  17.150  0.00  0.00    +0.000 S 
ATOM     19  C   UNL     1      -4.554  11.968  18.563  0.00  0.00    +0.000 A 
ATOM     20  C   UNL     1      -3.177  11.832  18.809  0.00  0.00    +0.000 A 
ENDBRANCH   9  12
ENDBRANCH   1   7
BRANCH   1  21
ATOM     21  C   UNL     1       1.904   7.476  19.492  0.00  0.00    +0.000 A 
ATOM     22  C   UNL     1       1.336   6.653  20.470  0.00  0.00    +0.000 A 
ATOM     23  C   UNL     1       1.930   5.436  20.796  0.00  0.00    +0.000 A 
ATOM     24  C   UNL     1       3.100   5.026  20.150  0.00  0.00    +0.000 A 
ATOM     25  C   UNL     1       3.702   5.815  19.157  0.00  0.00    +0.000 A 
ATOM     26  C   UNL     1       3.077   7.035  18.844  0.00  0.00    +0.000 A 
BRANCH  25  27
ATOM     27  C   UNL     1       4.955   5.408  18.486  0.00  0.00    +0.000 A 
ATOM     28  C   UNL     1       6.123   5.123  19.197  0.00  0.00    +0.000 A 
ATOM     29  N   UNL     1       7.309   4.769  18.643  0.00  0.00    +0.000 NA
ATOM     30  C   UNL     1       7.352   4.700  17.292  0.00  0.00    +0.000 A 
ATOM     31  C   UNL     1       6.269   4.963  16.470  0.00  0.00    +0.000 A 
ATOM     32  C   UNL     1       5.060   5.312  17.087  0.00  0.00    +0.000 A 
BRANCH  31  33
ATOM     33  C   UNL     1       6.324   4.906  14.989  0.00  0.00    +0.000 C 
ATOM     34  N   UNL     1       7.452   5.334  14.345  0.00  0.00    +0.000 N 
ATOM     35  O   UNL     1       5.373   4.487  14.338  0.00  0.00    +0.000 OA
ATOM     36  H   UNL     1       8.283   5.703  14.777  0.00  0.00    +0.000 HD
ATOM     37  H   UNL     1       7.438   5.281  13.333  0.00  0.00    +0.000 HD
ENDBRANCH  31  33
ENDBRANCH  25  27
ENDBRANCH   1  21
TORSDOF 5
ENDMDL
MODEL 5
REMARK VINA RESULT:      -9.0      3.220      4.196
REMARK  Name = 
REMARK  7 active torsions:
REMARK  status: ('A' for Active; 'I' for Inactive)
REMARK    1  A    between atoms: C_1  and  C_2
REMARK    2  A    between atoms: N_5  and  C_6
REMARK    3  A    between atoms: C_6  and  C_7
REMARK    4  A    between atoms: C_6  and  C_8
REMARK    5  A    between atoms: C_12  and  C_13
REMARK    6  A    between atoms: C_17  and  C_18
REMARK    7  A    between atoms: C_24  and  C_25
REMARK                            x       y       z     vdW  Elec       q    Type
REMARK                         _______ _______ _______ _____ _____    ______ ____
ROOT
ATOM      1  C   UNL     1       0.336   9.708  20.024  0.00  0.00    +0.000 C 
ATOM      2  C   UNL     1      -0.545  10.303  18.926  0.00  0.00    +0.000 C 
ENDROOT
BRANCH   1   7
ATOM      3  C   UNL     1       0.930  15.284  22.242  0.00  0.00    +0.000 C 
ATOM      4  C   UNL     1       0.205  13.993  22.022  0.00  0.00    +0.000 A 
ATOM      5  N   UNL     1       0.879  12.971  21.461  0.00  0.00    +0.000 NA
ATOM      6  C   UNL     1       0.243  11.798  21.356  0.00  0.00    +0.000 A 
ATOM      7  N   UNL     1       0.977  10.753  20.817  0.00  0.00    +0.000 N 
ATOM      8  C   UNL     1      -1.043  11.637  21.827  0.00  0.00    +0.000 A 
ATOM      9  C   UNL     1      -1.687  12.744  22.351  0.00  0.00    +0.000 A 
ATOM     10  N   UNL     1      -1.070  13.936  22.443  0.00  0.00    +0.000 NA
ATOM     11  H   UNL     1       1.833  11.137  20.427  0.00  0.00    +0.000 HD
BRANCH   9  12
ATOM     12  C   UNL     1      -3.081  12.680  22.829  0.00  0.00    +0.000 A 
ATOM     13  C   UNL     1      -3.363  12.456  24.185  0.00  0.00    +0.000 A 
ATOM     14  C   UNL     1      -4.679  12.402  24.669  0.00  0.00    +0.000 A 
ATOM     15  C   UNL     1      -5.757  12.574  23.783  0.00  0.00    +0.000 A 
ATOM     16  N   UNL     1      -7.101  12.541  24.116  0.00  0.00    +0.000 NA
ATOM     17  C   UNL     1      -7.824  12.736  23.036  0.00  0.00    +0.000 A 
ATOM     18  S   UNL     1      -6.965  12.977  21.576  0.00  0.00    +0.000 S 
ATOM     19  C   UNL     1      -5.481  12.798  22.435  0.00  0.00    +0.000 A 
ATOM     20  C   UNL     1      -4.165  12.852  21.943  0.00  0.00    +0.000 A 
ENDBRANCH   9  12
ENDBRANCH   1   7
BRANCH   1  21
ATOM     21  C   UNL     1       1.358   8.761  19.415  0.00  0.00    +0.000 A 
ATOM     22  C   UNL     1       2.077   9.056  18.252  0.00  0.00    +0.000 A 
ATOM     23  C   UNL     1       2.934   8.109  17.697  0.00  0.00    +0.000 A 
ATOM     24  C   UNL     1       3.083   6.854  18.295  0.00  0.00    +0.000 A 
ATOM     25  C   UNL     1       2.388   6.516  19.468  0.00  0.00    +0.000 A 
ATOM     26  C   UNL     1       1.535   7.494  20.009  0.00  0.00    +0.000 A 
BRANCH  25  27
ATOM     27  C   UNL     1       2.513   5.183  20.096  0.00  0.00    +0.000 A 
ATOM     28  C   UNL     1       1.840   4.848  21.272  0.00  0.00    +0.000 A 
ATOM     29  N   UNL     1       1.930   3.654  21.911  0.00  0.00    +0.000 NA
ATOM     30  C   UNL     1       2.750   2.729  21.358  0.00  0.00    +0.000 A 
ATOM     31  C   UNL     1       3.478   2.936  20.199  0.00  0.00    +0.000 A 
ATOM     32  C   UNL     1       3.343   4.179  19.565  0.00  0.00    +0.000 A 
BRANCH  31  33
ATOM     33  C   UNL     1       4.390   1.928  19.606  0.00  0.00    +0.000 C 
ATOM     34  N   UNL     1       4.206   1.542  18.307  0.00  0.00    +0.000 N 
ATOM     35  O   UNL     1       5.299   1.435  20.266  0.00  0.00    +0.000 OA
ATOM     36  H   UNL     1       3.491   1.874  17.681  0.00  0.00    +0.000 HD
ATOM     37  H   UNL     1       4.851   0.847  17.951  0.00  0.00    +0.000 HD
ENDBRANCH  31  33
ENDBRANCH  25  27
ENDBRANCH   1  21
TORSDOF 5
ENDMDL
MODEL 6
REMARK VINA RESULT:      -9.0      3.106      5.396
REMARK  Name = 
REMARK  7 active torsions:
REMARK  status: ('A' for Active; 'I' for Inactive)
REMARK    1  A    between atoms: C_1  and  C_2
REMARK    2  A    between atoms: N_5  and  C_6
REMARK    3  A    between atoms: C_6  and  C_7
REMARK    4  A    between atoms: C_6  and  C_8
REMARK    5  A    between atoms: C_12  and  C_13
REMARK    6  A    between atoms: C_17  and  C_18
REMARK    7  A    between atoms: C_24  and  C_25
REMARK                            x       y       z     vdW  Elec       q    Type
REMARK                         _______ _______ _______ _____ _____    ______ ____
ROOT
ATOM      1  C   UNL     1       2.236   7.758  18.961  0.00  0.00    +0.000 C 
ATOM      2  C   UNL     1       1.848   7.690  20.437  0.00  0.00    +0.000 C 
ENDROOT
BRANCH   1   7
ATOM      3  C   UNL     1      -2.216  11.678  17.880  0.00  0.00    +0.000 C 
ATOM      4  C   UNL     1      -0.807  11.301  18.214  0.00  0.00    +0.000 A 
ATOM      5  N   UNL     1      -0.451  10.006  18.107  0.00  0.00    +0.000 NA
ATOM      6  C   UNL     1       0.834   9.701  18.322  0.00  0.00    +0.000 A 
ATOM      7  N   UNL     1       1.180   8.369  18.160  0.00  0.00    +0.000 N 
ATOM      8  C   UNL     1       1.761  10.678  18.617  0.00  0.00    +0.000 A 
ATOM      9  C   UNL     1       1.314  11.980  18.754  0.00  0.00    +0.000 A 
ATOM     10  N   UNL     1       0.021  12.300  18.564  0.00  0.00    +0.000 NA
ATOM     11  H   UNL     1       0.323   7.829  18.079  0.00  0.00    +0.000 HD
BRANCH   9  12
ATOM     12  C   UNL     1       2.224  13.082  19.120  0.00  0.00    +0.000 A 
ATOM     13  C   UNL     1       3.143  13.590  18.190  0.00  0.00    +0.000 A 
ATOM     14  C   UNL     1       4.011  14.645  18.507  0.00  0.00    +0.000 A 
ATOM     15  C   UNL     1       3.974  15.220  19.791  0.00  0.00    +0.000 A 
ATOM     16  N   UNL     1       4.770  16.258  20.245  0.00  0.00    +0.000 NA
ATOM     17  C   UNL     1       4.463  16.531  21.492  0.00  0.00    +0.000 A 
ATOM     18  S   UNL     1       3.217  15.592  22.195  0.00  0.00    +0.000 S 
ATOM     19  C   UNL     1       3.061  14.718  20.717  0.00  0.00    +0.000 A 
ATOM     20  C   UNL     1       2.189  13.660  20.406  0.00  0.00    +0.000 A 
ENDBRANCH   9  12
ENDBRANCH   1   7
BRANCH   1  21
ATOM     21  C   UNL     1       2.591   6.369  18.453  0.00  0.00    +0.000 A 
ATOM     22  C   UNL     1       1.998   5.200  18.941  0.00  0.00    +0.000 A 
ATOM     23  C   UNL     1       2.431   3.953  18.496  0.00  0.00    +0.000 A 
ATOM     24  C   UNL     1       3.464   3.857  17.559  0.00  0.00    +0.000 A 
ATOM     25  C   UNL     1       4.084   5.003  17.034  0.00  0.00    +0.000 A 
ATOM     26  C   UNL     1       3.622   6.248  17.497  0.00  0.00    +0.000 A 
BRANCH  25  27
ATOM     27  C   UNL     1       5.197   4.917  16.064  0.00  0.00    +0.000 A 
ATOM     28  C   UNL     1       6.433   5.526  16.292  0.00  0.00    +0.000 A 
ATOM     29  N   UNL     1       7.484   5.505  15.434  0.00  0.00    +0.000 NA
ATOM     30  C   UNL     1       7.301   4.848  14.265  0.00  0.00    +0.000 A 
ATOM     31  C   UNL     1       6.125   4.208  13.914  0.00  0.00    +0.000 A 
ATOM     32  C   UNL     1       5.070   4.243  14.837  0.00  0.00    +0.000 A 
BRANCH  31  33
ATOM     33  C   UNL     1       5.922   3.505  12.624  0.00  0.00    +0.000 C 
ATOM     34  N   UNL     1       6.998   2.952  11.987  0.00  0.00    +0.000 N 
ATOM     35  O   UNL     1       4.806   3.420  12.121  0.00  0.00    +0.000 OA
ATOM     36  H   UNL     1       7.953   2.971  12.303  0.00  0.00    +0.000 HD
ATOM     37  H   UNL     1       6.808   2.489  11.106  0.00  0.00    +0.000 HD
ENDBRANCH  31  33
ENDBRANCH  25  27
ENDBRANCH   1  21
TORSDOF 5
ENDMDL
MODEL 7
REMARK VINA RESULT:      -8.9      3.770     10.472
REMARK  Name = 
REMARK  7 active torsions:
REMARK  status: ('A' for Active; 'I' for Inactive)
REMARK    1  A    between atoms: C_1  and  C_2
REMARK    2  A    between atoms: N_5  and  C_6
REMARK    3  A    between atoms: C_6  and  C_7
REMARK    4  A    between atoms: C_6  and  C_8
REMARK    5  A    between atoms: C_12  and  C_13
REMARK    6  A    between atoms: C_17  and  C_18
REMARK    7  A    between atoms: C_24  and  C_25
REMARK                            x       y       z     vdW  Elec       q    Type
REMARK                         _______ _______ _______ _____ _____    ______ ____
ROOT
ATOM      1  C   UNL     1       1.654   9.267  19.724  0.00  0.00    +0.000 C 
ATOM      2  C   UNL     1       1.590   8.979  18.225  0.00  0.00    +0.000 C 
ENDROOT
BRANCH   1   7
ATOM      3  C   UNL     1       1.579   3.285  20.473  0.00  0.00    +0.000 C 
ATOM      4  C   UNL     1       2.120   4.565  19.919  0.00  0.00    +0.000 A 
ATOM      5  N   UNL     1       1.632   5.725  20.398  0.00  0.00    +0.000 NA
ATOM      6  C   UNL     1       2.191   6.858  19.957  0.00  0.00    +0.000 A 
ATOM      7  N   UNL     1       1.699   8.033  20.502  0.00  0.00    +0.000 N 
ATOM      8  C   UNL     1       3.243   6.836  19.066  0.00  0.00    +0.000 A 
ATOM      9  C   UNL     1       3.662   5.608  18.584  0.00  0.00    +0.000 A 
ATOM     10  N   UNL     1       3.095   4.461  18.999  0.00  0.00    +0.000 NA
ATOM     11  H   UNL     1       0.854   7.810  21.021  0.00  0.00    +0.000 HD
BRANCH   9  12
ATOM     12  C   UNL     1       4.744   5.491  17.587  0.00  0.00    +0.000 A 
ATOM     13  C   UNL     1       6.018   6.017  17.850  0.00  0.00    +0.000 A 
ATOM     14  C   UNL     1       7.068   5.909  16.926  0.00  0.00    +0.000 A 
ATOM     15  C   UNL     1       6.854   5.261  15.696  0.00  0.00    +0.000 A 
ATOM     16  N   UNL     1       7.790   5.085  14.691  0.00  0.00    +0.000 NA
ATOM     17  C   UNL     1       7.239   4.440  13.688  0.00  0.00    +0.000 A 
ATOM     18  S   UNL     1       5.597   3.998  13.875  0.00  0.00    +0.000 S 
ATOM     19  C   UNL     1       5.590   4.736  15.433  0.00  0.00    +0.000 A 
ATOM     20  C   UNL     1       4.532   4.842  16.353  0.00  0.00    +0.000 A 
ENDBRANCH   9  12
ENDBRANCH   1   7
BRANCH   1  21
ATOM     21  C   UNL     1       0.482  10.145  20.135  0.00  0.00    +0.000 A 
ATOM     22  C   UNL     1       0.330  10.666  21.424  0.00  0.00    +0.000 A 
ATOM     23  C   UNL     1      -0.812  11.390  21.759  0.00  0.00    +0.000 A 
ATOM     24  C   UNL     1      -1.818  11.600  20.813  0.00  0.00    +0.000 A 
ATOM     25  C   UNL     1      -1.707  11.102  19.504  0.00  0.00    +0.000 A 
ATOM     26  C   UNL     1      -0.541  10.382  19.192  0.00  0.00    +0.000 A 
BRANCH  25  27
ATOM     27  C   UNL     1      -2.776  11.292  18.500  0.00  0.00    +0.000 A 
ATOM     28  C   UNL     1      -3.969  11.953  18.799  0.00  0.00    +0.000 A 
ATOM     29  N   UNL     1      -4.997  12.140  17.933  0.00  0.00    +0.000 NA
ATOM     30  C   UNL     1      -4.844  11.629  16.689  0.00  0.00    +0.000 A 
ATOM     31  C   UNL     1      -3.715  10.948  16.267  0.00  0.00    +0.000 A 
ATOM     32  C   UNL     1      -2.672  10.792  17.191  0.00  0.00    +0.000 A 
BRANCH  31  33
ATOM     33  C   UNL     1      -3.558  10.373  14.909  0.00  0.00    +0.000 C 
ATOM     34  N   UNL     1      -4.674  10.039  14.191  0.00  0.00    +0.000 N 
ATOM     35  O   UNL     1      -2.445  10.189  14.427  0.00  0.00    +0.000 OA
ATOM     36  H   UNL     1      -5.629  10.138  14.492  0.00  0.00    +0.000 HD
ATOM     37  H   UNL     1      -4.513   9.644  13.272  0.00  0.00    +0.000 HD
ENDBRANCH  31  33
ENDBRANCH  25  27
ENDBRANCH   1  21
TORSDOF 5
ENDMDL
MODEL 8
REMARK VINA RESULT:      -8.9      4.520      7.138
REMARK  Name = 
REMARK  7 active torsions:
REMARK  status: ('A' for Active; 'I' for Inactive)
REMARK    1  A    between atoms: C_1  and  C_2
REMARK    2  A    between atoms: N_5  and  C_6
REMARK    3  A    between atoms: C_6  and  C_7
REMARK    4  A    between atoms: C_6  and  C_8
REMARK    5  A    between atoms: C_12  and  C_13
REMARK    6  A    between atoms: C_17  and  C_18
REMARK    7  A    between atoms: C_24  and  C_25
REMARK                            x       y       z     vdW  Elec       q    Type
REMARK                         _______ _______ _______ _____ _____    ______ ____
ROOT
ATOM      1  C   UNL     1       5.508   5.860  16.351  0.00  0.00    +0.000 C 
ATOM      2  C   UNL     1       4.701   7.085  15.920  0.00  0.00    +0.000 C 
ENDROOT
BRANCH   1   7
ATOM      3  C   UNL     1       2.529   3.129  20.826  0.00  0.00    +0.000 C 
ATOM      4  C   UNL     1       2.856   4.289  19.939  0.00  0.00    +0.000 A 
ATOM      5  N   UNL     1       3.653   4.072  18.875  0.00  0.00    +0.000 NA
ATOM      6  C   UNL     1       3.861   5.099  18.042  0.00  0.00    +0.000 A 
ATOM      7  N   UNL     1       4.647   4.833  16.932  0.00  0.00    +0.000 N 
ATOM      8  C   UNL     1       3.263   6.322  18.252  0.00  0.00    +0.000 A 
ATOM      9  C   UNL     1       2.493   6.483  19.391  0.00  0.00    +0.000 A 
ATOM     10  N   UNL     1       2.292   5.468  20.250  0.00  0.00    +0.000 NA
ATOM     11  H   UNL     1       5.077   3.922  17.061  0.00  0.00    +0.000 HD
BRANCH   9  12
ATOM     12  C   UNL     1       1.858   7.772  19.726  0.00  0.00    +0.000 A 
ATOM     13  C   UNL     1       1.762   8.793  18.768  0.00  0.00    +0.000 A 
ATOM     14  C   UNL     1       1.152  10.023  19.055  0.00  0.00    +0.000 A 
ATOM     15  C   UNL     1       0.620  10.258  20.336  0.00  0.00    +0.000 A 
ATOM     16  N   UNL     1      -0.002  11.419  20.763  0.00  0.00    +0.000 NA
ATOM     17  C   UNL     1      -0.370  11.283  22.016  0.00  0.00    +0.000 A 
ATOM     18  S   UNL     1      -0.014   9.783  22.758  0.00  0.00    +0.000 S 
ATOM     19  C   UNL     1       0.712   9.245  21.290  0.00  0.00    +0.000 A 
ATOM     20  C   UNL     1       1.322   8.010  21.009  0.00  0.00    +0.000 A 
ENDBRANCH   9  12
ENDBRANCH   1   7
BRANCH   1  21
ATOM     21  C   UNL     1       6.610   6.275  17.312  0.00  0.00    +0.000 A 
ATOM     22  C   UNL     1       7.147   5.418  18.278  0.00  0.00    +0.000 A 
ATOM     23  C   UNL     1       8.093   5.887  19.186  0.00  0.00    +0.000 A 
ATOM     24  C   UNL     1       8.514   7.219  19.143  0.00  0.00    +0.000 A 
ATOM     25  C   UNL     1       8.009   8.115  18.187  0.00  0.00    +0.000 A 
ATOM     26  C   UNL     1       7.060   7.612  17.279  0.00  0.00    +0.000 A 
BRANCH  25  27
ATOM     27  C   UNL     1       8.422   9.534  18.147  0.00  0.00    +0.000 A 
ATOM     28  C   UNL     1       7.644  10.520  17.537  0.00  0.00    +0.000 A 
ATOM     29  N   UNL     1       7.977  11.832  17.446  0.00  0.00    +0.000 NA
ATOM     30  C   UNL     1       9.164  12.197  17.982  0.00  0.00    +0.000 A 
ATOM     31  C   UNL     1      10.032  11.319  18.609  0.00  0.00    +0.000 A 
ATOM     32  C   UNL     1       9.640   9.975  18.693  0.00  0.00    +0.000 A 
BRANCH  31  33
ATOM     33  C   UNL     1      11.341  11.718  19.179  0.00  0.00    +0.000 C 
ATOM     34  N   UNL     1      12.312  12.204  18.346  0.00  0.00    +0.000 N 
ATOM     35  O   UNL     1      11.565  11.613  20.380  0.00  0.00    +0.000 OA
ATOM     36  H   UNL     1      12.240  12.322  17.350  0.00  0.00    +0.000 HD
ATOM     37  H   UNL     1      13.191  12.456  18.783  0.00  0.00    +0.000 HD
ENDBRANCH  31  33
ENDBRANCH  25  27
ENDBRANCH   1  21
TORSDOF 5
ENDMDL
MODEL 9
REMARK VINA RESULT:      -8.9      3.051      5.165
REMARK  Name = 
REMARK  7 active torsions:
REMARK  status: ('A' for Active; 'I' for Inactive)
REMARK    1  A    between atoms: C_1  and  C_2
REMARK    2  A    between atoms: N_5  and  C_6
REMARK    3  A    between atoms: C_6  and  C_7
REMARK    4  A    between atoms: C_6  and  C_8
REMARK    5  A    between atoms: C_12  and  C_13
REMARK    6  A    between atoms: C_17  and  C_18
REMARK    7  A    between atoms: C_24  and  C_25
REMARK                            x       y       z     vdW  Elec       q    Type
REMARK                         _______ _______ _______ _____ _____    ______ ____
ROOT
ATOM      1  C   UNL     1       2.394   7.829  18.795  0.00  0.00    +0.000 C 
ATOM      2  C   UNL     1       1.833   7.780  20.216  0.00  0.00    +0.000 C 
ENDROOT
BRANCH   1   7
ATOM      3  C   UNL     1      -2.472  11.079  17.338  0.00  0.00    +0.000 C 
ATOM      4  C   UNL     1      -1.143  10.865  17.992  0.00  0.00    +0.000 A 
ATOM      5  N   UNL     1      -0.464   9.739  17.703  0.00  0.00    +0.000 NA
ATOM      6  C   UNL     1       0.762   9.607  18.225  0.00  0.00    +0.000 A 
ATOM      7  N   UNL     1       1.454   8.460  17.873  0.00  0.00    +0.000 N 
ATOM      8  C   UNL     1       1.315  10.597  19.008  0.00  0.00    +0.000 A 
ATOM      9  C   UNL     1       0.541  11.706  19.299  0.00  0.00    +0.000 A 
ATOM     10  N   UNL     1      -0.701  11.844  18.801  0.00  0.00    +0.000 NA
ATOM     11  H   UNL     1       0.805   7.830  17.409  0.00  0.00    +0.000 HD
BRANCH   9  12
ATOM     12  C   UNL     1       1.029  12.790  20.172  0.00  0.00    +0.000 A 
ATOM     13  C   UNL     1       0.186  13.370  21.133  0.00  0.00    +0.000 A 
ATOM     14  C   UNL     1       0.628  14.393  21.985  0.00  0.00    +0.000 A 
ATOM     15  C   UNL     1       1.950  14.864  21.885  0.00  0.00    +0.000 A 
ATOM     16  N   UNL     1       2.520  15.867  22.652  0.00  0.00    +0.000 NA
ATOM     17  C   UNL     1       3.768  16.044  22.282  0.00  0.00    +0.000 A 
ATOM     18  S   UNL     1       4.341  15.038  21.022  0.00  0.00    +0.000 S 
ATOM     19  C   UNL     1       2.791  14.289  20.934  0.00  0.00    +0.000 A 
ATOM     20  C   UNL     1       2.354  13.265  20.076  0.00  0.00    +0.000 A 
ENDBRANCH   9  12
ENDBRANCH   1   7
BRANCH   1  21
ATOM     21  C   UNL     1       2.774   6.430  18.337  0.00  0.00    +0.000 A 
ATOM     22  C   UNL     1       2.232   5.268  18.897  0.00  0.00    +0.000 A 
ATOM     23  C   UNL     1       2.688   4.015  18.493  0.00  0.00    +0.000 A 
ATOM     24  C   UNL     1       3.692   3.906  17.526  0.00  0.00    +0.000 A 
ATOM     25  C   UNL     1       4.260   5.044  16.931  0.00  0.00    +0.000 A 
ATOM     26  C   UNL     1       3.776   6.295  17.353  0.00  0.00    +0.000 A 
BRANCH  25  27
ATOM     27  C   UNL     1       5.343   4.946  15.928  0.00  0.00    +0.000 A 
ATOM     28  C   UNL     1       6.577   5.575  16.101  0.00  0.00    +0.000 A 
ATOM     29  N   UNL     1       7.601   5.544  15.211  0.00  0.00    +0.000 NA
ATOM     30  C   UNL     1       7.390   4.855  14.066  0.00  0.00    +0.000 A 
ATOM     31  C   UNL     1       6.212   4.192  13.768  0.00  0.00    +0.000 A 
ATOM     32  C   UNL     1       5.186   4.239  14.723  0.00  0.00    +0.000 A 
BRANCH  31  33
ATOM     33  C   UNL     1       5.976   3.454  12.504  0.00  0.00    +0.000 C 
ATOM     34  N   UNL     1       4.717   3.427  11.970  0.00  0.00    +0.000 N 
ATOM     35  O   UNL     1       6.891   2.865  11.938  0.00  0.00    +0.000 OA
ATOM     36  H   UNL     1       3.896   3.865  12.354  0.00  0.00    +0.000 HD
ATOM     37  H   UNL     1       4.607   2.905  11.109  0.00  0.00    +0.000 HD
ENDBRANCH  31  33
ENDBRANCH  25  27
ENDBRANCH   1  21
TORSDOF 5
ENDMDL
