MODEL 1
REMARK VINA RESULT:      -6.3      0.000      0.000
REMARK  Name = 
REMARK  9 active torsions:
REMARK  status: ('A' for Active; 'I' for Inactive)
REMARK    1  A    between atoms: C_1  and  C_2
REMARK    2  A    between atoms: C_2  and  O_3
REMARK    3  A    between atoms: O_3  and  C_4
REMARK    4  A    between atoms: C_4  and  C_5
REMARK    5  A    between atoms: C_5  and  C_6
REMARK    6  A    between atoms: C_6  and  N_7
REMARK    7  A    between atoms: C_8  and  C_10
REMARK    8  A    between atoms: N_18  and  C_19
REMARK    9  A    between atoms: C_19  and  C_20
REMARK                            x       y       z     vdW  Elec       q    Type
REMARK                         _______ _______ _______ _____ _____    ______ ____
ROOT
ATOM      1  C   UNL     1       5.580   4.663  16.337  0.00  0.00    +0.000 A 
ATOM      2  C   UNL     1       4.629   3.684  16.604  0.00  0.00    +0.000 A 
ATOM      3  C   UNL     1       3.829   4.171  17.671  0.00  0.00    +0.000 A 
ATOM      4  S   UNL     1       2.500   3.651  18.654  0.00  0.00    +0.000 S 
ATOM      5  C   UNL     1       2.594   5.113  19.514  0.00  0.00    +0.000 A 
ATOM      6 CL   UNL     1       1.501   5.375  20.819  0.00  0.00    +0.000 Cl
ATOM      7  C   UNL     1       3.554   5.997  19.088  0.00  0.00    +0.000 A 
ATOM      8  C   UNL     1       4.271   5.416  18.004  0.00  0.00    +0.000 A 
ATOM      9  N   UNL     1       5.313   5.745  17.160  0.00  0.00    +0.000 N 
ENDROOT
BRANCH   1  11
ATOM     10  N   UNL     1       6.348   4.748  14.080  0.00  0.00    +0.000 N 
ATOM     11  C   UNL     1       6.698   4.602  15.405  0.00  0.00    +0.000 C 
ATOM     12  O   UNL     1       7.858   4.436  15.763  0.00  0.00    +0.000 OA
ATOM     13  H   UNL     1       5.394   4.986  13.848  0.00  0.00    +0.000 HD
BRANCH  10  14
ATOM     14  C   UNL     1       7.320   4.644  13.010  0.00  0.00    +0.000 C 
BRANCH  14  15
ATOM     15  C   UNL     1       6.968   3.515  12.042  0.00  0.00    +0.000 C 
BRANCH  15  16
ATOM     16  C   UNL     1       5.470   3.233  12.033  0.00  0.00    +0.000 C 
BRANCH  16  17
ATOM     17  O   UNL     1       5.240   1.980  11.398  0.00  0.00    +0.000 OA
BRANCH  17  19
ATOM     18  C   UNL     1       6.139  -0.217  11.224  0.00  0.00    +0.000 C 
ATOM     19  C   UNL     1       6.445   1.265  11.146  0.00  0.00    +0.000 C 
ENDBRANCH  17  19
ENDBRANCH  16  17
ENDBRANCH  15  16
ENDBRANCH  14  15
ENDBRANCH  10  14
ENDBRANCH   1  11
BRANCH   9  20
ATOM     20  C   UNL     1       5.923   7.062  17.121  0.00  0.00    +0.000 C 
ATOM     21  C   UNL     1       7.305   7.113  17.747  0.00  0.00    +0.000 C 
ENDBRANCH   9  20
TORSDOF 7
ENDMDL
MODEL 2
REMARK VINA RESULT:      -6.3      3.664      5.731
REMARK  Name = 
REMARK  9 active torsions:
REMARK  status: ('A' for Active; 'I' for Inactive)
REMARK    1  A    between atoms: C_1  and  C_2
REMARK    2  A    between atoms: C_2  and  O_3
REMARK    3  A    between atoms: O_3  and  C_4
REMARK    4  A    between atoms: C_4  and  C_5
REMARK    5  A    between atoms: C_5  and  C_6
REMARK    6  A    between atoms: C_6  and  N_7
REMARK    7  A    between atoms: C_8  and  C_10
REMARK    8  A    between atoms: N_18  and  C_19
REMARK    9  A    between atoms: C_19  and  C_20
REMARK                            x       y       z     vdW  Elec       q    Type
REMARK                         _______ _______ _______ _____ _____    ______ ____
ROOT
ATOM      1  C   UNL     1       2.745   6.121  18.336  0.00  0.00    +0.000 A 
ATOM      2  C   UNL     1       2.558   7.420  17.873  0.00  0.00    +0.000 A 
ATOM      3  C   UNL     1       1.974   8.154  18.939  0.00  0.00    +0.000 A 
ATOM      4  S   UNL     1       1.378   9.750  19.258  0.00  0.00    +0.000 S 
ATOM      5  C   UNL     1       0.943   9.251  20.822  0.00  0.00    +0.000 A 
ATOM      6 CL   UNL     1       0.180  10.386  21.868  0.00  0.00    +0.000 Cl
ATOM      7  C   UNL     1       1.247   7.951  21.141  0.00  0.00    +0.000 A 
ATOM      8  C   UNL     1       1.849   7.324  20.013  0.00  0.00    +0.000 A 
ATOM      9  N   UNL     1       2.363   6.090  19.668  0.00  0.00    +0.000 N 
ENDROOT
BRANCH   1  11
ATOM     10  N   UNL     1       4.485   5.083  17.078  0.00  0.00    +0.000 N 
ATOM     11  C   UNL     1       3.212   4.959  17.594  0.00  0.00    +0.000 C 
ATOM     12  O   UNL     1       2.536   3.949  17.438  0.00  0.00    +0.000 OA
ATOM     13  H   UNL     1       5.037   5.891  17.324  0.00  0.00    +0.000 HD
BRANCH  10  14
ATOM     14  C   UNL     1       5.086   4.054  16.253  0.00  0.00    +0.000 C 
BRANCH  14  15
ATOM     15  C   UNL     1       6.589   4.273  16.091  0.00  0.00    +0.000 C 
BRANCH  15  16
ATOM     16  C   UNL     1       7.195   4.927  17.329  0.00  0.00    +0.000 C 
BRANCH  16  17
ATOM     17  O   UNL     1       7.524   6.277  17.023  0.00  0.00    +0.000 OA
BRANCH  17  19
ATOM     18  C   UNL     1       7.941   8.498  17.770  0.00  0.00    +0.000 C 
ATOM     19  C   UNL     1       7.818   7.045  18.185  0.00  0.00    +0.000 C 
ENDBRANCH  17  19
ENDBRANCH  16  17
ENDBRANCH  15  16
ENDBRANCH  14  15
ENDBRANCH  10  14
ENDBRANCH   1  11
BRANCH   9  20
ATOM     20  C   UNL     1       2.540   5.006  20.617  0.00  0.00    +0.000 C 
ATOM     21  C   UNL     1       1.337   4.085  20.723  0.00  0.00    +0.000 C 
ENDBRANCH   9  20
TORSDOF 7
ENDMDL
MODEL 3
REMARK VINA RESULT:      -6.2      0.979      1.506
REMARK  Name = 
REMARK  9 active torsions:
REMARK  status: ('A' for Active; 'I' for Inactive)
REMARK    1  A    between atoms: C_1  and  C_2
REMARK    2  A    between atoms: C_2  and  O_3
REMARK    3  A    between atoms: O_3  and  C_4
REMARK    4  A    between atoms: C_4  and  C_5
REMARK    5  A    between atoms: C_5  and  C_6
REMARK    6  A    between atoms: C_6  and  N_7
REMARK    7  A    between atoms: C_8  and  C_10
REMARK    8  A    between atoms: N_18  and  C_19
REMARK    9  A    between atoms: C_19  and  C_20
REMARK                            x       y       z     vdW  Elec       q    Type
REMARK                         _______ _______ _______ _____ _____    ______ ____
ROOT
ATOM      1  C   UNL     1       5.551   4.647  16.165  0.00  0.00    +0.000 A 
ATOM      2  C   UNL     1       4.561   3.699  16.398  0.00  0.00    +0.000 A 
ATOM      3  C   UNL     1       3.818   4.150  17.521  0.00  0.00    +0.000 A 
ATOM      4  S   UNL     1       2.495   3.629  18.512  0.00  0.00    +0.000 S 
ATOM      5  C   UNL     1       2.688   5.023  19.463  0.00  0.00    +0.000 A 
ATOM      6 CL   UNL     1       1.648   5.247  20.818  0.00  0.00    +0.000 Cl
ATOM      7  C   UNL     1       3.677   5.887  19.064  0.00  0.00    +0.000 A 
ATOM      8  C   UNL     1       4.332   5.348  17.921  0.00  0.00    +0.000 A 
ATOM      9  N   UNL     1       5.362   5.683  17.066  0.00  0.00    +0.000 N 
ENDROOT
BRANCH   1  11
ATOM     10  N   UNL     1       6.226   4.523  13.881  0.00  0.00    +0.000 N 
ATOM     11  C   UNL     1       6.636   4.597  15.194  0.00  0.00    +0.000 C 
ATOM     12  O   UNL     1       7.818   4.620  15.513  0.00  0.00    +0.000 OA
ATOM     13  H   UNL     1       5.243   4.613  13.668  0.00  0.00    +0.000 HD
BRANCH  10  14
ATOM     14  C   UNL     1       7.167   4.394  12.785  0.00  0.00    +0.000 C 
BRANCH  14  15
ATOM     15  C   UNL     1       6.727   3.318  11.793  0.00  0.00    +0.000 C 
BRANCH  15  16
ATOM     16  C   UNL     1       5.383   2.713  12.184  0.00  0.00    +0.000 C 
BRANCH  16  17
ATOM     17  O   UNL     1       4.538   2.689  11.039  0.00  0.00    +0.000 OA
BRANCH  17  19
ATOM     18  C   UNL     1       3.048   3.865   9.603  0.00  0.00    +0.000 C 
ATOM     19  C   UNL     1       3.645   3.797  10.995  0.00  0.00    +0.000 C 
ENDBRANCH  17  19
ENDBRANCH  16  17
ENDBRANCH  15  16
ENDBRANCH  14  15
ENDBRANCH  10  14
ENDBRANCH   1  11
BRANCH   9  20
ATOM     20  C   UNL     1       6.036   6.969  17.094  0.00  0.00    +0.000 C 
ATOM     21  C   UNL     1       7.341   6.958  17.870  0.00  0.00    +0.000 C 
ENDBRANCH   9  20
TORSDOF 7
ENDMDL
MODEL 4
REMARK VINA RESULT:      -6.1      1.549      1.995
REMARK  Name = 
REMARK  9 active torsions:
REMARK  status: ('A' for Active; 'I' for Inactive)
REMARK    1  A    between atoms: C_1  and  C_2
REMARK    2  A    between atoms: C_2  and  O_3
REMARK    3  A    between atoms: O_3  and  C_4
REMARK    4  A    between atoms: C_4  and  C_5
REMARK    5  A    between atoms: C_5  and  C_6
REMARK    6  A    between atoms: C_6  and  N_7
REMARK    7  A    between atoms: C_8  and  C_10
REMARK    8  A    between atoms: N_18  and  C_19
REMARK    9  A    between atoms: C_19  and  C_20
REMARK                            x       y       z     vdW  Elec       q    Type
REMARK                         _______ _______ _______ _____ _____    ______ ____
ROOT
ATOM      1  C   UNL     1       5.228   4.018  16.822  0.00  0.00    +0.000 A 
ATOM      2  C   UNL     1       4.508   2.836  16.962  0.00  0.00    +0.000 A 
ATOM      3  C   UNL     1       3.663   3.003  18.091  0.00  0.00    +0.000 A 
ATOM      4  S   UNL     1       2.505   2.094  19.005  0.00  0.00    +0.000 S 
ATOM      5  C   UNL     1       2.328   3.418  20.055  0.00  0.00    +0.000 A 
ATOM      6 CL   UNL     1       1.252   3.274  21.391  0.00  0.00    +0.000 Cl
ATOM      7  C   UNL     1       3.071   4.530  19.745  0.00  0.00    +0.000 A 
ATOM      8  C   UNL     1       3.853   4.258  18.586  0.00  0.00    +0.000 A 
ATOM      9  N   UNL     1       4.775   4.904  17.786  0.00  0.00    +0.000 N 
ENDROOT
BRANCH   1  11
ATOM     10  N   UNL     1       5.895   4.438  14.571  0.00  0.00    +0.000 N 
ATOM     11  C   UNL     1       6.301   4.313  15.882  0.00  0.00    +0.000 C 
ATOM     12  O   UNL     1       7.471   4.442  16.223  0.00  0.00    +0.000 OA
ATOM     13  H   UNL     1       4.908   4.426  14.360  0.00  0.00    +0.000 HD
BRANCH  10  14
ATOM     14  C   UNL     1       6.835   4.661  13.491  0.00  0.00    +0.000 C 
BRANCH  14  15
ATOM     15  C   UNL     1       6.539   3.757  12.295  0.00  0.00    +0.000 C 
BRANCH  15  16
ATOM     16  C   UNL     1       5.112   3.220  12.341  0.00  0.00    +0.000 C 
BRANCH  16  17
ATOM     17  O   UNL     1       4.696   2.903  11.017  0.00  0.00    +0.000 OA
BRANCH  17  19
ATOM     18  C   UNL     1       3.111   4.120   9.724  0.00  0.00    +0.000 C 
ATOM     19  C   UNL     1       3.298   3.094  10.824  0.00  0.00    +0.000 C 
ENDBRANCH  17  19
ENDBRANCH  16  17
ENDBRANCH  15  16
ENDBRANCH  14  15
ENDBRANCH  10  14
ENDBRANCH   1  11
BRANCH   9  20
ATOM     20  C   UNL     1       5.101   6.312  17.921  0.00  0.00    +0.000 C 
ATOM     21  C   UNL     1       4.080   7.239  17.284  0.00  0.00    +0.000 C 
ENDBRANCH   9  20
TORSDOF 7
ENDMDL
MODEL 5
REMARK VINA RESULT:      -6.1      4.148      6.668
REMARK  Name = 
REMARK  9 active torsions:
REMARK  status: ('A' for Active; 'I' for Inactive)
REMARK    1  A    between atoms: C_1  and  C_2
REMARK    2  A    between atoms: C_2  and  O_3
REMARK    3  A    between atoms: O_3  and  C_4
REMARK    4  A    between atoms: C_4  and  C_5
REMARK    5  A    between atoms: C_5  and  C_6
REMARK    6  A    between atoms: C_6  and  N_7
REMARK    7  A    between atoms: C_8  and  C_10
REMARK    8  A    between atoms: N_18  and  C_19
REMARK    9  A    between atoms: C_19  and  C_20
REMARK                            x       y       z     vdW  Elec       q    Type
REMARK                         _______ _______ _______ _____ _____    ______ ____
ROOT
ATOM      1  C   UNL     1       5.290   4.110  17.678  0.00  0.00    +0.000 A 
ATOM      2  C   UNL     1       4.723   3.639  16.498  0.00  0.00    +0.000 A 
ATOM      3  C   UNL     1       5.572   4.059  15.440  0.00  0.00    +0.000 A 
ATOM      4  S   UNL     1       5.644   3.981  13.710  0.00  0.00    +0.000 S 
ATOM      5  C   UNL     1       7.082   4.885  13.753  0.00  0.00    +0.000 A 
ATOM      6 CL   UNL     1       7.845   5.292  12.264  0.00  0.00    +0.000 Cl
ATOM      7  C   UNL     1       7.538   5.224  15.002  0.00  0.00    +0.000 A 
ATOM      8  C   UNL     1       6.628   4.730  15.979  0.00  0.00    +0.000 A 
ATOM      9  N   UNL     1       6.489   4.724  17.353  0.00  0.00    +0.000 N 
ENDROOT
BRANCH   1  11
ATOM     10  N   UNL     1       3.673   4.864  19.261  0.00  0.00    +0.000 N 
ATOM     11  C   UNL     1       4.750   4.036  19.028  0.00  0.00    +0.000 C 
ATOM     12  O   UNL     1       5.210   3.299  19.892  0.00  0.00    +0.000 OA
ATOM     13  H   UNL     1       3.269   5.372  18.488  0.00  0.00    +0.000 HD
BRANCH  10  14
ATOM     14  C   UNL     1       3.053   4.974  20.567  0.00  0.00    +0.000 C 
BRANCH  14  15
ATOM     15  C   UNL     1       1.529   4.907  20.470  0.00  0.00    +0.000 C 
BRANCH  15  16
ATOM     16  C   UNL     1       1.014   3.498  20.744  0.00  0.00    +0.000 C 
BRANCH  16  17
ATOM     17  O   UNL     1       2.068   2.569  20.517  0.00  0.00    +0.000 OA
BRANCH  17  19
ATOM     18  C   UNL     1       0.573   2.232  18.697  0.00  0.00    +0.000 C 
ATOM     19  C   UNL     1       1.905   1.840  19.306  0.00  0.00    +0.000 C 
ENDBRANCH  17  19
ENDBRANCH  16  17
ENDBRANCH  15  16
ENDBRANCH  14  15
ENDBRANCH  10  14
ENDBRANCH   1  11
BRANCH   9  20
ATOM     20  C   UNL     1       7.512   5.210  18.261  0.00  0.00    +0.000 C 
ATOM     21  C   UNL     1       7.694   6.717  18.226  0.00  0.00    +0.000 C 
ENDBRANCH   9  20
TORSDOF 7
ENDMDL
MODEL 6
REMARK VINA RESULT:      -6.0      4.126      6.512
REMARK  Name = 
REMARK  9 active torsions:
REMARK  status: ('A' for Active; 'I' for Inactive)
REMARK    1  A    between atoms: C_1  and  C_2
REMARK    2  A    between atoms: C_2  and  O_3
REMARK    3  A    between atoms: O_3  and  C_4
REMARK    4  A    between atoms: C_4  and  C_5
REMARK    5  A    between atoms: C_5  and  C_6
REMARK    6  A    between atoms: C_6  and  N_7
REMARK    7  A    between atoms: C_8  and  C_10
REMARK    8  A    between atoms: N_18  and  C_19
REMARK    9  A    between atoms: C_19  and  C_20
REMARK                            x       y       z     vdW  Elec       q    Type
REMARK                         _______ _______ _______ _____ _____    ______ ____
ROOT
ATOM      1  C   UNL     1       5.332   4.132  17.783  0.00  0.00    +0.000 A 
ATOM      2  C   UNL     1       4.695   3.715  16.618  0.00  0.00    +0.000 A 
ATOM      3  C   UNL     1       5.540   4.080  15.537  0.00  0.00    +0.000 A 
ATOM      4  S   UNL     1       5.553   4.012  13.805  0.00  0.00    +0.000 S 
ATOM      5  C   UNL     1       7.054   4.807  13.808  0.00  0.00    +0.000 A 
ATOM      6 CL   UNL     1       7.799   5.169  12.299  0.00  0.00    +0.000 Cl
ATOM      7  C   UNL     1       7.573   5.101  15.045  0.00  0.00    +0.000 A 
ATOM      8  C   UNL     1       6.659   4.666  16.047  0.00  0.00    +0.000 A 
ATOM      9  N   UNL     1       6.562   4.659  17.424  0.00  0.00    +0.000 N 
ENDROOT
BRANCH   1  11
ATOM     10  N   UNL     1       4.170   2.922  19.478  0.00  0.00    +0.000 N 
ATOM     11  C   UNL     1       4.830   4.086  19.149  0.00  0.00    +0.000 C 
ATOM     12  O   UNL     1       4.981   5.004  19.947  0.00  0.00    +0.000 OA
ATOM     13  H   UNL     1       4.165   2.158  18.819  0.00  0.00    +0.000 HD
BRANCH  10  14
ATOM     14  C   UNL     1       3.544   2.730  20.772  0.00  0.00    +0.000 C 
BRANCH  14  15
ATOM     15  C   UNL     1       2.025   2.610  20.646  0.00  0.00    +0.000 C 
BRANCH  15  16
ATOM     16  C   UNL     1       1.434   3.783  19.871  0.00  0.00    +0.000 C 
BRANCH  16  17
ATOM     17  O   UNL     1       1.127   3.355  18.549  0.00  0.00    +0.000 OA
BRANCH  17  19
ATOM     18  C   UNL     1       1.881   5.598  18.294  0.00  0.00    +0.000 C 
ATOM     19  C   UNL     1       1.407   4.351  17.573  0.00  0.00    +0.000 C 
ENDBRANCH  17  19
ENDBRANCH  16  17
ENDBRANCH  15  16
ENDBRANCH  14  15
ENDBRANCH  10  14
ENDBRANCH   1  11
BRANCH   9  20
ATOM     20  C   UNL     1       7.647   5.059  18.302  0.00  0.00    +0.000 C 
ATOM     21  C   UNL     1       7.769   6.563  18.474  0.00  0.00    +0.000 C 
ENDBRANCH   9  20
TORSDOF 7
ENDMDL
MODEL 7
REMARK VINA RESULT:      -6.0      1.765      2.096
REMARK  Name = 
REMARK  9 active torsions:
REMARK  status: ('A' for Active; 'I' for Inactive)
REMARK    1  A    between atoms: C_1  and  C_2
REMARK    2  A    between atoms: C_2  and  O_3
REMARK    3  A    between atoms: O_3  and  C_4
REMARK    4  A    between atoms: C_4  and  C_5
REMARK    5  A    between atoms: C_5  and  C_6
REMARK    6  A    between atoms: C_6  and  N_7
REMARK    7  A    between atoms: C_8  and  C_10
REMARK    8  A    between atoms: N_18  and  C_19
REMARK    9  A    between atoms: C_19  and  C_20
REMARK                            x       y       z     vdW  Elec       q    Type
REMARK                         _______ _______ _______ _____ _____    ______ ____
ROOT
ATOM      1  C   UNL     1       4.846   4.647  16.480  0.00  0.00    +0.000 A 
ATOM      2  C   UNL     1       3.763   3.775  16.445  0.00  0.00    +0.000 A 
ATOM      3  C   UNL     1       3.429   3.483  17.794  0.00  0.00    +0.000 A 
ATOM      4  S   UNL     1       2.306   2.508  18.683  0.00  0.00    +0.000 S 
ATOM      5  C   UNL     1       3.016   3.048  20.128  0.00  0.00    +0.000 A 
ATOM      6 CL   UNL     1       2.409   2.444  21.622  0.00  0.00    +0.000 Cl
ATOM      7  C   UNL     1       4.039   3.952  19.990  0.00  0.00    +0.000 A 
ATOM      8  C   UNL     1       4.267   4.188  18.604  0.00  0.00    +0.000 A 
ATOM      9  N   UNL     1       5.107   4.941  17.809  0.00  0.00    +0.000 N 
ENDROOT
BRANCH   1  11
ATOM     10  N   UNL     1       6.268   4.191  14.620  0.00  0.00    +0.000 N 
ATOM     11  C   UNL     1       5.626   5.159  15.362  0.00  0.00    +0.000 C 
ATOM     12  O   UNL     1       5.709   6.352  15.095  0.00  0.00    +0.000 OA
ATOM     13  H   UNL     1       6.083   3.219  14.819  0.00  0.00    +0.000 HD
BRANCH  10  14
ATOM     14  C   UNL     1       7.146   4.522  13.515  0.00  0.00    +0.000 C 
BRANCH  14  15
ATOM     15  C   UNL     1       6.680   3.865  12.215  0.00  0.00    +0.000 C 
BRANCH  15  16
ATOM     16  C   UNL     1       5.357   3.130  12.403  0.00  0.00    +0.000 C 
BRANCH  16  17
ATOM     17  O   UNL     1       4.757   2.929  11.128  0.00  0.00    +0.000 OA
BRANCH  17  19
ATOM     18  C   UNL     1       3.141   3.986   9.737  0.00  0.00    +0.000 C 
ATOM     19  C   UNL     1       3.399   3.354  11.091  0.00  0.00    +0.000 C 
ENDBRANCH  17  19
ENDBRANCH  16  17
ENDBRANCH  15  16
ENDBRANCH  14  15
ENDBRANCH  10  14
ENDBRANCH   1  11
BRANCH   9  20
ATOM     20  C   UNL     1       6.025   5.935  18.334  0.00  0.00    +0.000 C 
ATOM     21  C   UNL     1       7.442   5.422  18.516  0.00  0.00    +0.000 C 
ENDBRANCH   9  20
TORSDOF 7
ENDMDL
MODEL 8
REMARK VINA RESULT:      -6.0      4.056      6.419
REMARK  Name = 
REMARK  9 active torsions:
REMARK  status: ('A' for Active; 'I' for Inactive)
REMARK    1  A    between atoms: C_1  and  C_2
REMARK    2  A    between atoms: C_2  and  O_3
REMARK    3  A    between atoms: O_3  and  C_4
REMARK    4  A    between atoms: C_4  and  C_5
REMARK    5  A    between atoms: C_5  and  C_6
REMARK    6  A    between atoms: C_6  and  N_7
REMARK    7  A    between atoms: C_8  and  C_10
REMARK    8  A    between atoms: N_18  and  C_19
REMARK    9  A    between atoms: C_19  and  C_20
REMARK                            x       y       z     vdW  Elec       q    Type
REMARK                         _______ _______ _______ _____ _____    ______ ____
ROOT
ATOM      1  C   UNL     1       5.170   4.892  17.502  0.00  0.00    +0.000 A 
ATOM      2  C   UNL     1       4.537   4.166  16.498  0.00  0.00    +0.000 A 
ATOM      3  C   UNL     1       5.359   4.263  15.344  0.00  0.00    +0.000 A 
ATOM      4  S   UNL     1       5.359   3.747  13.690  0.00  0.00    +0.000 S 
ATOM      5  C   UNL     1       6.832   4.561  13.459  0.00  0.00    +0.000 A 
ATOM      6 CL   UNL     1       7.550   4.540  11.894  0.00  0.00    +0.000 Cl
ATOM      7  C   UNL     1       7.351   5.182  14.567  0.00  0.00    +0.000 A 
ATOM      8  C   UNL     1       6.462   4.996  15.664  0.00  0.00    +0.000 A 
ATOM      9  N   UNL     1       6.378   5.345  16.997  0.00  0.00    +0.000 N 
ENDROOT
BRANCH   1  11
ATOM     10  N   UNL     1       3.324   5.404  18.923  0.00  0.00    +0.000 N 
ATOM     11  C   UNL     1       4.682   5.188  18.842  0.00  0.00    +0.000 C 
ATOM     12  O   UNL     1       5.415   5.241  19.823  0.00  0.00    +0.000 OA
ATOM     13  H   UNL     1       2.753   5.246  18.106  0.00  0.00    +0.000 HD
BRANCH  10  14
ATOM     14  C   UNL     1       2.675   5.781  20.164  0.00  0.00    +0.000 C 
BRANCH  14  15
ATOM     15  C   UNL     1       1.979   4.587  20.816  0.00  0.00    +0.000 C 
BRANCH  15  16
ATOM     16  C   UNL     1       1.070   3.862  19.829  0.00  0.00    +0.000 C 
BRANCH  16  17
ATOM     17  O   UNL     1       1.413   2.481  19.814  0.00  0.00    +0.000 OA
BRANCH  17  19
ATOM     18  C   UNL     1       3.309   1.634  18.651  0.00  0.00    +0.000 C 
ATOM     19  C   UNL     1       1.854   2.042  18.534  0.00  0.00    +0.000 C 
ENDBRANCH  17  19
ENDBRANCH  16  17
ENDBRANCH  15  16
ENDBRANCH  14  15
ENDBRANCH  10  14
ENDBRANCH   1  11
BRANCH   9  20
ATOM     20  C   UNL     1       7.456   5.994  17.722  0.00  0.00    +0.000 C 
ATOM     21  C   UNL     1       7.517   7.496  17.507  0.00  0.00    +0.000 C 
ENDBRANCH   9  20
TORSDOF 7
ENDMDL
MODEL 9
REMARK VINA RESULT:      -5.9      3.132      4.605
REMARK  Name = 
REMARK  9 active torsions:
REMARK  status: ('A' for Active; 'I' for Inactive)
REMARK    1  A    between atoms: C_1  and  C_2
REMARK    2  A    between atoms: C_2  and  O_3
REMARK    3  A    between atoms: O_3  and  C_4
REMARK    4  A    between atoms: C_4  and  C_5
REMARK    5  A    between atoms: C_5  and  C_6
REMARK    6  A    between atoms: C_6  and  N_7
REMARK    7  A    between atoms: C_8  and  C_10
REMARK    8  A    between atoms: N_18  and  C_19
REMARK    9  A    between atoms: C_19  and  C_20
REMARK                            x       y       z     vdW  Elec       q    Type
REMARK                         _______ _______ _______ _____ _____    ______ ____
ROOT
ATOM      1  C   UNL     1       2.747   6.502  18.562  0.00  0.00    +0.000 A 
ATOM      2  C   UNL     1       2.490   7.818  18.190  0.00  0.00    +0.000 A 
ATOM      3  C   UNL     1       1.784   8.417  19.266  0.00  0.00    +0.000 A 
ATOM      4  S   UNL     1       1.046   9.933  19.665  0.00  0.00    +0.000 S 
ATOM      5  C   UNL     1       0.551   9.276  21.151  0.00  0.00    +0.000 A 
ATOM      6 CL   UNL     1      -0.364  10.262  22.226  0.00  0.00    +0.000 Cl
ATOM      7  C   UNL     1       0.934   7.980  21.388  0.00  0.00    +0.000 A 
ATOM      8  C   UNL     1       1.655   7.494  20.260  0.00  0.00    +0.000 A 
ATOM      9  N   UNL     1       2.284   6.333  19.858  0.00  0.00    +0.000 N 
ENDROOT
BRANCH   1  11
ATOM     10  N   UNL     1       4.702   5.596  17.539  0.00  0.00    +0.000 N 
ATOM     11  C   UNL     1       3.351   5.443  17.767  0.00  0.00    +0.000 C 
ATOM     12  O   UNL     1       2.716   4.489  17.333  0.00  0.00    +0.000 OA
ATOM     13  H   UNL     1       5.196   6.342  18.006  0.00  0.00    +0.000 HD
BRANCH  10  14
ATOM     14  C   UNL     1       5.453   4.675  16.709  0.00  0.00    +0.000 C 
BRANCH  14  15
ATOM     15  C   UNL     1       5.340   5.036  15.229  0.00  0.00    +0.000 C 
BRANCH  15  16
ATOM     16  C   UNL     1       6.592   4.633  14.457  0.00  0.00    +0.000 C 
BRANCH  16  17
ATOM     17  O   UNL     1       6.337   3.415  13.766  0.00  0.00    +0.000 OA
BRANCH  17  19
ATOM     18  C   UNL     1       4.989   3.197  11.817  0.00  0.00    +0.000 C 
ATOM     19  C   UNL     1       6.355   3.575  12.352  0.00  0.00    +0.000 C 
ENDBRANCH  17  19
ENDBRANCH  16  17
ENDBRANCH  15  16
ENDBRANCH  14  15
ENDBRANCH  10  14
ENDBRANCH   1  11
BRANCH   9  20
ATOM     20  C   UNL     1       2.484   5.190  20.730  0.00  0.00    +0.000 C 
ATOM     21  C   UNL     1       1.324   4.210  20.726  0.00  0.00    +0.000 C 
ENDBRANCH   9  20
TORSDOF 7
ENDMDL
