MODEL 1
REMARK VINA RESULT:      -7.2      0.000      0.000
REMARK  Name = 
REMARK  7 active torsions:
REMARK  status: ('A' for Active; 'I' for Inactive)
REMARK    1  A    between atoms: C_1  and  C_2
REMARK    2  A    between atoms: N_4  and  C_5
REMARK    3  A    between atoms: C_7  and  C_8
REMARK    4  A    between atoms: C_8  and  C_9
REMARK    5  A    between atoms: C_8  and  N_10
REMARK    6  A    between atoms: C_11  and  C_13
REMARK    7  A    between atoms: N_16  and  C_17
REMARK                            x       y       z     vdW  Elec       q    Type
REMARK                         _______ _______ _______ _____ _____    ______ ____
ROOT
ATOM      1  C   UNL     1       2.601   5.157  18.011  0.00  0.00    +0.000 C 
ATOM      2  C   UNL     1       2.424   6.611  17.553  0.00  0.00    +0.000 C 
ATOM      3  C   UNL     1       2.912   7.563  18.639  0.00  0.00    +0.000 C 
ATOM      4  N   UNL     1       2.101   7.346  19.844  0.00  0.00    +0.000 N 
ATOM      5  C   UNL     1       2.257   5.994  20.409  0.00  0.00    +0.000 C 
ATOM      6  C   UNL     1       1.872   4.947  19.353  0.00  0.00    +0.000 C 
ENDROOT
BRANCH   4   7
ATOM      7  C   UNL     1       1.436   8.384  20.503  0.00  0.00    +0.000 A 
ATOM      8  C   UNL     1       0.862   9.515  19.704  0.00  0.00    +0.000 A 
ATOM      9  N   UNL     1       0.244  10.559  20.156  0.00  0.00    +0.000 NA
ATOM     10  N   UNL     1       0.093  10.618  21.506  0.00  0.00    +0.000 N 
ATOM     11  C   UNL     1       0.491   9.651  22.392  0.00  0.00    +0.000 A 
ATOM     12  O   UNL     1       0.293   9.729  23.598  0.00  0.00    +0.000 OA
ATOM     13  C   UNL     1       1.194   8.489  21.816  0.00  0.00    +0.000 A 
ATOM     14  H   UNL     1      -0.396  11.426  21.876  0.00  0.00    +0.000 HD
ENDBRANCH   4   7
BRANCH   1  16
ATOM     15  N   UNL     1       4.861   5.226  17.075  0.00  0.00    +0.000 N 
ATOM     16  C   UNL     1       4.081   4.785  18.119  0.00  0.00    +0.000 C 
ATOM     17  O   UNL     1       4.541   4.154  19.066  0.00  0.00    +0.000 OA
ATOM     18  H   UNL     1       4.429   5.556  16.223  0.00  0.00    +0.000 HD
BRANCH  15  19
ATOM     19  C   UNL     1       6.292   4.979  17.054  0.00  0.00    +0.000 C 
ATOM     20  C   UNL     1       6.761   4.598  15.650  0.00  0.00    +0.000 C 
BRANCH  19  27
ATOM     21  C   UNL     1       8.174   5.210  19.709  0.00  0.00    +0.000 C 
ATOM     22  C   UNL     1       7.818   6.282  18.744  0.00  0.00    +0.000 A 
ATOM     23  N   UNL     1       8.323   7.511  18.905  0.00  0.00    +0.000 NA
ATOM     24  N   UNL     1       7.843   8.202  17.862  0.00  0.00    +0.000 N 
ATOM     25  C   UNL     1       8.288   9.553  17.620  0.00  0.00    +0.000 C 
ATOM     26  C   UNL     1       6.986   7.484  17.085  0.00  0.00    +0.000 A 
ATOM     27  C   UNL     1       6.979   6.197  17.593  0.00  0.00    +0.000 A 
ENDBRANCH  19  27
ENDBRANCH  15  19
ENDBRANCH   1  16
TORSDOF 4
ENDMDL
MODEL 2
REMARK VINA RESULT:      -7.1      1.126      1.698
REMARK  Name = 
REMARK  7 active torsions:
REMARK  status: ('A' for Active; 'I' for Inactive)
REMARK    1  A    between atoms: C_1  and  C_2
REMARK    2  A    between atoms: N_4  and  C_5
REMARK    3  A    between atoms: C_7  and  C_8
REMARK    4  A    between atoms: C_8  and  C_9
REMARK    5  A    between atoms: C_8  and  N_10
REMARK    6  A    between atoms: C_11  and  C_13
REMARK    7  A    between atoms: N_16  and  C_17
REMARK                            x       y       z     vdW  Elec       q    Type
REMARK                         _______ _______ _______ _____ _____    ______ ____
ROOT
ATOM      1  C   UNL     1       2.109   4.107  18.756  0.00  0.00    +0.000 C 
ATOM      2  C   UNL     1       1.762   5.365  17.949  0.00  0.00    +0.000 C 
ATOM      3  C   UNL     1       2.501   6.571  18.519  0.00  0.00    +0.000 C 
ATOM      4  N   UNL     1       2.066   6.766  19.908  0.00  0.00    +0.000 N 
ATOM      5  C   UNL     1       2.420   5.638  20.788  0.00  0.00    +0.000 C 
ATOM      6  C   UNL     1       1.792   4.346  20.245  0.00  0.00    +0.000 C 
ENDROOT
BRANCH   4   7
ATOM      7  C   UNL     1       1.577   7.988  20.382  0.00  0.00    +0.000 A 
ATOM      8  C   UNL     1       1.287   9.090  19.408  0.00  0.00    +0.000 A 
ATOM      9  N   UNL     1       0.857  10.281  19.680  0.00  0.00    +0.000 NA
ATOM     10  N   UNL     1       0.636  10.544  20.996  0.00  0.00    +0.000 N 
ATOM     11  C   UNL     1       0.781   9.645  22.019  0.00  0.00    +0.000 A 
ATOM     12  O   UNL     1       0.527   9.917  23.186  0.00  0.00    +0.000 OA
ATOM     13  C   UNL     1       1.278   8.308  21.647  0.00  0.00    +0.000 A 
ATOM     14  H   UNL     1       0.292  11.470  21.225  0.00  0.00    +0.000 HD
ENDBRANCH   4   7
BRANCH   1  16
ATOM     15  N   UNL     1       4.213   4.362  17.531  0.00  0.00    +0.000 N 
ATOM     16  C   UNL     1       3.572   3.707  18.557  0.00  0.00    +0.000 C 
ATOM     17  O   UNL     1       4.136   2.875  19.263  0.00  0.00    +0.000 OA
ATOM     18  H   UNL     1       3.677   4.879  16.847  0.00  0.00    +0.000 HD
BRANCH  15  19
ATOM     19  C   UNL     1       5.614   4.112  17.242  0.00  0.00    +0.000 C 
ATOM     20  C   UNL     1       5.778   3.411  15.895  0.00  0.00    +0.000 C 
BRANCH  19  27
ATOM     21  C   UNL     1       5.070   6.810  15.490  0.00  0.00    +0.000 C 
ATOM     22  C   UNL     1       6.081   6.603  16.560  0.00  0.00    +0.000 A 
ATOM     23  N   UNL     1       6.877   7.614  16.923  0.00  0.00    +0.000 NA
ATOM     24  N   UNL     1       7.621   7.107  17.915  0.00  0.00    +0.000 N 
ATOM     25  C   UNL     1       8.517   7.959  18.659  0.00  0.00    +0.000 C 
ATOM     26  C   UNL     1       7.386   5.785  18.146  0.00  0.00    +0.000 A 
ATOM     27  C   UNL     1       6.341   5.421  17.316  0.00  0.00    +0.000 A 
ENDBRANCH  19  27
ENDBRANCH  15  19
ENDBRANCH   1  16
TORSDOF 4
ENDMDL
MODEL 3
REMARK VINA RESULT:      -6.7      0.968      1.271
REMARK  Name = 
REMARK  7 active torsions:
REMARK  status: ('A' for Active; 'I' for Inactive)
REMARK    1  A    between atoms: C_1  and  C_2
REMARK    2  A    between atoms: N_4  and  C_5
REMARK    3  A    between atoms: C_7  and  C_8
REMARK    4  A    between atoms: C_8  and  C_9
REMARK    5  A    between atoms: C_8  and  N_10
REMARK    6  A    between atoms: C_11  and  C_13
REMARK    7  A    between atoms: N_16  and  C_17
REMARK                            x       y       z     vdW  Elec       q    Type
REMARK                         _______ _______ _______ _____ _____    ______ ____
ROOT
ATOM      1  C   UNL     1       2.576   5.238  18.180  0.00  0.00    +0.000 C 
ATOM      2  C   UNL     1       2.385   6.666  17.649  0.00  0.00    +0.000 C 
ATOM      3  C   UNL     1       2.845   7.677  18.693  0.00  0.00    +0.000 C 
ATOM      4  N   UNL     1       2.021   7.506  19.897  0.00  0.00    +0.000 N 
ATOM      5  C   UNL     1       2.188   6.186  20.530  0.00  0.00    +0.000 C 
ATOM      6  C   UNL     1       1.833   5.084  19.521  0.00  0.00    +0.000 C 
ENDROOT
BRANCH   4   7
ATOM      7  C   UNL     1       1.332   8.566  20.497  0.00  0.00    +0.000 A 
ATOM      8  C   UNL     1       1.432   8.762  21.979  0.00  0.00    +0.000 A 
ATOM      9  N   UNL     1       0.843   9.670  22.690  0.00  0.00    +0.000 NA
ATOM     10  N   UNL     1       0.060  10.544  22.002  0.00  0.00    +0.000 N 
ATOM     11  C   UNL     1      -0.101  10.562  20.641  0.00  0.00    +0.000 A 
ATOM     12  O   UNL     1      -0.784  11.398  20.062  0.00  0.00    +0.000 OA
ATOM     13  C   UNL     1       0.591   9.500  19.888  0.00  0.00    +0.000 A 
ATOM     14  H   UNL     1      -0.403  11.266  22.543  0.00  0.00    +0.000 HD
ENDBRANCH   4   7
BRANCH   1  16
ATOM     15  N   UNL     1       4.815   5.121  17.196  0.00  0.00    +0.000 N 
ATOM     16  C   UNL     1       4.060   4.895  18.324  0.00  0.00    +0.000 C 
ATOM     17  O   UNL     1       4.544   4.462  19.367  0.00  0.00    +0.000 OA
ATOM     18  H   UNL     1       4.362   5.277  16.306  0.00  0.00    +0.000 HD
BRANCH  15  19
ATOM     19  C   UNL     1       6.246   4.873  17.191  0.00  0.00    +0.000 C 
ATOM     20  C   UNL     1       6.718   4.422  15.810  0.00  0.00    +0.000 C 
BRANCH  19  27
ATOM     21  C   UNL     1       8.256   5.201  19.740  0.00  0.00    +0.000 C 
ATOM     22  C   UNL     1       7.827   6.245  18.774  0.00  0.00    +0.000 A 
ATOM     23  N   UNL     1       8.310   7.488  18.885  0.00  0.00    +0.000 NA
ATOM     24  N   UNL     1       7.761   8.146  17.856  0.00  0.00    +0.000 N 
ATOM     25  C   UNL     1       8.160   9.502  17.564  0.00  0.00    +0.000 C 
ATOM     26  C   UNL     1       6.881   7.393  17.138  0.00  0.00    +0.000 A 
ATOM     27  C   UNL     1       6.931   6.117  17.670  0.00  0.00    +0.000 A 
ENDBRANCH  19  27
ENDBRANCH  15  19
ENDBRANCH   1  16
TORSDOF 4
ENDMDL
MODEL 4
REMARK VINA RESULT:      -6.7      1.480      2.178
REMARK  Name = 
REMARK  7 active torsions:
REMARK  status: ('A' for Active; 'I' for Inactive)
REMARK    1  A    between atoms: C_1  and  C_2
REMARK    2  A    between atoms: N_4  and  C_5
REMARK    3  A    between atoms: C_7  and  C_8
REMARK    4  A    between atoms: C_8  and  C_9
REMARK    5  A    between atoms: C_8  and  N_10
REMARK    6  A    between atoms: C_11  and  C_13
REMARK    7  A    between atoms: N_16  and  C_17
REMARK                            x       y       z     vdW  Elec       q    Type
REMARK                         _______ _______ _______ _____ _____    ______ ____
ROOT
ATOM      1  C   UNL     1       2.335   4.095  18.793  0.00  0.00    +0.000 C 
ATOM      2  C   UNL     1       1.827   5.219  17.879  0.00  0.00    +0.000 C 
ATOM      3  C   UNL     1       2.479   6.541  18.267  0.00  0.00    +0.000 C 
ATOM      4  N   UNL     1       2.103   6.853  19.653  0.00  0.00    +0.000 N 
ATOM      5  C   UNL     1       2.608   5.867  20.625  0.00  0.00    +0.000 C 
ATOM      6  C   UNL     1       2.076   4.472  20.264  0.00  0.00    +0.000 C 
ENDROOT
BRANCH   4   7
ATOM      7  C   UNL     1       1.526   8.072  20.022  0.00  0.00    +0.000 A 
ATOM      8  C   UNL     1       1.157   8.307  21.456  0.00  0.00    +0.000 A 
ATOM      9  N   UNL     1       0.596   9.360  21.958  0.00  0.00    +0.000 NA
ATOM     10  N   UNL     1       0.330  10.364  21.079  0.00  0.00    +0.000 N 
ATOM     11  C   UNL     1       0.654  10.358  19.747  0.00  0.00    +0.000 A 
ATOM     12  O   UNL     1       0.433  11.306  19.004  0.00  0.00    +0.000 OA
ATOM     13  C   UNL     1       1.286   9.129  19.235  0.00  0.00    +0.000 A 
ATOM     14  H   UNL     1      -0.102  11.200  21.457  0.00  0.00    +0.000 HD
ENDBRANCH   4   7
BRANCH   1  16
ATOM     15  N   UNL     1       4.282   4.203  17.313  0.00  0.00    +0.000 N 
ATOM     16  C   UNL     1       3.816   3.805  18.545  0.00  0.00    +0.000 C 
ATOM     17  O   UNL     1       4.538   3.269  19.382  0.00  0.00    +0.000 OA
ATOM     18  H   UNL     1       3.631   4.447  16.579  0.00  0.00    +0.000 HD
BRANCH  15  19
ATOM     19  C   UNL     1       5.675   4.024  16.946  0.00  0.00    +0.000 C 
ATOM     20  C   UNL     1       5.801   3.480  15.524  0.00  0.00    +0.000 C 
BRANCH  19  27
ATOM     21  C   UNL     1       5.061   6.861  15.457  0.00  0.00    +0.000 C 
ATOM     22  C   UNL     1       6.083   6.577  16.497  0.00  0.00    +0.000 A 
ATOM     23  N   UNL     1       6.861   7.567  16.948  0.00  0.00    +0.000 NA
ATOM     24  N   UNL     1       7.623   6.987  17.884  0.00  0.00    +0.000 N 
ATOM     25  C   UNL     1       8.507   7.784  18.700  0.00  0.00    +0.000 C 
ATOM     26  C   UNL     1       7.419   5.644  17.992  0.00  0.00    +0.000 A 
ATOM     27  C   UNL     1       6.375   5.336  17.138  0.00  0.00    +0.000 A 
ENDBRANCH  19  27
ENDBRANCH  15  19
ENDBRANCH   1  16
TORSDOF 4
ENDMDL
MODEL 5
REMARK VINA RESULT:      -6.5      3.482      8.169
REMARK  Name = 
REMARK  7 active torsions:
REMARK  status: ('A' for Active; 'I' for Inactive)
REMARK    1  A    between atoms: C_1  and  C_2
REMARK    2  A    between atoms: N_4  and  C_5
REMARK    3  A    between atoms: C_7  and  C_8
REMARK    4  A    between atoms: C_8  and  C_9
REMARK    5  A    between atoms: C_8  and  N_10
REMARK    6  A    between atoms: C_11  and  C_13
REMARK    7  A    between atoms: N_16  and  C_17
REMARK                            x       y       z     vdW  Elec       q    Type
REMARK                         _______ _______ _______ _____ _____    ______ ____
ROOT
ATOM      1  C   UNL     1       6.156   6.690  17.885  0.00  0.00    +0.000 C 
ATOM      2  C   UNL     1       5.212   6.834  16.684  0.00  0.00    +0.000 C 
ATOM      3  C   UNL     1       4.999   5.478  16.021  0.00  0.00    +0.000 C 
ATOM      4  N   UNL     1       6.299   4.988  15.544  0.00  0.00    +0.000 N 
ATOM      5  C   UNL     1       7.261   4.745  16.634  0.00  0.00    +0.000 C 
ATOM      6  C   UNL     1       7.477   6.042  17.427  0.00  0.00    +0.000 C 
ENDROOT
BRANCH   4   7
ATOM      7  C   UNL     1       6.513   4.581  14.223  0.00  0.00    +0.000 A 
ATOM      8  C   UNL     1       7.576   5.256  13.410  0.00  0.00    +0.000 A 
ATOM      9  N   UNL     1       7.885   5.021  12.174  0.00  0.00    +0.000 NA
ATOM     10  N   UNL     1       7.166   4.042  11.562  0.00  0.00    +0.000 N 
ATOM     11  C   UNL     1       6.203   3.273  12.161  0.00  0.00    +0.000 A 
ATOM     12  O   UNL     1       5.612   2.372  11.578  0.00  0.00    +0.000 OA
ATOM     13  C   UNL     1       5.893   3.592  13.566  0.00  0.00    +0.000 A 
ATOM     14  H   UNL     1       7.400   3.839  10.596  0.00  0.00    +0.000 HD
ENDBRANCH   4   7
BRANCH   1  16
ATOM     15  N   UNL     1       4.130   5.963  19.051  0.00  0.00    +0.000 N 
ATOM     16  C   UNL     1       5.503   5.885  19.010  0.00  0.00    +0.000 C 
ATOM     17  O   UNL     1       6.150   5.212  19.808  0.00  0.00    +0.000 OA
ATOM     18  H   UNL     1       3.647   6.675  18.522  0.00  0.00    +0.000 HD
BRANCH  15  19
ATOM     19  C   UNL     1       3.368   5.225  20.043  0.00  0.00    +0.000 C 
ATOM     20  C   UNL     1       2.032   5.911  20.327  0.00  0.00    +0.000 C 
BRANCH  19  27
ATOM     21  C   UNL     1       1.414   4.132  17.670  0.00  0.00    +0.000 C 
ATOM     22  C   UNL     1       2.371   3.353  18.498  0.00  0.00    +0.000 A 
ATOM     23  N   UNL     1       2.524   2.042  18.276  0.00  0.00    +0.000 NA
ATOM     24  N   UNL     1       3.469   1.670  19.150  0.00  0.00    +0.000 N 
ATOM     25  C   UNL     1       4.004   0.330  19.114  0.00  0.00    +0.000 C 
ATOM     26  C   UNL     1       3.867   2.675  19.979  0.00  0.00    +0.000 A 
ATOM     27  C   UNL     1       3.213   3.817  19.553  0.00  0.00    +0.000 A 
ENDBRANCH  19  27
ENDBRANCH  15  19
ENDBRANCH   1  16
TORSDOF 4
ENDMDL
MODEL 6
REMARK VINA RESULT:      -6.5      2.665      8.083
REMARK  Name = 
REMARK  7 active torsions:
REMARK  status: ('A' for Active; 'I' for Inactive)
REMARK    1  A    between atoms: C_1  and  C_2
REMARK    2  A    between atoms: N_4  and  C_5
REMARK    3  A    between atoms: C_7  and  C_8
REMARK    4  A    between atoms: C_8  and  C_9
REMARK    5  A    between atoms: C_8  and  N_10
REMARK    6  A    between atoms: C_11  and  C_13
REMARK    7  A    between atoms: N_16  and  C_17
REMARK                            x       y       z     vdW  Elec       q    Type
REMARK                         _______ _______ _______ _____ _____    ______ ____
ROOT
ATOM      1  C   UNL     1       5.436   5.659  18.508  0.00  0.00    +0.000 C 
ATOM      2  C   UNL     1       5.531   6.646  17.336  0.00  0.00    +0.000 C 
ATOM      3  C   UNL     1       4.915   6.030  16.085  0.00  0.00    +0.000 C 
ATOM      4  N   UNL     1       5.673   4.819  15.745  0.00  0.00    +0.000 N 
ATOM      5  C   UNL     1       5.586   3.773  16.779  0.00  0.00    +0.000 C 
ATOM      6  C   UNL     1       6.104   4.327  18.115  0.00  0.00    +0.000 C 
ENDROOT
BRANCH   4   7
ATOM      7  C   UNL     1       6.223   4.604  14.477  0.00  0.00    +0.000 A 
ATOM      8  C   UNL     1       7.366   5.457  14.017  0.00  0.00    +0.000 A 
ATOM      9  N   UNL     1       7.969   5.408  12.872  0.00  0.00    +0.000 NA
ATOM     10  N   UNL     1       7.515   4.463  12.005  0.00  0.00    +0.000 N 
ATOM     11  C   UNL     1       6.527   3.552  12.272  0.00  0.00    +0.000 A 
ATOM     12  O   UNL     1       6.182   2.690  11.472  0.00  0.00    +0.000 OA
ATOM     13  C   UNL     1       5.875   3.663  13.589  0.00  0.00    +0.000 A 
ATOM     14  H   UNL     1       7.982   4.405  11.107  0.00  0.00    +0.000 HD
ENDBRANCH   4   7
BRANCH   1  16
ATOM     15  N   UNL     1       3.378   6.556  19.483  0.00  0.00    +0.000 N 
ATOM     16  C   UNL     1       3.983   5.447  18.939  0.00  0.00    +0.000 C 
ATOM     17  O   UNL     1       3.399   4.376  18.800  0.00  0.00    +0.000 OA
ATOM     18  H   UNL     1       3.935   7.348  19.771  0.00  0.00    +0.000 HD
BRANCH  15  19
ATOM     19  C   UNL     1       1.989   6.518  19.908  0.00  0.00    +0.000 C 
ATOM     20  C   UNL     1       1.808   5.580  21.101  0.00  0.00    +0.000 C 
BRANCH  19  27
ATOM     21  C   UNL     1       1.794   9.018  17.821  0.00  0.00    +0.000 C 
ATOM     22  C   UNL     1       1.453   9.005  19.267  0.00  0.00    +0.000 A 
ATOM     23  N   UNL     1       0.969  10.112  19.842  0.00  0.00    +0.000 NA
ATOM     24  N   UNL     1       0.735   9.747  21.110  0.00  0.00    +0.000 N 
ATOM     25  C   UNL     1       0.073  10.654  22.016  0.00  0.00    +0.000 C 
ATOM     26  C   UNL     1       1.127   8.473  21.388  0.00  0.00    +0.000 A 
ATOM     27  C   UNL     1       1.555   7.924  20.193  0.00  0.00    +0.000 A 
ENDBRANCH  19  27
ENDBRANCH  15  19
ENDBRANCH   1  16
TORSDOF 4
ENDMDL
MODEL 7
REMARK VINA RESULT:      -6.4      3.229      4.796
REMARK  Name = 
REMARK  7 active torsions:
REMARK  status: ('A' for Active; 'I' for Inactive)
REMARK    1  A    between atoms: C_1  and  C_2
REMARK    2  A    between atoms: N_4  and  C_5
REMARK    3  A    between atoms: C_7  and  C_8
REMARK    4  A    between atoms: C_8  and  C_9
REMARK    5  A    between atoms: C_8  and  N_10
REMARK    6  A    between atoms: C_11  and  C_13
REMARK    7  A    between atoms: N_16  and  C_17
REMARK                            x       y       z     vdW  Elec       q    Type
REMARK                         _______ _______ _______ _____ _____    ______ ____
ROOT
ATOM      1  C   UNL     1       1.873   9.310  19.279  0.00  0.00    +0.000 C 
ATOM      2  C   UNL     1       1.073  10.097  20.327  0.00  0.00    +0.000 C 
ATOM      3  C   UNL     1      -0.400   9.709  20.258  0.00  0.00    +0.000 C 
ATOM      4  N   UNL     1      -0.906  10.050  18.922  0.00  0.00    +0.000 N 
ATOM      5  C   UNL     1      -0.250   9.290  17.844  0.00  0.00    +0.000 C 
ATOM      6  C   UNL     1       1.264   9.544  17.883  0.00  0.00    +0.000 C 
ENDROOT
BRANCH   4   7
ATOM      7  C   UNL     1      -2.043  10.841  18.726  0.00  0.00    +0.000 A 
ATOM      8  C   UNL     1      -2.365  11.923  19.711  0.00  0.00    +0.000 A 
ATOM      9  N   UNL     1      -3.384  12.722  19.692  0.00  0.00    +0.000 NA
ATOM     10  N   UNL     1      -4.243  12.560  18.649  0.00  0.00    +0.000 N 
ATOM     11  C   UNL     1      -4.080  11.670  17.619  0.00  0.00    +0.000 A 
ATOM     12  O   UNL     1      -4.859  11.591  16.677  0.00  0.00    +0.000 OA
ATOM     13  C   UNL     1      -2.903  10.785  17.701  0.00  0.00    +0.000 A 
ATOM     14  H   UNL     1      -5.042  13.182  18.614  0.00  0.00    +0.000 HD
ENDBRANCH   4   7
BRANCH   1  16
ATOM     15  N   UNL     1       2.413   7.015  18.622  0.00  0.00    +0.000 N 
ATOM     16  C   UNL     1       1.920   7.820  19.623  0.00  0.00    +0.000 C 
ATOM     17  O   UNL     1       1.558   7.377  20.709  0.00  0.00    +0.000 OA
ATOM     18  H   UNL     1       2.506   7.374  17.682  0.00  0.00    +0.000 HD
BRANCH  15  19
ATOM     19  C   UNL     1       2.549   5.582  18.813  0.00  0.00    +0.000 C 
ATOM     20  C   UNL     1       1.727   4.811  17.781  0.00  0.00    +0.000 C 
BRANCH  19  27
ATOM     21  C   UNL     1       4.018   2.874  19.887  0.00  0.00    +0.000 C 
ATOM     22  C   UNL     1       4.640   4.049  19.224  0.00  0.00    +0.000 A 
ATOM     23  N   UNL     1       5.954   4.051  18.976  0.00  0.00    +0.000 NA
ATOM     24  N   UNL     1       6.169   5.215  18.348  0.00  0.00    +0.000 N 
ATOM     25  C   UNL     1       7.468   5.515  17.797  0.00  0.00    +0.000 C 
ATOM     26  C   UNL     1       5.055   5.995  18.258  0.00  0.00    +0.000 A 
ATOM     27  C   UNL     1       4.010   5.247  18.771  0.00  0.00    +0.000 A 
ENDBRANCH  19  27
ENDBRANCH  15  19
ENDBRANCH   1  16
TORSDOF 4
ENDMDL
MODEL 8
REMARK VINA RESULT:      -6.2      3.333      8.080
REMARK  Name = 
REMARK  7 active torsions:
REMARK  status: ('A' for Active; 'I' for Inactive)
REMARK    1  A    between atoms: C_1  and  C_2
REMARK    2  A    between atoms: N_4  and  C_5
REMARK    3  A    between atoms: C_7  and  C_8
REMARK    4  A    between atoms: C_8  and  C_9
REMARK    5  A    between atoms: C_8  and  N_10
REMARK    6  A    between atoms: C_11  and  C_13
REMARK    7  A    between atoms: N_16  and  C_17
REMARK                            x       y       z     vdW  Elec       q    Type
REMARK                         _______ _______ _______ _____ _____    ______ ____
ROOT
ATOM      1  C   UNL     1       6.339   6.500  18.176  0.00  0.00    +0.000 C 
ATOM      2  C   UNL     1       5.505   6.895  16.949  0.00  0.00    +0.000 C 
ATOM      3  C   UNL     1       5.067   5.645  16.192  0.00  0.00    +0.000 C 
ATOM      4  N   UNL     1       6.270   4.935  15.738  0.00  0.00    +0.000 N 
ATOM      5  C   UNL     1       7.107   4.447  16.848  0.00  0.00    +0.000 C 
ATOM      6  C   UNL     1       7.530   5.630  17.731  0.00  0.00    +0.000 C 
ENDROOT
BRANCH   4   7
ATOM      7  C   UNL     1       6.471   4.568  14.403  0.00  0.00    +0.000 A 
ATOM      8  C   UNL     1       7.565   5.225  13.616  0.00  0.00    +0.000 A 
ATOM      9  N   UNL     1       7.866   5.021  12.374  0.00  0.00    +0.000 NA
ATOM     10  N   UNL     1       7.107   4.097  11.725  0.00  0.00    +0.000 N 
ATOM     11  C   UNL     1       6.109   3.350  12.294  0.00  0.00    +0.000 A 
ATOM     12  O   UNL     1       5.482   2.497  11.679  0.00  0.00    +0.000 OA
ATOM     13  C   UNL     1       5.810   3.631  13.710  0.00  0.00    +0.000 A 
ATOM     14  H   UNL     1       7.335   3.920  10.753  0.00  0.00    +0.000 HD
ENDBRANCH   4   7
BRANCH   1  16
ATOM     15  N   UNL     1       4.177   6.206  19.286  0.00  0.00    +0.000 N 
ATOM     16  C   UNL     1       5.483   5.779  19.219  0.00  0.00    +0.000 C 
ATOM     17  O   UNL     1       5.922   4.883  19.934  0.00  0.00    +0.000 OA
ATOM     18  H   UNL     1       3.903   7.071  18.840  0.00  0.00    +0.000 HD
BRANCH  15  19
ATOM     19  C   UNL     1       3.235   5.592  20.205  0.00  0.00    +0.000 C 
ATOM     20  C   UNL     1       2.010   6.484  20.409  0.00  0.00    +0.000 C 
BRANCH  19  27
ATOM     21  C   UNL     1       1.902   3.089  21.818  0.00  0.00    +0.000 C 
ATOM     22  C   UNL     1       2.288   3.152  20.384  0.00  0.00    +0.000 A 
ATOM     23  N   UNL     1       2.059   2.099  19.591  0.00  0.00    +0.000 NA
ATOM     24  N   UNL     1       2.479   2.500  18.384  0.00  0.00    +0.000 N 
ATOM     25  C   UNL     1       2.264   1.667  17.226  0.00  0.00    +0.000 C 
ATOM     26  C   UNL     1       3.043   3.740  18.391  0.00  0.00    +0.000 A 
ATOM     27  C   UNL     1       2.891   4.233  19.675  0.00  0.00    +0.000 A 
ENDBRANCH  19  27
ENDBRANCH  15  19
ENDBRANCH   1  16
TORSDOF 4
ENDMDL
MODEL 9
REMARK VINA RESULT:      -6.2      2.589      7.366
REMARK  Name = 
REMARK  7 active torsions:
REMARK  status: ('A' for Active; 'I' for Inactive)
REMARK    1  A    between atoms: C_1  and  C_2
REMARK    2  A    between atoms: N_4  and  C_5
REMARK    3  A    between atoms: C_7  and  C_8
REMARK    4  A    between atoms: C_8  and  C_9
REMARK    5  A    between atoms: C_8  and  N_10
REMARK    6  A    between atoms: C_11  and  C_13
REMARK    7  A    between atoms: N_16  and  C_17
REMARK                            x       y       z     vdW  Elec       q    Type
REMARK                         _______ _______ _______ _____ _____    ______ ____
ROOT
ATOM      1  C   UNL     1       3.685   4.856  19.838  0.00  0.00    +0.000 C 
ATOM      2  C   UNL     1       4.764   5.828  19.341  0.00  0.00    +0.000 C 
ATOM      3  C   UNL     1       4.525   6.167  17.874  0.00  0.00    +0.000 C 
ATOM      4  N   UNL     1       4.612   4.926  17.093  0.00  0.00    +0.000 N 
ATOM      5  C   UNL     1       3.567   3.948  17.444  0.00  0.00    +0.000 C 
ATOM      6  C   UNL     1       3.666   3.605  18.937  0.00  0.00    +0.000 C 
ENDROOT
BRANCH   4   7
ATOM      7  C   UNL     1       5.453   4.791  15.983  0.00  0.00    +0.000 A 
ATOM      8  C   UNL     1       6.781   5.487  15.978  0.00  0.00    +0.000 A 
ATOM      9  N   UNL     1       7.661   5.487  15.028  0.00  0.00    +0.000 NA
ATOM     10  N   UNL     1       7.339   4.759  13.924  0.00  0.00    +0.000 N 
ATOM     11  C   UNL     1       6.205   4.005  13.774  0.00  0.00    +0.000 A 
ATOM     12  O   UNL     1       5.980   3.331  12.777  0.00  0.00    +0.000 OA
ATOM     13  C   UNL     1       5.239   4.051  14.888  0.00  0.00    +0.000 A 
ATOM     14  H   UNL     1       8.021   4.742  13.174  0.00  0.00    +0.000 HD
ENDBRANCH   4   7
BRANCH   1  16
ATOM     15  N   UNL     1       2.327   6.838  20.305  0.00  0.00    +0.000 N 
ATOM     16  C   UNL     1       2.312   5.528  19.885  0.00  0.00    +0.000 C 
ATOM     17  O   UNL     1       1.277   4.950  19.564  0.00  0.00    +0.000 OA
ATOM     18  H   UNL     1       3.150   7.217  20.753  0.00  0.00    +0.000 HD
BRANCH  15  19
ATOM     19  C   UNL     1       1.104   7.618  20.370  0.00  0.00    +0.000 C 
ATOM     20  C   UNL     1       0.634   7.780  21.815  0.00  0.00    +0.000 C 
BRANCH  19  27
ATOM     21  C   UNL     1       2.284   8.111  17.369  0.00  0.00    +0.000 C 
ATOM     22  C   UNL     1       1.850   9.130  18.359  0.00  0.00    +0.000 A 
ATOM     23  N   UNL     1       1.891  10.427  18.036  0.00  0.00    +0.000 NA
ATOM     24  N   UNL     1       1.403  11.051  19.116  0.00  0.00    +0.000 N 
ATOM     25  C   UNL     1       1.165  12.474  19.088  0.00  0.00    +0.000 C 
ATOM     26  C   UNL     1       1.128  10.208  20.150  0.00  0.00    +0.000 A 
ATOM     27  C   UNL     1       1.353   8.926  19.682  0.00  0.00    +0.000 A 
ENDBRANCH  19  27
ENDBRANCH  15  19
ENDBRANCH   1  16
TORSDOF 4
ENDMDL
