MODEL 1
REMARK VINA RESULT:      -6.8      0.000      0.000
REMARK  Name = 
REMARK  10 active torsions:
REMARK  status: ('A' for Active; 'I' for Inactive)
REMARK    1  A    between atoms: C_2  and  C_3
REMARK    2  A    between atoms: C_3  and  N_4
REMARK    3  A    between atoms: N_4  and  C_5
REMARK    4  A    between atoms: C_8  and  O_9
REMARK    5  A    between atoms: O_9  and  C_10
REMARK    6  A    between atoms: C_10  and  C_12
REMARK    7  A    between atoms: C_12  and  C_13
REMARK    8  A    between atoms: C_12  and  C_15
REMARK    9  A    between atoms: C_13  and  O_14
REMARK   10  A    between atoms: C_23  and  O_24
REMARK                            x       y       z     vdW  Elec       q    Type
REMARK                         _______ _______ _______ _____ _____    ______ ____
ROOT
ATOM      1  N   UNL     1       2.206   4.674  19.287  0.00  0.00    +0.000 N 
ATOM      2  C   UNL     1       0.933   4.450  20.115  0.00  0.00    +0.000 C 
ATOM      3  C   UNL     1       3.451   4.249  20.063  0.00  0.00    +0.000 C 
ATOM      4  C   UNL     1       4.711   4.737  19.357  0.00  0.00    +0.000 C 
ATOM      5  C   UNL     1       4.787   4.432  17.854  0.00  0.00    +0.000 C 
ATOM      6  C   UNL     1       3.522   3.877  17.184  0.00  0.00    +0.000 C 
ATOM      7  C   UNL     1       2.320   3.615  18.099  0.00  0.00    +0.000 C 
ATOM      8  C   UNL     1       2.662   2.278  18.817  0.00  0.00    +0.000 C 
ATOM      9  C   UNL     1       3.408   2.706  20.075  0.00  0.00    +0.000 C 
ENDROOT
BRANCH   8  10
ATOM     10  O   UNL     1       1.563   1.434  19.140  0.00  0.00    +0.000 OA
ATOM     11  H   UNL     1       1.832   0.555  19.437  0.00  0.00    +0.000 HD
ENDBRANCH   8  10
BRANCH   1  12
ATOM     12  C   UNL     1       2.146   6.208  18.906  0.00  0.00    +0.000 C 
BRANCH  12  14
ATOM     13  C   UNL     1       1.621   7.781  21.063  0.00  0.00    +0.000 C 
ATOM     14  C   UNL     1       1.831   7.062  20.098  0.00  0.00    +0.000 C 
ENDBRANCH  12  14
ENDBRANCH   1  12
BRANCH   5  15
ATOM     15  O   UNL     1       5.982   3.660  17.590  0.00  0.00    +0.000 OA
BRANCH  15  16
ATOM     16  C   UNL     1       6.970   4.429  17.015  0.00  0.00    +0.000 C 
ATOM     17  O   UNL     1       8.170   4.181  17.125  0.00  0.00    +0.000 OA
BRANCH  16  18
ATOM     18  C   UNL     1       6.456   5.556  16.148  0.00  0.00    +0.000 C 
BRANCH  18  19
ATOM     19  C   UNL     1       6.583   5.126  14.687  0.00  0.00    +0.000 A 
ATOM     20  C   UNL     1       5.697   4.154  14.200  0.00  0.00    +0.000 A 
ATOM     21  C   UNL     1       5.866   3.605  12.929  0.00  0.00    +0.000 A 
ATOM     22  C   UNL     1       6.920   4.027  12.121  0.00  0.00    +0.000 A 
ATOM     23  C   UNL     1       7.804   5.000  12.583  0.00  0.00    +0.000 A 
ATOM     24  C   UNL     1       7.640   5.544  13.860  0.00  0.00    +0.000 A 
ENDBRANCH  18  19
BRANCH  18  25
ATOM     25  C   UNL     1       7.228   6.833  16.509  0.00  0.00    +0.000 C 
BRANCH  25  26
ATOM     26  O   UNL     1       7.587   6.842  17.884  0.00  0.00    +0.000 OA
ATOM     27  H   UNL     1       8.513   6.533  17.995  0.00  0.00    +0.000 HD
ENDBRANCH  25  26
ENDBRANCH  18  25
ENDBRANCH  16  18
ENDBRANCH  15  16
ENDBRANCH   5  15
TORSDOF 9
ENDMDL
MODEL 2
REMARK VINA RESULT:      -6.7      1.725      3.264
REMARK  Name = 
REMARK  10 active torsions:
REMARK  status: ('A' for Active; 'I' for Inactive)
REMARK    1  A    between atoms: C_2  and  C_3
REMARK    2  A    between atoms: C_3  and  N_4
REMARK    3  A    between atoms: N_4  and  C_5
REMARK    4  A    between atoms: C_8  and  O_9
REMARK    5  A    between atoms: O_9  and  C_10
REMARK    6  A    between atoms: C_10  and  C_12
REMARK    7  A    between atoms: C_12  and  C_13
REMARK    8  A    between atoms: C_12  and  C_15
REMARK    9  A    between atoms: C_13  and  O_14
REMARK   10  A    between atoms: C_23  and  O_24
REMARK                            x       y       z     vdW  Elec       q    Type
REMARK                         _______ _______ _______ _____ _____    ______ ____
ROOT
ATOM      1  N   UNL     1       2.385   3.875  20.092  0.00  0.00    +0.000 N 
ATOM      2  C   UNL     1       1.537   3.288  21.228  0.00  0.00    +0.000 C 
ATOM      3  C   UNL     1       3.457   2.888  19.637  0.00  0.00    +0.000 C 
ATOM      4  C   UNL     1       4.463   3.578  18.723  0.00  0.00    +0.000 C 
ATOM      5  C   UNL     1       3.858   4.402  17.577  0.00  0.00    +0.000 C 
ATOM      6  C   UNL     1       2.339   4.626  17.597  0.00  0.00    +0.000 C 
ATOM      7  C   UNL     1       1.560   3.943  18.728  0.00  0.00    +0.000 C 
ATOM      8  C   UNL     1       1.448   2.457  18.280  0.00  0.00    +0.000 C 
ATOM      9  C   UNL     1       2.692   1.794  18.862  0.00  0.00    +0.000 C 
ENDROOT
BRANCH   8  10
ATOM     10  O   UNL     1       0.271   1.763  18.675  0.00  0.00    +0.000 OA
ATOM     11  H   UNL     1      -0.477   2.349  18.845  0.00  0.00    +0.000 HD
ENDBRANCH   8  10
BRANCH   1  12
ATOM     12  C   UNL     1       2.935   5.232  20.691  0.00  0.00    +0.000 C 
BRANCH  12  14
ATOM     13  C   UNL     1       0.987   7.129  20.780  0.00  0.00    +0.000 C 
ATOM     14  C   UNL     1       1.875   6.293  20.720  0.00  0.00    +0.000 C 
ENDBRANCH  12  14
ENDBRANCH   1  12
BRANCH   5  15
ATOM     15  O   UNL     1       4.364   3.902  16.317  0.00  0.00    +0.000 OA
BRANCH  15  16
ATOM     16  C   UNL     1       5.177   4.821  15.691  0.00  0.00    +0.000 C 
ATOM     17  O   UNL     1       4.759   5.865  15.190  0.00  0.00    +0.000 OA
BRANCH  16  18
ATOM     18  C   UNL     1       6.652   4.492  15.754  0.00  0.00    +0.000 C 
BRANCH  18  19
ATOM     19  C   UNL     1       7.284   5.356  16.843  0.00  0.00    +0.000 A 
ATOM     20  C   UNL     1       7.704   4.733  18.028  0.00  0.00    +0.000 A 
ATOM     21  C   UNL     1       8.138   5.488  19.118  0.00  0.00    +0.000 A 
ATOM     22  C   UNL     1       8.166   6.878  19.037  0.00  0.00    +0.000 A 
ATOM     23  C   UNL     1       7.764   7.515  17.865  0.00  0.00    +0.000 A 
ATOM     24  C   UNL     1       7.321   6.760  16.775  0.00  0.00    +0.000 A 
ENDBRANCH  18  19
BRANCH  18  25
ATOM     25  C   UNL     1       7.249   4.688  14.353  0.00  0.00    +0.000 C 
BRANCH  25  26
ATOM     26  O   UNL     1       6.470   4.023  13.367  0.00  0.00    +0.000 OA
ATOM     27  H   UNL     1       6.293   3.097  13.644  0.00  0.00    +0.000 HD
ENDBRANCH  25  26
ENDBRANCH  18  25
ENDBRANCH  16  18
ENDBRANCH  15  16
ENDBRANCH   5  15
TORSDOF 9
ENDMDL
MODEL 3
REMARK VINA RESULT:      -6.4      0.316      1.011
REMARK  Name = 
REMARK  10 active torsions:
REMARK  status: ('A' for Active; 'I' for Inactive)
REMARK    1  A    between atoms: C_2  and  C_3
REMARK    2  A    between atoms: C_3  and  N_4
REMARK    3  A    between atoms: N_4  and  C_5
REMARK    4  A    between atoms: C_8  and  O_9
REMARK    5  A    between atoms: O_9  and  C_10
REMARK    6  A    between atoms: C_10  and  C_12
REMARK    7  A    between atoms: C_12  and  C_13
REMARK    8  A    between atoms: C_12  and  C_15
REMARK    9  A    between atoms: C_13  and  O_14
REMARK   10  A    between atoms: C_23  and  O_24
REMARK                            x       y       z     vdW  Elec       q    Type
REMARK                         _______ _______ _______ _____ _____    ______ ____
ROOT
ATOM      1  N   UNL     1       2.172   4.657  19.351  0.00  0.00    +0.000 N 
ATOM      2  C   UNL     1       0.908   4.398  20.182  0.00  0.00    +0.000 C 
ATOM      3  C   UNL     1       3.430   4.279  20.129  0.00  0.00    +0.000 C 
ATOM      4  C   UNL     1       4.673   4.803  19.418  0.00  0.00    +0.000 C 
ATOM      5  C   UNL     1       4.758   4.491  17.917  0.00  0.00    +0.000 C 
ATOM      6  C   UNL     1       3.510   3.890  17.252  0.00  0.00    +0.000 C 
ATOM      7  C   UNL     1       2.318   3.595  18.171  0.00  0.00    +0.000 C 
ATOM      8  C   UNL     1       2.705   2.275  18.897  0.00  0.00    +0.000 C 
ATOM      9  C   UNL     1       3.438   2.736  20.151  0.00  0.00    +0.000 C 
ENDROOT
BRANCH   8  10
ATOM     10  O   UNL     1       1.635   1.398  19.227  0.00  0.00    +0.000 OA
ATOM     11  H   UNL     1       0.832   1.861  19.497  0.00  0.00    +0.000 HD
ENDBRANCH   8  10
BRANCH   1  12
ATOM     12  C   UNL     1       2.061   6.187  18.960  0.00  0.00    +0.000 C 
BRANCH  12  14
ATOM     13  C   UNL     1       1.607   7.769  21.126  0.00  0.00    +0.000 C 
ATOM     14  C   UNL     1       1.786   7.045  20.158  0.00  0.00    +0.000 C 
ENDBRANCH  12  14
ENDBRANCH   1  12
BRANCH   5  15
ATOM     15  O   UNL     1       5.976   3.756  17.656  0.00  0.00    +0.000 OA
BRANCH  15  16
ATOM     16  C   UNL     1       6.862   4.489  16.896  0.00  0.00    +0.000 C 
ATOM     17  O   UNL     1       8.084   4.386  16.994  0.00  0.00    +0.000 OA
BRANCH  16  18
ATOM     18  C   UNL     1       6.208   5.369  15.854  0.00  0.00    +0.000 C 
BRANCH  18  19
ATOM     19  C   UNL     1       6.538   4.796  14.477  0.00  0.00    +0.000 A 
ATOM     20  C   UNL     1       7.557   5.404  13.729  0.00  0.00    +0.000 A 
ATOM     21  C   UNL     1       7.793   5.031  12.406  0.00  0.00    +0.000 A 
ATOM     22  C   UNL     1       7.019   4.036  11.812  0.00  0.00    +0.000 A 
ATOM     23  C   UNL     1       6.011   3.412  12.542  0.00  0.00    +0.000 A 
ATOM     24  C   UNL     1       5.767   3.791  13.866  0.00  0.00    +0.000 A 
ENDBRANCH  18  19
BRANCH  18  25
ATOM     25  C   UNL     1       6.681   6.813  16.077  0.00  0.00    +0.000 C 
BRANCH  25  26
ATOM     26  O   UNL     1       7.766   6.860  16.992  0.00  0.00    +0.000 OA
ATOM     27  H   UNL     1       7.593   6.264  17.754  0.00  0.00    +0.000 HD
ENDBRANCH  25  26
ENDBRANCH  18  25
ENDBRANCH  16  18
ENDBRANCH  15  16
ENDBRANCH   5  15
TORSDOF 9
ENDMDL
MODEL 4
REMARK VINA RESULT:      -6.3      2.600      6.778
REMARK  Name = 
REMARK  10 active torsions:
REMARK  status: ('A' for Active; 'I' for Inactive)
REMARK    1  A    between atoms: C_2  and  C_3
REMARK    2  A    between atoms: C_3  and  N_4
REMARK    3  A    between atoms: N_4  and  C_5
REMARK    4  A    between atoms: C_8  and  O_9
REMARK    5  A    between atoms: O_9  and  C_10
REMARK    6  A    between atoms: C_10  and  C_12
REMARK    7  A    between atoms: C_12  and  C_13
REMARK    8  A    between atoms: C_12  and  C_15
REMARK    9  A    between atoms: C_13  and  O_14
REMARK   10  A    between atoms: C_23  and  O_24
REMARK                            x       y       z     vdW  Elec       q    Type
REMARK                         _______ _______ _______ _____ _____    ______ ____
ROOT
ATOM      1  N   UNL     1       6.136   5.120  16.818  0.00  0.00    +0.000 N 
ATOM      2  C   UNL     1       7.571   4.578  16.874  0.00  0.00    +0.000 C 
ATOM      3  C   UNL     1       5.129   4.065  17.269  0.00  0.00    +0.000 C 
ATOM      4  C   UNL     1       3.709   4.508  16.939  0.00  0.00    +0.000 C 
ATOM      5  C   UNL     1       3.343   5.935  17.373  0.00  0.00    +0.000 C 
ATOM      6  C   UNL     1       4.483   6.828  17.885  0.00  0.00    +0.000 C 
ATOM      7  C   UNL     1       5.871   6.183  17.977  0.00  0.00    +0.000 C 
ATOM      8  C   UNL     1       5.814   5.322  19.272  0.00  0.00    +0.000 C 
ATOM      9  C   UNL     1       5.315   3.962  18.798  0.00  0.00    +0.000 C 
ENDROOT
BRANCH   8  10
ATOM     10  O   UNL     1       7.029   5.192  20.000  0.00  0.00    +0.000 OA
ATOM     11  H   UNL     1       7.211   4.287  20.281  0.00  0.00    +0.000 HD
ENDBRANCH   8  10
BRANCH   1  12
ATOM     12  C   UNL     1       5.973   5.604  15.320  0.00  0.00    +0.000 C 
BRANCH  12  14
ATOM     13  C   UNL     1       6.202   3.532  13.573  0.00  0.00    +0.000 C 
ATOM     14  C   UNL     1       6.127   4.469  14.353  0.00  0.00    +0.000 C 
ENDBRANCH  12  14
ENDBRANCH   1  12
BRANCH   5  15
ATOM     15  O   UNL     1       2.196   5.881  18.253  0.00  0.00    +0.000 OA
BRANCH  15  16
ATOM     16  C   UNL     1       2.141   6.976  19.088  0.00  0.00    +0.000 C 
ATOM     17  O   UNL     1       2.030   8.132  18.682  0.00  0.00    +0.000 OA
BRANCH  16  18
ATOM     18  C   UNL     1       2.129   6.634  20.561  0.00  0.00    +0.000 C 
BRANCH  18  19
ATOM     19  C   UNL     1       1.824   5.144  20.699  0.00  0.00    +0.000 A 
ATOM     20  C   UNL     1       2.706   4.350  21.448  0.00  0.00    +0.000 A 
ATOM     21  C   UNL     1       2.571   2.962  21.475  0.00  0.00    +0.000 A 
ATOM     22  C   UNL     1       1.545   2.346  20.761  0.00  0.00    +0.000 A 
ATOM     23  C   UNL     1       0.652   3.118  20.022  0.00  0.00    +0.000 A 
ATOM     24  C   UNL     1       0.791   4.509  19.987  0.00  0.00    +0.000 A 
ENDBRANCH  18  19
BRANCH  18  25
ATOM     25  C   UNL     1       1.126   7.561  21.263  0.00  0.00    +0.000 C 
BRANCH  25  26
ATOM     26  O   UNL     1       1.781   8.686  21.832  0.00  0.00    +0.000 OA
ATOM     27  H   UNL     1       1.367   8.920  22.692  0.00  0.00    +0.000 HD
ENDBRANCH  25  26
ENDBRANCH  18  25
ENDBRANCH  16  18
ENDBRANCH  15  16
ENDBRANCH   5  15
TORSDOF 9
ENDMDL
MODEL 5
REMARK VINA RESULT:      -6.3      3.915      7.388
REMARK  Name = 
REMARK  10 active torsions:
REMARK  status: ('A' for Active; 'I' for Inactive)
REMARK    1  A    between atoms: C_2  and  C_3
REMARK    2  A    between atoms: C_3  and  N_4
REMARK    3  A    between atoms: N_4  and  C_5
REMARK    4  A    between atoms: C_8  and  O_9
REMARK    5  A    between atoms: O_9  and  C_10
REMARK    6  A    between atoms: C_10  and  C_12
REMARK    7  A    between atoms: C_12  and  C_13
REMARK    8  A    between atoms: C_12  and  C_15
REMARK    9  A    between atoms: C_13  and  O_14
REMARK   10  A    between atoms: C_23  and  O_24
REMARK                            x       y       z     vdW  Elec       q    Type
REMARK                         _______ _______ _______ _____ _____    ______ ____
ROOT
ATOM      1  N   UNL     1       4.045   4.754  19.030  0.00  0.00    +0.000 N 
ATOM      2  C   UNL     1       4.434   3.275  19.162  0.00  0.00    +0.000 C 
ATOM      3  C   UNL     1       3.443   5.047  17.658  0.00  0.00    +0.000 C 
ATOM      4  C   UNL     1       3.330   6.551  17.436  0.00  0.00    +0.000 C 
ATOM      5  C   UNL     1       2.673   7.340  18.578  0.00  0.00    +0.000 C 
ATOM      6  C   UNL     1       2.405   6.588  19.890  0.00  0.00    +0.000 C 
ATOM      7  C   UNL     1       2.758   5.096  19.909  0.00  0.00    +0.000 C 
ATOM      8  C   UNL     1       1.587   4.411  19.146  0.00  0.00    +0.000 C 
ATOM      9  C   UNL     1       2.040   4.404  17.690  0.00  0.00    +0.000 C 
ENDROOT
BRANCH   8  10
ATOM     10  O   UNL     1       1.233   3.101  19.574  0.00  0.00    +0.000 OA
ATOM     11  H   UNL     1       0.361   2.823  19.270  0.00  0.00    +0.000 HD
ENDBRANCH   8  10
BRANCH   1  12
ATOM     12  C   UNL     1       5.386   5.529  19.353  0.00  0.00    +0.000 C 
BRANCH  12  14
ATOM     13  C   UNL     1       7.417   4.719  17.734  0.00  0.00    +0.000 C 
ATOM     14  C   UNL     1       6.515   5.066  18.481  0.00  0.00    +0.000 C 
ENDBRANCH  12  14
ENDBRANCH   1  12
BRANCH   5  15
ATOM     15  O   UNL     1       1.525   8.052  18.061  0.00  0.00    +0.000 OA
BRANCH  15  16
ATOM     16  C   UNL     1       1.528   9.375  18.444  0.00  0.00    +0.000 C 
ATOM     17  O   UNL     1       2.245  10.229  17.923  0.00  0.00    +0.000 OA
BRANCH  16  18
ATOM     18  C   UNL     1       0.501   9.720  19.499  0.00  0.00    +0.000 C 
BRANCH  18  19
ATOM     19  C   UNL     1      -0.758  10.215  18.790  0.00  0.00    +0.000 A 
ATOM     20  C   UNL     1      -1.086   9.654  17.546  0.00  0.00    +0.000 A 
ATOM     21  C   UNL     1      -2.127  10.176  16.779  0.00  0.00    +0.000 A 
ATOM     22  C   UNL     1      -2.864  11.262  17.248  0.00  0.00    +0.000 A 
ATOM     23  C   UNL     1      -2.561  11.824  18.485  0.00  0.00    +0.000 A 
ATOM     24  C   UNL     1      -1.512  11.308  19.252  0.00  0.00    +0.000 A 
ENDBRANCH  18  19
BRANCH  18  25
ATOM     25  C   UNL     1       1.129  10.731  20.470  0.00  0.00    +0.000 C 
BRANCH  25  26
ATOM     26  O   UNL     1       1.161  10.216  21.794  0.00  0.00    +0.000 OA
ATOM     27  H   UNL     1       0.712   9.342  21.828  0.00  0.00    +0.000 HD
ENDBRANCH  25  26
ENDBRANCH  18  25
ENDBRANCH  16  18
ENDBRANCH  15  16
ENDBRANCH   5  15
TORSDOF 9
ENDMDL
MODEL 6
REMARK VINA RESULT:      -6.2      2.554      7.039
REMARK  Name = 
REMARK  10 active torsions:
REMARK  status: ('A' for Active; 'I' for Inactive)
REMARK    1  A    between atoms: C_2  and  C_3
REMARK    2  A    between atoms: C_3  and  N_4
REMARK    3  A    between atoms: N_4  and  C_5
REMARK    4  A    between atoms: C_8  and  O_9
REMARK    5  A    between atoms: O_9  and  C_10
REMARK    6  A    between atoms: C_10  and  C_12
REMARK    7  A    between atoms: C_12  and  C_13
REMARK    8  A    between atoms: C_12  and  C_15
REMARK    9  A    between atoms: C_13  and  O_14
REMARK   10  A    between atoms: C_23  and  O_24
REMARK                            x       y       z     vdW  Elec       q    Type
REMARK                         _______ _______ _______ _____ _____    ______ ____
ROOT
ATOM      1  N   UNL     1       6.234   5.115  16.081  0.00  0.00    +0.000 N 
ATOM      2  C   UNL     1       7.496   4.982  15.218  0.00  0.00    +0.000 C 
ATOM      3  C   UNL     1       6.493   4.653  17.513  0.00  0.00    +0.000 C 
ATOM      4  C   UNL     1       5.180   4.518  18.276  0.00  0.00    +0.000 C 
ATOM      5  C   UNL     1       4.232   5.722  18.178  0.00  0.00    +0.000 C 
ATOM      6  C   UNL     1       4.593   6.822  17.169  0.00  0.00    +0.000 C 
ATOM      7  C   UNL     1       5.909   6.643  16.401  0.00  0.00    +0.000 C 
ATOM      8  C   UNL     1       7.010   7.059  17.418  0.00  0.00    +0.000 C 
ATOM      9  C   UNL     1       7.364   5.763  18.140  0.00  0.00    +0.000 C 
ENDROOT
BRANCH   8  10
ATOM     10  O   UNL     1       8.174   7.672  16.876  0.00  0.00    +0.000 OA
ATOM     11  H   UNL     1       8.013   8.117  16.034  0.00  0.00    +0.000 HD
ENDBRANCH   8  10
BRANCH   1  12
ATOM     12  C   UNL     1       5.146   4.277  15.294  0.00  0.00    +0.000 C 
BRANCH  12  14
ATOM     13  C   UNL     1       5.994   3.615  12.795  0.00  0.00    +0.000 C 
ATOM     14  C   UNL     1       5.629   3.891  13.928  0.00  0.00    +0.000 C 
ENDBRANCH  12  14
ENDBRANCH   1  12
BRANCH   5  15
ATOM     15  O   UNL     1       3.953   6.213  19.510  0.00  0.00    +0.000 OA
BRANCH  15  16
ATOM     16  C   UNL     1       2.689   6.751  19.602  0.00  0.00    +0.000 C 
ATOM     17  O   UNL     1       2.218   7.522  18.767  0.00  0.00    +0.000 OA
BRANCH  16  18
ATOM     18  C   UNL     1       1.878   6.240  20.772  0.00  0.00    +0.000 C 
BRANCH  18  19
ATOM     19  C   UNL     1       1.632   4.747  20.561  0.00  0.00    +0.000 A 
ATOM     20  C   UNL     1       2.104   3.850  21.532  0.00  0.00    +0.000 A 
ATOM     21  C   UNL     1       2.054   2.473  21.318  0.00  0.00    +0.000 A 
ATOM     22  C   UNL     1       1.522   1.970  20.132  0.00  0.00    +0.000 A 
ATOM     23  C   UNL     1       1.038   2.843  19.161  0.00  0.00    +0.000 A 
ATOM     24  C   UNL     1       1.096   4.224  19.371  0.00  0.00    +0.000 A 
ENDBRANCH  18  19
BRANCH  18  25
ATOM     25  C   UNL     1       0.604   7.089  20.885  0.00  0.00    +0.000 C 
BRANCH  25  26
ATOM     26  O   UNL     1       0.906   8.409  21.316  0.00  0.00    +0.000 OA
ATOM     27  H   UNL     1       1.810   8.440  21.702  0.00  0.00    +0.000 HD
ENDBRANCH  25  26
ENDBRANCH  18  25
ENDBRANCH  16  18
ENDBRANCH  15  16
ENDBRANCH   5  15
TORSDOF 9
ENDMDL
MODEL 7
REMARK VINA RESULT:      -6.1      1.647      3.198
REMARK  Name = 
REMARK  10 active torsions:
REMARK  status: ('A' for Active; 'I' for Inactive)
REMARK    1  A    between atoms: C_2  and  C_3
REMARK    2  A    between atoms: C_3  and  N_4
REMARK    3  A    between atoms: N_4  and  C_5
REMARK    4  A    between atoms: C_8  and  O_9
REMARK    5  A    between atoms: O_9  and  C_10
REMARK    6  A    between atoms: C_10  and  C_12
REMARK    7  A    between atoms: C_12  and  C_13
REMARK    8  A    between atoms: C_12  and  C_15
REMARK    9  A    between atoms: C_13  and  O_14
REMARK   10  A    between atoms: C_23  and  O_24
REMARK                            x       y       z     vdW  Elec       q    Type
REMARK                         _______ _______ _______ _____ _____    ______ ____
ROOT
ATOM      1  N   UNL     1       2.125   5.502  19.804  0.00  0.00    +0.000 N 
ATOM      2  C   UNL     1       1.208   5.574  21.033  0.00  0.00    +0.000 C 
ATOM      3  C   UNL     1       3.423   4.766  20.127  0.00  0.00    +0.000 C 
ATOM      4  C   UNL     1       4.434   4.950  19.001  0.00  0.00    +0.000 C 
ATOM      5  C   UNL     1       3.904   4.675  17.585  0.00  0.00    +0.000 C 
ATOM      6  C   UNL     1       2.391   4.464  17.429  0.00  0.00    +0.000 C 
ATOM      7  C   UNL     1       1.560   4.479  18.718  0.00  0.00    +0.000 C 
ATOM      8  C   UNL     1       1.803   3.080  19.354  0.00  0.00    +0.000 C 
ATOM      9  C   UNL     1       3.022   3.280  20.248  0.00  0.00    +0.000 C 
ENDROOT
BRANCH   8  10
ATOM     10  O   UNL     1       0.720   2.522  20.088  0.00  0.00    +0.000 OA
ATOM     11  H   UNL     1      -0.077   3.066  20.064  0.00  0.00    +0.000 HD
ENDBRANCH   8  10
BRANCH   1  12
ATOM     12  C   UNL     1       2.301   7.014  19.374  0.00  0.00    +0.000 C 
BRANCH  12  14
ATOM     13  C   UNL     1       1.197   8.742  21.162  0.00  0.00    +0.000 C 
ATOM     14  C   UNL     1       1.700   7.949  20.381  0.00  0.00    +0.000 C 
ENDBRANCH  12  14
ENDBRANCH   1  12
BRANCH   5  15
ATOM     15  O   UNL     1       4.710   3.642  16.972  0.00  0.00    +0.000 OA
BRANCH  15  16
ATOM     16  C   UNL     1       5.243   4.055  15.771  0.00  0.00    +0.000 C 
ATOM     17  O   UNL     1       4.557   4.367  14.798  0.00  0.00    +0.000 OA
BRANCH  16  18
ATOM     18  C   UNL     1       6.749   4.190  15.771  0.00  0.00    +0.000 C 
BRANCH  18  19
ATOM     19  C   UNL     1       7.136   5.168  16.878  0.00  0.00    +0.000 A 
ATOM     20  C   UNL     1       7.070   6.543  16.605  0.00  0.00    +0.000 A 
ATOM     21  C   UNL     1       7.563   7.477  17.516  0.00  0.00    +0.000 A 
ATOM     22  C   UNL     1       8.122   7.052  18.719  0.00  0.00    +0.000 A 
ATOM     23  C   UNL     1       8.186   5.692  19.013  0.00  0.00    +0.000 A 
ATOM     24  C   UNL     1       7.701   4.754  18.097  0.00  0.00    +0.000 A 
ENDBRANCH  18  19
BRANCH  18  25
ATOM     25  C   UNL     1       7.196   4.606  14.362  0.00  0.00    +0.000 C 
BRANCH  25  26
ATOM     26  O   UNL     1       6.757   3.669  13.389  0.00  0.00    +0.000 OA
ATOM     27  H   UNL     1       6.694   4.100  12.508  0.00  0.00    +0.000 HD
ENDBRANCH  25  26
ENDBRANCH  18  25
ENDBRANCH  16  18
ENDBRANCH  15  16
ENDBRANCH   5  15
TORSDOF 9
ENDMDL
MODEL 8
REMARK VINA RESULT:      -6.1      3.831      7.392
REMARK  Name = 
REMARK  10 active torsions:
REMARK  status: ('A' for Active; 'I' for Inactive)
REMARK    1  A    between atoms: C_2  and  C_3
REMARK    2  A    between atoms: C_3  and  N_4
REMARK    3  A    between atoms: N_4  and  C_5
REMARK    4  A    between atoms: C_8  and  O_9
REMARK    5  A    between atoms: O_9  and  C_10
REMARK    6  A    between atoms: C_10  and  C_12
REMARK    7  A    between atoms: C_12  and  C_13
REMARK    8  A    between atoms: C_12  and  C_15
REMARK    9  A    between atoms: C_13  and  O_14
REMARK   10  A    between atoms: C_23  and  O_24
REMARK                            x       y       z     vdW  Elec       q    Type
REMARK                         _______ _______ _______ _____ _____    ______ ____
ROOT
ATOM      1  N   UNL     1       3.848   4.494  18.975  0.00  0.00    +0.000 N 
ATOM      2  C   UNL     1       4.256   3.049  18.658  0.00  0.00    +0.000 C 
ATOM      3  C   UNL     1       3.176   5.154  17.774  0.00  0.00    +0.000 C 
ATOM      4  C   UNL     1       3.038   6.655  17.999  0.00  0.00    +0.000 C 
ATOM      5  C   UNL     1       2.433   7.069  19.348  0.00  0.00    +0.000 C 
ATOM      6  C   UNL     1       2.237   5.966  20.399  0.00  0.00    +0.000 C 
ATOM      7  C   UNL     1       2.603   4.540  19.972  0.00  0.00    +0.000 C 
ATOM      8  C   UNL     1       1.402   4.076  19.099  0.00  0.00    +0.000 C 
ATOM      9  C   UNL     1       1.782   4.497  17.683  0.00  0.00    +0.000 C 
ENDROOT
BRANCH   8  10
ATOM     10  O   UNL     1       1.082   2.691  19.148  0.00  0.00    +0.000 OA
ATOM     11  H   UNL     1       0.271   2.504  19.637  0.00  0.00    +0.000 HD
ENDBRANCH   8  10
BRANCH   1  12
ATOM     12  C   UNL     1       5.197   5.174  19.446  0.00  0.00    +0.000 C 
BRANCH  12  14
ATOM     13  C   UNL     1       7.218   4.838  17.657  0.00  0.00    +0.000 C 
ATOM     14  C   UNL     1       6.297   4.966  18.449  0.00  0.00    +0.000 C 
ENDBRANCH  12  14
ENDBRANCH   1  12
BRANCH   5  15
ATOM     15  O   UNL     1       1.254   7.873  19.110  0.00  0.00    +0.000 OA
BRANCH  15  16
ATOM     16  C   UNL     1       1.241   9.006  19.893  0.00  0.00    +0.000 C 
ATOM     17  O   UNL     1       1.379   8.986  21.115  0.00  0.00    +0.000 OA
BRANCH  16  18
ATOM     18  C   UNL     1       1.140  10.299  19.114  0.00  0.00    +0.000 C 
BRANCH  18  19
ATOM     19  C   UNL     1      -0.341  10.612  18.907  0.00  0.00    +0.000 A 
ATOM     20  C   UNL     1      -0.996  10.035  17.809  0.00  0.00    +0.000 A 
ATOM     21  C   UNL     1      -2.298  10.409  17.475  0.00  0.00    +0.000 A 
ATOM     22  C   UNL     1      -2.969  11.361  18.242  0.00  0.00    +0.000 A 
ATOM     23  C   UNL     1      -2.339  11.936  19.343  0.00  0.00    +0.000 A 
ATOM     24  C   UNL     1      -1.031  11.568  19.673  0.00  0.00    +0.000 A 
ENDBRANCH  18  19
BRANCH  18  25
ATOM     25  C   UNL     1       1.950  10.146  17.819  0.00  0.00    +0.000 C 
BRANCH  25  26
ATOM     26  O   UNL     1       2.420  11.405  17.359  0.00  0.00    +0.000 OA
ATOM     27  H   UNL     1       2.249  11.500  16.396  0.00  0.00    +0.000 HD
ENDBRANCH  25  26
ENDBRANCH  18  25
ENDBRANCH  16  18
ENDBRANCH  15  16
ENDBRANCH   5  15
TORSDOF 9
ENDMDL
MODEL 9
REMARK VINA RESULT:      -6.1      1.489      3.046
REMARK  Name = 
REMARK  10 active torsions:
REMARK  status: ('A' for Active; 'I' for Inactive)
REMARK    1  A    between atoms: C_2  and  C_3
REMARK    2  A    between atoms: C_3  and  N_4
REMARK    3  A    between atoms: N_4  and  C_5
REMARK    4  A    between atoms: C_8  and  O_9
REMARK    5  A    between atoms: O_9  and  C_10
REMARK    6  A    between atoms: C_10  and  C_12
REMARK    7  A    between atoms: C_12  and  C_13
REMARK    8  A    between atoms: C_12  and  C_15
REMARK    9  A    between atoms: C_13  and  O_14
REMARK   10  A    between atoms: C_23  and  O_24
REMARK                            x       y       z     vdW  Elec       q    Type
REMARK                         _______ _______ _______ _____ _____    ______ ____
ROOT
ATOM      1  N   UNL     1       2.056   4.741  19.365  0.00  0.00    +0.000 N 
ATOM      2  C   UNL     1       1.126   4.578  20.575  0.00  0.00    +0.000 C 
ATOM      3  C   UNL     1       3.475   4.283  19.693  0.00  0.00    +0.000 C 
ATOM      4  C   UNL     1       4.440   4.713  18.595  0.00  0.00    +0.000 C 
ATOM      5  C   UNL     1       4.002   4.380  17.161  0.00  0.00    +0.000 C 
ATOM      6  C   UNL     1       2.569   3.862  16.966  0.00  0.00    +0.000 C 
ATOM      7  C   UNL     1       1.734   3.660  18.237  0.00  0.00    +0.000 C 
ATOM      8  C   UNL     1       2.257   2.322  18.836  0.00  0.00    +0.000 C 
ATOM      9  C   UNL     1       3.393   2.743  19.761  0.00  0.00    +0.000 C 
ENDROOT
BRANCH   8  10
ATOM     10  O   UNL     1       1.305   1.525  19.530  0.00  0.00    +0.000 OA
ATOM     11  H   UNL     1       0.911   1.975  20.288  0.00  0.00    +0.000 HD
ENDBRANCH   8  10
BRANCH   1  12
ATOM     12  C   UNL     1       1.917   6.270  18.983  0.00  0.00    +0.000 C 
BRANCH  12  14
ATOM     13  C   UNL     1       1.631   7.808  21.209  0.00  0.00    +0.000 C 
ATOM     14  C   UNL     1       1.735   7.129  20.199  0.00  0.00    +0.000 C 
ENDBRANCH  12  14
ENDBRANCH   1  12
BRANCH   5  15
ATOM     15  O   UNL     1       5.016   3.560  16.535  0.00  0.00    +0.000 OA
BRANCH  15  16
ATOM     16  C   UNL     1       5.465   4.114  15.357  0.00  0.00    +0.000 C 
ATOM     17  O   UNL     1       4.716   4.498  14.459  0.00  0.00    +0.000 OA
BRANCH  16  18
ATOM     18  C   UNL     1       6.964   4.306  15.291  0.00  0.00    +0.000 C 
BRANCH  18  19
ATOM     19  C   UNL     1       7.384   5.166  16.483  0.00  0.00    +0.000 A 
ATOM     20  C   UNL     1       7.831   4.520  17.645  0.00  0.00    +0.000 A 
ATOM     21  C   UNL     1       8.073   5.240  18.815  0.00  0.00    +0.000 A 
ATOM     22  C   UNL     1       7.879   6.619  18.838  0.00  0.00    +0.000 A 
ATOM     23  C   UNL     1       7.446   7.280  17.691  0.00  0.00    +0.000 A 
ATOM     24  C   UNL     1       7.196   6.558  16.520  0.00  0.00    +0.000 A 
ENDBRANCH  18  19
BRANCH  18  25
ATOM     25  C   UNL     1       7.315   4.898  13.919  0.00  0.00    +0.000 C 
BRANCH  25  26
ATOM     26  O   UNL     1       6.890   4.041  12.868  0.00  0.00    +0.000 OA
ATOM     27  H   UNL     1       6.386   4.552  12.197  0.00  0.00    +0.000 HD
ENDBRANCH  25  26
ENDBRANCH  18  25
ENDBRANCH  16  18
ENDBRANCH  15  16
ENDBRANCH   5  15
TORSDOF 9
ENDMDL
