MODEL 1
REMARK VINA RESULT:      -7.6      0.000      0.000
REMARK  Name = 
REMARK  14 active torsions:
REMARK  status: ('A' for Active; 'I' for Inactive)
REMARK    1  A    between atoms: C_1  and  C_2
REMARK    2  A    between atoms: N_4  and  C_5
REMARK    3  A    between atoms: C_5  and  C_6
REMARK    4  A    between atoms: C_5  and  C_26
REMARK    5  A    between atoms: C_6  and  C_7
REMARK    6  A    between atoms: C_7  and  O_9
REMARK    7  A    between atoms: O_9  and  C_10
REMARK    8  A    between atoms: C_10  and  C_11
REMARK    9  A    between atoms: C_11  and  C_13
REMARK   10  A    between atoms: C_16  and  N_17
REMARK   11  A    between atoms: C_18  and  C_20
REMARK   12  A    between atoms: C_20  and  C_21
REMARK   13  A    between atoms: C_21  and  C_22
REMARK   14  A    between atoms: C_21  and  C_23
REMARK                            x       y       z     vdW  Elec       q    Type
REMARK                         _______ _______ _______ _____ _____    ______ ____
ROOT
ATOM      1  C   UNL     1       3.879   5.742  19.357  0.00  0.00    +0.000 C 
ENDROOT
BRANCH   1   2
ATOM      2  C   UNL     1       2.465   6.132  19.796  0.00  0.00    +0.000 C 
ATOM      3  O   UNL     1       1.731   5.346  20.392  0.00  0.00    +0.000 OA
BRANCH   2   4
ATOM      4  C   UNL     1       1.988   7.527  19.548  0.00  0.00    +0.000 A 
ATOM      5  C   UNL     1       2.082   8.116  18.288  0.00  0.00    +0.000 A 
ATOM      6  C   UNL     1       1.588   9.406  18.071  0.00  0.00    +0.000 A 
ATOM      7  C   UNL     1       1.002  10.131  19.106  0.00  0.00    +0.000 A 
ATOM      8  C   UNL     1       0.967   9.574  20.388  0.00  0.00    +0.000 A 
ATOM      9  C   UNL     1       1.443   8.272  20.604  0.00  0.00    +0.000 A 
BRANCH   7  10
ATOM     10  N   UNL     1       0.460  11.419  18.908  0.00  0.00    +0.000 N 
ATOM     11  C   UNL     1       1.199  12.569  18.678  0.00  0.00    +0.000 C 
ATOM     12  O   UNL     1       2.410  12.625  18.484  0.00  0.00    +0.000 OA
ATOM     13  H   UNL     1      -0.545  11.485  18.813  0.00  0.00    +0.000 HD
BRANCH  11  14
ATOM     14  C   UNL     1       0.372  13.836  18.638  0.00  0.00    +0.000 C 
BRANCH  14  15
ATOM     15  C   UNL     1       0.903  14.940  19.561  0.00  0.00    +0.000 C 
ATOM     16  C   UNL     1       0.650  16.337  18.985  0.00  0.00    +0.000 C 
ATOM     17  C   UNL     1       0.250  14.820  20.938  0.00  0.00    +0.000 C 
ENDBRANCH  14  15
ENDBRANCH  11  14
ENDBRANCH   7  10
ENDBRANCH   2   4
ENDBRANCH   1   2
BRANCH   1  18
ATOM     18  O   UNL     1       3.932   4.755  18.326  0.00  0.00    +0.000 OA
BRANCH  18  19
ATOM     19  C   UNL     1       4.359   5.196  17.109  0.00  0.00    +0.000 C 
ATOM     20  O   UNL     1       4.305   6.359  16.736  0.00  0.00    +0.000 OA
BRANCH  19  21
ATOM     21  C   UNL     1       4.977   4.052  16.344  0.00  0.00    +0.000 C 
BRANCH  21  22
ATOM     22  C   UNL     1       6.454   4.311  16.016  0.00  0.00    +0.000 C 
BRANCH  22  23
ATOM     23  C   UNL     1       6.706   4.389  14.513  0.00  0.00    +0.000 A 
ATOM     24  C   UNL     1       6.062   3.506  13.633  0.00  0.00    +0.000 A 
ATOM     25  C   UNL     1       6.329   3.542  12.259  0.00  0.00    +0.000 A 
ATOM     26  C   UNL     1       7.246   4.460  11.750  0.00  0.00    +0.000 A 
ATOM     27  C   UNL     1       7.880   5.353  12.607  0.00  0.00    +0.000 A 
ATOM     28  C   UNL     1       7.606   5.325  13.975  0.00  0.00    +0.000 A 
ENDBRANCH  22  23
BRANCH  22  32
ATOM     29  C   UNL     1       8.000   6.833  18.427  0.00  0.00    +0.000 C 
ATOM     30  C   UNL     1       7.498   5.485  17.991  0.00  0.00    +0.000 C 
ATOM     31  O   UNL     1       7.495   4.520  18.746  0.00  0.00    +0.000 OA
ATOM     32  N   UNL     1       7.077   5.455  16.684  0.00  0.00    +0.000 N 
ATOM     33  H   UNL     1       7.115   6.313  16.151  0.00  0.00    +0.000 HD
ENDBRANCH  22  32
ENDBRANCH  21  22
ENDBRANCH  19  21
ENDBRANCH  18  19
ENDBRANCH   1  18
TORSDOF 11
ENDMDL
MODEL 2
REMARK VINA RESULT:      -7.5      2.710      4.663
REMARK  Name = 
REMARK  14 active torsions:
REMARK  status: ('A' for Active; 'I' for Inactive)
REMARK    1  A    between atoms: C_1  and  C_2
REMARK    2  A    between atoms: N_4  and  C_5
REMARK    3  A    between atoms: C_5  and  C_6
REMARK    4  A    between atoms: C_5  and  C_26
REMARK    5  A    between atoms: C_6  and  C_7
REMARK    6  A    between atoms: C_7  and  O_9
REMARK    7  A    between atoms: O_9  and  C_10
REMARK    8  A    between atoms: C_10  and  C_11
REMARK    9  A    between atoms: C_11  and  C_13
REMARK   10  A    between atoms: C_16  and  N_17
REMARK   11  A    between atoms: C_18  and  C_20
REMARK   12  A    between atoms: C_20  and  C_21
REMARK   13  A    between atoms: C_21  and  C_22
REMARK   14  A    between atoms: C_21  and  C_23
REMARK                            x       y       z     vdW  Elec       q    Type
REMARK                         _______ _______ _______ _____ _____    ______ ____
ROOT
ATOM      1  C   UNL     1       2.940   6.932  18.452  0.00  0.00    +0.000 C 
ENDROOT
BRANCH   1   2
ATOM      2  C   UNL     1       2.332   8.303  18.147  0.00  0.00    +0.000 C 
ATOM      3  O   UNL     1       2.540   8.884  17.083  0.00  0.00    +0.000 OA
BRANCH   2   4
ATOM      4  C   UNL     1       1.408   8.924  19.146  0.00  0.00    +0.000 A 
ATOM      5  C   UNL     1       1.416   8.537  20.486  0.00  0.00    +0.000 A 
ATOM      6  C   UNL     1       0.575   9.164  21.409  0.00  0.00    +0.000 A 
ATOM      7  C   UNL     1      -0.294  10.178  21.011  0.00  0.00    +0.000 A 
ATOM      8  C   UNL     1      -0.357  10.523  19.657  0.00  0.00    +0.000 A 
ATOM      9  C   UNL     1       0.502   9.910  18.733  0.00  0.00    +0.000 A 
BRANCH   7  10
ATOM     10  N   UNL     1      -1.127  10.855  21.927  0.00  0.00    +0.000 N 
ATOM     11  C   UNL     1      -0.868  12.105  22.468  0.00  0.00    +0.000 C 
ATOM     12  O   UNL     1       0.044  12.860  22.142  0.00  0.00    +0.000 OA
ATOM     13  H   UNL     1      -2.035  10.447  22.112  0.00  0.00    +0.000 HD
BRANCH  11  14
ATOM     14  C   UNL     1      -1.858  12.535  23.529  0.00  0.00    +0.000 C 
BRANCH  14  15
ATOM     15  C   UNL     1      -2.796  13.658  23.069  0.00  0.00    +0.000 C 
ATOM     16  C   UNL     1      -3.959  13.122  22.227  0.00  0.00    +0.000 C 
ATOM     17  C   UNL     1      -3.339  14.408  24.285  0.00  0.00    +0.000 C 
ENDBRANCH  14  15
ENDBRANCH  11  14
ENDBRANCH   7  10
ENDBRANCH   2   4
ENDBRANCH   1   2
BRANCH   1  18
ATOM     18  O   UNL     1       3.803   6.422  17.435  0.00  0.00    +0.000 OA
BRANCH  18  19
ATOM     19  C   UNL     1       5.138   6.503  17.700  0.00  0.00    +0.000 C 
ATOM     20  O   UNL     1       5.883   7.361  17.251  0.00  0.00    +0.000 OA
BRANCH  19  21
ATOM     21  C   UNL     1       5.523   5.430  18.689  0.00  0.00    +0.000 C 
BRANCH  21  22
ATOM     22  C   UNL     1       5.327   4.021  18.112  0.00  0.00    +0.000 C 
BRANCH  22  23
ATOM     23  C   UNL     1       4.020   3.385  18.576  0.00  0.00    +0.000 A 
ATOM     24  C   UNL     1       3.705   3.310  19.941  0.00  0.00    +0.000 A 
ATOM     25  C   UNL     1       2.531   2.682  20.372  0.00  0.00    +0.000 A 
ATOM     26  C   UNL     1       1.658   2.118  19.443  0.00  0.00    +0.000 A 
ATOM     27  C   UNL     1       1.948   2.199  18.085  0.00  0.00    +0.000 A 
ATOM     28  C   UNL     1       3.113   2.835  17.654  0.00  0.00    +0.000 A 
ENDBRANCH  22  23
BRANCH  22  32
ATOM     29  C   UNL     1       6.398   4.011  14.449  0.00  0.00    +0.000 C 
ATOM     30  C   UNL     1       6.598   4.124  15.935  0.00  0.00    +0.000 C 
ATOM     31  O   UNL     1       7.692   4.382  16.422  0.00  0.00    +0.000 OA
ATOM     32  N   UNL     1       5.456   3.889  16.660  0.00  0.00    +0.000 N 
ATOM     33  H   UNL     1       4.602   3.692  16.155  0.00  0.00    +0.000 HD
ENDBRANCH  22  32
ENDBRANCH  21  22
ENDBRANCH  19  21
ENDBRANCH  18  19
ENDBRANCH   1  18
TORSDOF 11
ENDMDL
MODEL 3
REMARK VINA RESULT:      -7.5      5.145      7.234
REMARK  Name = 
REMARK  14 active torsions:
REMARK  status: ('A' for Active; 'I' for Inactive)
REMARK    1  A    between atoms: C_1  and  C_2
REMARK    2  A    between atoms: N_4  and  C_5
REMARK    3  A    between atoms: C_5  and  C_6
REMARK    4  A    between atoms: C_5  and  C_26
REMARK    5  A    between atoms: C_6  and  C_7
REMARK    6  A    between atoms: C_7  and  O_9
REMARK    7  A    between atoms: O_9  and  C_10
REMARK    8  A    between atoms: C_10  and  C_11
REMARK    9  A    between atoms: C_11  and  C_13
REMARK   10  A    between atoms: C_16  and  N_17
REMARK   11  A    between atoms: C_18  and  C_20
REMARK   12  A    between atoms: C_20  and  C_21
REMARK   13  A    between atoms: C_21  and  C_22
REMARK   14  A    between atoms: C_21  and  C_23
REMARK                            x       y       z     vdW  Elec       q    Type
REMARK                         _______ _______ _______ _____ _____    ______ ____
ROOT
ATOM      1  C   UNL     1       8.314   7.311  18.659  0.00  0.00    +0.000 C 
ENDROOT
BRANCH   1   2
ATOM      2  C   UNL     1       7.946   8.589  17.902  0.00  0.00    +0.000 C 
ATOM      3  O   UNL     1       7.093   8.596  17.015  0.00  0.00    +0.000 OA
BRANCH   2   4
ATOM      4  C   UNL     1       8.597   9.877  18.294  0.00  0.00    +0.000 A 
ATOM      5  C   UNL     1       9.421   9.965  19.415  0.00  0.00    +0.000 A 
ATOM      6  C   UNL     1      10.054  11.169  19.736  0.00  0.00    +0.000 A 
ATOM      7  C   UNL     1       9.869  12.306  18.951  0.00  0.00    +0.000 A 
ATOM      8  C   UNL     1       8.990  12.243  17.866  0.00  0.00    +0.000 A 
ATOM      9  C   UNL     1       8.370  11.030  17.529  0.00  0.00    +0.000 A 
BRANCH   7  10
ATOM     10  N   UNL     1      10.524  13.524  19.228  0.00  0.00    +0.000 N 
ATOM     11  C   UNL     1       9.935  14.632  19.818  0.00  0.00    +0.000 C 
ATOM     12  O   UNL     1       8.808  14.680  20.302  0.00  0.00    +0.000 OA
ATOM     13  H   UNL     1      11.527  13.548  19.089  0.00  0.00    +0.000 HD
BRANCH  11  14
ATOM     14  C   UNL     1      10.830  15.851  19.871  0.00  0.00    +0.000 C 
BRANCH  14  15
ATOM     15  C   UNL     1      10.428  16.946  18.875  0.00  0.00    +0.000 C 
ATOM     16  C   UNL     1       9.783  18.147  19.576  0.00  0.00    +0.000 C 
ATOM     17  C   UNL     1      11.654  17.403  18.087  0.00  0.00    +0.000 C 
ENDBRANCH  14  15
ENDBRANCH  11  14
ENDBRANCH   7  10
ENDBRANCH   2   4
ENDBRANCH   1   2
BRANCH   1  18
ATOM     18  O   UNL     1       7.744   6.115  18.124  0.00  0.00    +0.000 OA
BRANCH  18  19
ATOM     19  C   UNL     1       6.686   5.606  18.816  0.00  0.00    +0.000 C 
ATOM     20  O   UNL     1       6.728   5.254  19.986  0.00  0.00    +0.000 OA
BRANCH  19  21
ATOM     21  C   UNL     1       5.454   5.629  17.944  0.00  0.00    +0.000 C 
BRANCH  21  22
ATOM     22  C   UNL     1       5.169   4.257  17.318  0.00  0.00    +0.000 C 
BRANCH  22  23
ATOM     23  C   UNL     1       3.799   3.715  17.715  0.00  0.00    +0.000 A 
ATOM     24  C   UNL     1       2.664   4.540  17.675  0.00  0.00    +0.000 A 
ATOM     25  C   UNL     1       1.416   4.060  18.088  0.00  0.00    +0.000 A 
ATOM     26  C   UNL     1       1.287   2.750  18.546  0.00  0.00    +0.000 A 
ATOM     27  C   UNL     1       2.398   1.915  18.575  0.00  0.00    +0.000 A 
ATOM     28  C   UNL     1       3.641   2.389  18.154  0.00  0.00    +0.000 A 
ENDBRANCH  22  23
BRANCH  22  32
ATOM     29  C   UNL     1       6.386   4.221  13.701  0.00  0.00    +0.000 C 
ATOM     30  C   UNL     1       6.535   4.257  15.196  0.00  0.00    +0.000 C 
ATOM     31  O   UNL     1       7.631   4.350  15.735  0.00  0.00    +0.000 OA
ATOM     32  N   UNL     1       5.342   4.156  15.868  0.00  0.00    +0.000 N 
ATOM     33  H   UNL     1       4.492   4.092  15.323  0.00  0.00    +0.000 HD
ENDBRANCH  22  32
ENDBRANCH  21  22
ENDBRANCH  19  21
ENDBRANCH  18  19
ENDBRANCH   1  18
TORSDOF 11
ENDMDL
MODEL 4
REMARK VINA RESULT:      -7.5      5.092      7.239
REMARK  Name = 
REMARK  14 active torsions:
REMARK  status: ('A' for Active; 'I' for Inactive)
REMARK    1  A    between atoms: C_1  and  C_2
REMARK    2  A    between atoms: N_4  and  C_5
REMARK    3  A    between atoms: C_5  and  C_6
REMARK    4  A    between atoms: C_5  and  C_26
REMARK    5  A    between atoms: C_6  and  C_7
REMARK    6  A    between atoms: C_7  and  O_9
REMARK    7  A    between atoms: O_9  and  C_10
REMARK    8  A    between atoms: C_10  and  C_11
REMARK    9  A    between atoms: C_11  and  C_13
REMARK   10  A    between atoms: C_16  and  N_17
REMARK   11  A    between atoms: C_18  and  C_20
REMARK   12  A    between atoms: C_20  and  C_21
REMARK   13  A    between atoms: C_21  and  C_22
REMARK   14  A    between atoms: C_21  and  C_23
REMARK                            x       y       z     vdW  Elec       q    Type
REMARK                         _______ _______ _______ _____ _____    ______ ____
ROOT
ATOM      1  C   UNL     1       8.465   7.495  18.817  0.00  0.00    +0.000 C 
ENDROOT
BRANCH   1   2
ATOM      2  C   UNL     1       8.070   8.717  17.985  0.00  0.00    +0.000 C 
ATOM      3  O   UNL     1       7.233   8.649  17.086  0.00  0.00    +0.000 OA
BRANCH   2   4
ATOM      4  C   UNL     1       8.671  10.046  18.318  0.00  0.00    +0.000 A 
ATOM      5  C   UNL     1       9.575  10.193  19.370  0.00  0.00    +0.000 A 
ATOM      6  C   UNL     1      10.158  11.436  19.633  0.00  0.00    +0.000 A 
ATOM      7  C   UNL     1       9.843  12.552  18.860  0.00  0.00    +0.000 A 
ATOM      8  C   UNL     1       8.886  12.426  17.848  0.00  0.00    +0.000 A 
ATOM      9  C   UNL     1       8.315  11.176  17.568  0.00  0.00    +0.000 A 
BRANCH   7  10
ATOM     10  N   UNL     1      10.444  13.810  19.077  0.00  0.00    +0.000 N 
ATOM     11  C   UNL     1       9.887  14.844  19.814  0.00  0.00    +0.000 C 
ATOM     12  O   UNL     1       8.863  14.783  20.487  0.00  0.00    +0.000 OA
ATOM     13  H   UNL     1      11.401  13.921  18.768  0.00  0.00    +0.000 HD
BRANCH  11  14
ATOM     14  C   UNL     1      10.683  16.131  19.769  0.00  0.00    +0.000 C 
BRANCH  14  15
ATOM     15  C   UNL     1      10.420  16.968  18.512  0.00  0.00    +0.000 C 
ATOM     16  C   UNL     1      11.413  16.645  17.391  0.00  0.00    +0.000 C 
ATOM     17  C   UNL     1       8.991  16.730  18.023  0.00  0.00    +0.000 C 
ENDBRANCH  14  15
ENDBRANCH  11  14
ENDBRANCH   7  10
ENDBRANCH   2   4
ENDBRANCH   1   2
BRANCH   1  18
ATOM     18  O   UNL     1       7.834   6.276  18.423  0.00  0.00    +0.000 OA
BRANCH  18  19
ATOM     19  C   UNL     1       7.240   5.570  19.427  0.00  0.00    +0.000 C 
ATOM     20  O   UNL     1       7.806   5.205  20.446  0.00  0.00    +0.000 OA
BRANCH  19  21
ATOM     21  C   UNL     1       5.773   5.389  19.119  0.00  0.00    +0.000 C 
BRANCH  21  22
ATOM     22  C   UNL     1       5.503   4.083  18.359  0.00  0.00    +0.000 C 
BRANCH  22  23
ATOM     23  C   UNL     1       4.015   3.754  18.290  0.00  0.00    +0.000 A 
ATOM     24  C   UNL     1       3.052   4.715  18.635  0.00  0.00    +0.000 A 
ATOM     25  C   UNL     1       1.688   4.400  18.622  0.00  0.00    +0.000 A 
ATOM     26  C   UNL     1       1.270   3.119  18.265  0.00  0.00    +0.000 A 
ATOM     27  C   UNL     1       2.211   2.160  17.904  0.00  0.00    +0.000 A 
ATOM     28  C   UNL     1       3.570   2.477  17.906  0.00  0.00    +0.000 A 
ENDBRANCH  22  23
BRANCH  22  32
ATOM     29  C   UNL     1       6.524   4.379  14.694  0.00  0.00    +0.000 C 
ATOM     30  C   UNL     1       5.849   4.807  15.967  0.00  0.00    +0.000 C 
ATOM     31  O   UNL     1       5.164   5.821  16.027  0.00  0.00    +0.000 OA
ATOM     32  N   UNL     1       6.098   3.971  17.027  0.00  0.00    +0.000 N 
ATOM     33  H   UNL     1       6.673   3.154  16.864  0.00  0.00    +0.000 HD
ENDBRANCH  22  32
ENDBRANCH  21  22
ENDBRANCH  19  21
ENDBRANCH  18  19
ENDBRANCH   1  18
TORSDOF 11
ENDMDL
MODEL 5
REMARK VINA RESULT:      -7.4      1.105      1.534
REMARK  Name = 
REMARK  14 active torsions:
REMARK  status: ('A' for Active; 'I' for Inactive)
REMARK    1  A    between atoms: C_1  and  C_2
REMARK    2  A    between atoms: N_4  and  C_5
REMARK    3  A    between atoms: C_5  and  C_6
REMARK    4  A    between atoms: C_5  and  C_26
REMARK    5  A    between atoms: C_6  and  C_7
REMARK    6  A    between atoms: C_7  and  O_9
REMARK    7  A    between atoms: O_9  and  C_10
REMARK    8  A    between atoms: C_10  and  C_11
REMARK    9  A    between atoms: C_11  and  C_13
REMARK   10  A    between atoms: C_16  and  N_17
REMARK   11  A    between atoms: C_18  and  C_20
REMARK   12  A    between atoms: C_20  and  C_21
REMARK   13  A    between atoms: C_21  and  C_22
REMARK   14  A    between atoms: C_21  and  C_23
REMARK                            x       y       z     vdW  Elec       q    Type
REMARK                         _______ _______ _______ _____ _____    ______ ____
ROOT
ATOM      1  C   UNL     1       2.916   5.166  18.773  0.00  0.00    +0.000 C 
ENDROOT
BRANCH   1   2
ATOM      2  C   UNL     1       2.327   5.958  19.942  0.00  0.00    +0.000 C 
ATOM      3  O   UNL     1       2.218   5.472  21.067  0.00  0.00    +0.000 OA
BRANCH   2   4
ATOM      4  C   UNL     1       1.931   7.384  19.726  0.00  0.00    +0.000 A 
ATOM      5  C   UNL     1       1.456   8.175  20.772  0.00  0.00    +0.000 A 
ATOM      6  C   UNL     1       1.135   9.518  20.554  0.00  0.00    +0.000 A 
ATOM      7  C   UNL     1       1.272  10.091  19.291  0.00  0.00    +0.000 A 
ATOM      8  C   UNL     1       1.682   9.286  18.224  0.00  0.00    +0.000 A 
ATOM      9  C   UNL     1       2.025   7.943  18.444  0.00  0.00    +0.000 A 
BRANCH   7  10
ATOM     10  N   UNL     1       0.993  11.453  19.050  0.00  0.00    +0.000 N 
ATOM     11  C   UNL     1      -0.264  11.975  18.787  0.00  0.00    +0.000 C 
ATOM     12  O   UNL     1      -1.328  11.367  18.851  0.00  0.00    +0.000 OA
ATOM     13  H   UNL     1       1.750  12.109  19.193  0.00  0.00    +0.000 HD
BRANCH  11  14
ATOM     14  C   UNL     1      -0.258  13.446  18.429  0.00  0.00    +0.000 C 
BRANCH  14  15
ATOM     15  C   UNL     1      -0.588  14.363  19.612  0.00  0.00    +0.000 C 
ATOM     16  C   UNL     1       0.454  14.252  20.730  0.00  0.00    +0.000 C 
ATOM     17  C   UNL     1      -0.681  15.812  19.132  0.00  0.00    +0.000 C 
ENDBRANCH  14  15
ENDBRANCH  11  14
ENDBRANCH   7  10
ENDBRANCH   2   4
ENDBRANCH   1   2
BRANCH   1  18
ATOM     18  O   UNL     1       4.328   5.301  18.611  0.00  0.00    +0.000 OA
BRANCH  18  19
ATOM     19  C   UNL     1       4.759   5.497  17.333  0.00  0.00    +0.000 C 
ATOM     20  O   UNL     1       4.453   6.455  16.638  0.00  0.00    +0.000 OA
BRANCH  19  21
ATOM     21  C   UNL     1       5.726   4.403  16.951  0.00  0.00    +0.000 C 
BRANCH  21  22
ATOM     22  C   UNL     1       6.967   4.957  16.239  0.00  0.00    +0.000 C 
BRANCH  22  23
ATOM     23  C   UNL     1       6.927   4.709  14.734  0.00  0.00    +0.000 A 
ATOM     24  C   UNL     1       6.037   3.771  14.187  0.00  0.00    +0.000 A 
ATOM     25  C   UNL     1       6.033   3.505  12.812  0.00  0.00    +0.000 A 
ATOM     26  C   UNL     1       6.920   4.172  11.968  0.00  0.00    +0.000 A 
ATOM     27  C   UNL     1       7.796   5.117  12.493  0.00  0.00    +0.000 A 
ATOM     28  C   UNL     1       7.793   5.390  13.861  0.00  0.00    +0.000 A 
ENDBRANCH  22  23
BRANCH  22  32
ATOM     29  C   UNL     1       7.877   8.362  17.702  0.00  0.00    +0.000 C 
ATOM     30  C   UNL     1       7.718   6.867  17.706  0.00  0.00    +0.000 C 
ATOM     31  O   UNL     1       7.967   6.192  18.698  0.00  0.00    +0.000 OA
ATOM     32  N   UNL     1       7.297   6.358  16.502  0.00  0.00    +0.000 N 
ATOM     33  H   UNL     1       7.113   7.007  15.749  0.00  0.00    +0.000 HD
ENDBRANCH  22  32
ENDBRANCH  21  22
ENDBRANCH  19  21
ENDBRANCH  18  19
ENDBRANCH   1  18
TORSDOF 11
ENDMDL
MODEL 6
REMARK VINA RESULT:      -7.4      1.722      2.322
REMARK  Name = 
REMARK  14 active torsions:
REMARK  status: ('A' for Active; 'I' for Inactive)
REMARK    1  A    between atoms: C_1  and  C_2
REMARK    2  A    between atoms: N_4  and  C_5
REMARK    3  A    between atoms: C_5  and  C_6
REMARK    4  A    between atoms: C_5  and  C_26
REMARK    5  A    between atoms: C_6  and  C_7
REMARK    6  A    between atoms: C_7  and  O_9
REMARK    7  A    between atoms: O_9  and  C_10
REMARK    8  A    between atoms: C_10  and  C_11
REMARK    9  A    between atoms: C_11  and  C_13
REMARK   10  A    between atoms: C_16  and  N_17
REMARK   11  A    between atoms: C_18  and  C_20
REMARK   12  A    between atoms: C_20  and  C_21
REMARK   13  A    between atoms: C_21  and  C_22
REMARK   14  A    between atoms: C_21  and  C_23
REMARK                            x       y       z     vdW  Elec       q    Type
REMARK                         _______ _______ _______ _____ _____    ______ ____
ROOT
ATOM      1  C   UNL     1       3.052   3.244  19.164  0.00  0.00    +0.000 C 
ENDROOT
BRANCH   1   2
ATOM      2  C   UNL     1       2.090   4.204  18.461  0.00  0.00    +0.000 C 
ATOM      3  O   UNL     1       1.349   3.832  17.552  0.00  0.00    +0.000 OA
BRANCH   2   4
ATOM      4  C   UNL     1       2.005   5.621  18.933  0.00  0.00    +0.000 A 
ATOM      5  C   UNL     1       2.309   6.690  18.091  0.00  0.00    +0.000 A 
ATOM      6  C   UNL     1       2.178   8.006  18.542  0.00  0.00    +0.000 A 
ATOM      7  C   UNL     1       1.753   8.278  19.840  0.00  0.00    +0.000 A 
ATOM      8  C   UNL     1       1.512   7.211  20.712  0.00  0.00    +0.000 A 
ATOM      9  C   UNL     1       1.622   5.889  20.255  0.00  0.00    +0.000 A 
BRANCH   7  10
ATOM     10  N   UNL     1       1.574   9.596  20.312  0.00  0.00    +0.000 N 
ATOM     11  C   UNL     1       0.529  10.435  19.959  0.00  0.00    +0.000 C 
ATOM     12  O   UNL     1      -0.457  10.124  19.297  0.00  0.00    +0.000 OA
ATOM     13  H   UNL     1       2.194   9.909  21.049  0.00  0.00    +0.000 HD
BRANCH  11  14
ATOM     14  C   UNL     1       0.657  11.842  20.502  0.00  0.00    +0.000 C 
BRANCH  14  15
ATOM     15  C   UNL     1       0.954  12.888  19.421  0.00  0.00    +0.000 C 
ATOM     16  C   UNL     1       2.046  12.417  18.455  0.00  0.00    +0.000 C 
ATOM     17  C   UNL     1      -0.323  13.206  18.645  0.00  0.00    +0.000 C 
ENDBRANCH  14  15
ENDBRANCH  11  14
ENDBRANCH   7  10
ENDBRANCH   2   4
ENDBRANCH   1   2
BRANCH   1  18
ATOM     18  O   UNL     1       4.159   2.819  18.368  0.00  0.00    +0.000 OA
BRANCH  18  19
ATOM     19  C   UNL     1       5.096   3.774  18.106  0.00  0.00    +0.000 C 
ATOM     20  O   UNL     1       5.903   4.196  18.922  0.00  0.00    +0.000 OA
BRANCH  19  21
ATOM     21  C   UNL     1       5.033   4.158  16.648  0.00  0.00    +0.000 C 
BRANCH  21  22
ATOM     22  C   UNL     1       6.335   4.817  16.170  0.00  0.00    +0.000 C 
BRANCH  22  23
ATOM     23  C   UNL     1       6.592   4.576  14.686  0.00  0.00    +0.000 A 
ATOM     24  C   UNL     1       7.569   5.314  14.000  0.00  0.00    +0.000 A 
ATOM     25  C   UNL     1       7.772   5.131  12.627  0.00  0.00    +0.000 A 
ATOM     26  C   UNL     1       6.999   4.209  11.923  0.00  0.00    +0.000 A 
ATOM     27  C   UNL     1       6.039   3.457  12.592  0.00  0.00    +0.000 A 
ATOM     28  C   UNL     1       5.844   3.631  13.963  0.00  0.00    +0.000 A 
ENDBRANCH  22  23
BRANCH  22  32
ATOM     29  C   UNL     1       7.203   8.251  17.590  0.00  0.00    +0.000 C 
ATOM     30  C   UNL     1       7.335   6.763  17.427  0.00  0.00    +0.000 C 
ATOM     31  O   UNL     1       8.140   6.110  18.079  0.00  0.00    +0.000 OA
ATOM     32  N   UNL     1       6.493   6.239  16.477  0.00  0.00    +0.000 N 
ATOM     33  H   UNL     1       5.861   6.869  16.001  0.00  0.00    +0.000 HD
ENDBRANCH  22  32
ENDBRANCH  21  22
ENDBRANCH  19  21
ENDBRANCH  18  19
ENDBRANCH   1  18
TORSDOF 11
ENDMDL
MODEL 7
REMARK VINA RESULT:      -7.4      2.481      4.407
REMARK  Name = 
REMARK  14 active torsions:
REMARK  status: ('A' for Active; 'I' for Inactive)
REMARK    1  A    between atoms: C_1  and  C_2
REMARK    2  A    between atoms: N_4  and  C_5
REMARK    3  A    between atoms: C_5  and  C_6
REMARK    4  A    between atoms: C_5  and  C_26
REMARK    5  A    between atoms: C_6  and  C_7
REMARK    6  A    between atoms: C_7  and  O_9
REMARK    7  A    between atoms: O_9  and  C_10
REMARK    8  A    between atoms: C_10  and  C_11
REMARK    9  A    between atoms: C_11  and  C_13
REMARK   10  A    between atoms: C_16  and  N_17
REMARK   11  A    between atoms: C_18  and  C_20
REMARK   12  A    between atoms: C_20  and  C_21
REMARK   13  A    between atoms: C_21  and  C_22
REMARK   14  A    between atoms: C_21  and  C_23
REMARK                            x       y       z     vdW  Elec       q    Type
REMARK                         _______ _______ _______ _____ _____    ______ ____
ROOT
ATOM      1  C   UNL     1       3.311   7.632  17.602  0.00  0.00    +0.000 C 
ENDROOT
BRANCH   1   2
ATOM      2  C   UNL     1       2.494   7.458  18.885  0.00  0.00    +0.000 C 
ATOM      3  O   UNL     1       2.642   6.484  19.622  0.00  0.00    +0.000 OA
BRANCH   2   4
ATOM      4  C   UNL     1       1.535   8.533  19.285  0.00  0.00    +0.000 A 
ATOM      5  C   UNL     1       1.012   8.599  20.577  0.00  0.00    +0.000 A 
ATOM      6  C   UNL     1       0.152   9.639  20.939  0.00  0.00    +0.000 A 
ATOM      7  C   UNL     1      -0.209  10.623  20.021  0.00  0.00    +0.000 A 
ATOM      8  C   UNL     1       0.257  10.524  18.706  0.00  0.00    +0.000 A 
ATOM      9  C   UNL     1       1.137   9.493  18.345  0.00  0.00    +0.000 A 
BRANCH   7  10
ATOM     10  N   UNL     1      -1.044  11.706  20.369  0.00  0.00    +0.000 N 
ATOM     11  C   UNL     1      -0.733  12.688  21.296  0.00  0.00    +0.000 C 
ATOM     12  O   UNL     1       0.351  12.839  21.853  0.00  0.00    +0.000 OA
ATOM     13  H   UNL     1      -1.882  11.836  19.816  0.00  0.00    +0.000 HD
BRANCH  11  14
ATOM     14  C   UNL     1      -1.865  13.652  21.578  0.00  0.00    +0.000 C 
BRANCH  14  15
ATOM     15  C   UNL     1      -3.058  13.000  22.288  0.00  0.00    +0.000 C 
ATOM     16  C   UNL     1      -2.610  11.953  23.314  0.00  0.00    +0.000 C 
ATOM     17  C   UNL     1      -3.898  14.075  22.978  0.00  0.00    +0.000 C 
ENDBRANCH  14  15
ENDBRANCH  11  14
ENDBRANCH   7  10
ENDBRANCH   2   4
ENDBRANCH   1   2
BRANCH   1  18
ATOM     18  O   UNL     1       4.106   6.501  17.243  0.00  0.00    +0.000 OA
BRANCH  18  19
ATOM     19  C   UNL     1       5.414   6.556  17.622  0.00  0.00    +0.000 C 
ATOM     20  O   UNL     1       6.207   7.409  17.252  0.00  0.00    +0.000 OA
BRANCH  19  21
ATOM     21  C   UNL     1       5.697   5.463  18.623  0.00  0.00    +0.000 C 
BRANCH  21  22
ATOM     22  C   UNL     1       5.489   4.066  18.021  0.00  0.00    +0.000 C 
BRANCH  22  23
ATOM     23  C   UNL     1       4.191   3.421  18.499  0.00  0.00    +0.000 A 
ATOM     24  C   UNL     1       3.976   3.172  19.863  0.00  0.00    +0.000 A 
ATOM     25  C   UNL     1       2.808   2.534  20.299  0.00  0.00    +0.000 A 
ATOM     26  C   UNL     1       1.843   2.135  19.376  0.00  0.00    +0.000 A 
ATOM     27  C   UNL     1       2.034   2.389  18.022  0.00  0.00    +0.000 A 
ATOM     28  C   UNL     1       3.193   3.035  17.588  0.00  0.00    +0.000 A 
ENDBRANCH  22  23
BRANCH  22  32
ATOM     29  C   UNL     1       6.487   4.120  14.339  0.00  0.00    +0.000 C 
ATOM     30  C   UNL     1       6.718   4.196  15.822  0.00  0.00    +0.000 C 
ATOM     31  O   UNL     1       7.826   4.425  16.293  0.00  0.00    +0.000 OA
ATOM     32  N   UNL     1       5.587   3.964  16.565  0.00  0.00    +0.000 N 
ATOM     33  H   UNL     1       4.720   3.792  16.072  0.00  0.00    +0.000 HD
ENDBRANCH  22  32
ENDBRANCH  21  22
ENDBRANCH  19  21
ENDBRANCH  18  19
ENDBRANCH   1  18
TORSDOF 11
ENDMDL
MODEL 8
REMARK VINA RESULT:      -7.4      2.220      2.859
REMARK  Name = 
REMARK  14 active torsions:
REMARK  status: ('A' for Active; 'I' for Inactive)
REMARK    1  A    between atoms: C_1  and  C_2
REMARK    2  A    between atoms: N_4  and  C_5
REMARK    3  A    between atoms: C_5  and  C_6
REMARK    4  A    between atoms: C_5  and  C_26
REMARK    5  A    between atoms: C_6  and  C_7
REMARK    6  A    between atoms: C_7  and  O_9
REMARK    7  A    between atoms: O_9  and  C_10
REMARK    8  A    between atoms: C_10  and  C_11
REMARK    9  A    between atoms: C_11  and  C_13
REMARK   10  A    between atoms: C_16  and  N_17
REMARK   11  A    between atoms: C_18  and  C_20
REMARK   12  A    between atoms: C_20  and  C_21
REMARK   13  A    between atoms: C_21  and  C_22
REMARK   14  A    between atoms: C_21  and  C_23
REMARK                            x       y       z     vdW  Elec       q    Type
REMARK                         _______ _______ _______ _____ _____    ______ ____
ROOT
ATOM      1  C   UNL     1       2.925   6.433  18.270  0.00  0.00    +0.000 C 
ENDROOT
BRANCH   1   2
ATOM      2  C   UNL     1       2.684   7.907  17.937  0.00  0.00    +0.000 C 
ATOM      3  O   UNL     1       3.156   8.432  16.930  0.00  0.00    +0.000 OA
BRANCH   2   4
ATOM      4  C   UNL     1       1.797   8.716  18.829  0.00  0.00    +0.000 A 
ATOM      5  C   UNL     1       1.263   9.936  18.414  0.00  0.00    +0.000 A 
ATOM      6  C   UNL     1       0.401  10.652  19.249  0.00  0.00    +0.000 A 
ATOM      7  C   UNL     1       0.065  10.171  20.513  0.00  0.00    +0.000 A 
ATOM      8  C   UNL     1       0.651   8.983  20.962  0.00  0.00    +0.000 A 
ATOM      9  C   UNL     1       1.500   8.252  20.118  0.00  0.00    +0.000 A 
BRANCH   7  10
ATOM     10  N   UNL     1      -0.833  10.852  21.362  0.00  0.00    +0.000 N 
ATOM     11  C   UNL     1      -0.838  10.773  22.746  0.00  0.00    +0.000 C 
ATOM     12  O   UNL     1       0.003  10.211  23.442  0.00  0.00    +0.000 OA
ATOM     13  H   UNL     1      -1.442  11.537  20.932  0.00  0.00    +0.000 HD
BRANCH  11  14
ATOM     14  C   UNL     1      -1.996  11.497  23.400  0.00  0.00    +0.000 C 
BRANCH  14  15
ATOM     15  C   UNL     1      -2.393  12.790  22.678  0.00  0.00    +0.000 C 
ATOM     16  C   UNL     1      -3.913  12.938  22.566  0.00  0.00    +0.000 C 
ATOM     17  C   UNL     1      -1.807  13.994  23.417  0.00  0.00    +0.000 C 
ENDBRANCH  14  15
ENDBRANCH  11  14
ENDBRANCH   7  10
ENDBRANCH   2   4
ENDBRANCH   1   2
BRANCH   1  18
ATOM     18  O   UNL     1       3.810   5.756  17.376  0.00  0.00    +0.000 OA
BRANCH  18  19
ATOM     19  C   UNL     1       4.851   5.099  17.963  0.00  0.00    +0.000 C 
ATOM     20  O   UNL     1       5.137   5.174  19.148  0.00  0.00    +0.000 OA
BRANCH  19  21
ATOM     21  C   UNL     1       5.527   4.214  16.945  0.00  0.00    +0.000 C 
BRANCH  21  22
ATOM     22  C   UNL     1       6.717   4.915  16.274  0.00  0.00    +0.000 C 
BRANCH  22  23
ATOM     23  C   UNL     1       6.759   4.666  14.769  0.00  0.00    +0.000 A 
ATOM     24  C   UNL     1       5.895   3.734  14.174  0.00  0.00    +0.000 A 
ATOM     25  C   UNL     1       5.966   3.466  12.802  0.00  0.00    +0.000 A 
ATOM     26  C   UNL     1       6.903   4.125  12.008  0.00  0.00    +0.000 A 
ATOM     27  C   UNL     1       7.755   5.064  12.580  0.00  0.00    +0.000 A 
ATOM     28  C   UNL     1       7.677   5.340  13.946  0.00  0.00    +0.000 A 
ENDBRANCH  22  23
BRANCH  22  32
ATOM     29  C   UNL     1       7.414   8.390  17.688  0.00  0.00    +0.000 C 
ATOM     30  C   UNL     1       7.521   6.893  17.619  0.00  0.00    +0.000 C 
ATOM     31  O   UNL     1       8.157   6.250  18.446  0.00  0.00    +0.000 OA
ATOM     32  N   UNL     1       6.864   6.346  16.544  0.00  0.00    +0.000 N 
ATOM     33  H   UNL     1       6.362   6.969  15.926  0.00  0.00    +0.000 HD
ENDBRANCH  22  32
ENDBRANCH  21  22
ENDBRANCH  19  21
ENDBRANCH  18  19
ENDBRANCH   1  18
TORSDOF 11
ENDMDL
MODEL 9
REMARK VINA RESULT:      -7.3      1.813      2.274
REMARK  Name = 
REMARK  14 active torsions:
REMARK  status: ('A' for Active; 'I' for Inactive)
REMARK    1  A    between atoms: C_1  and  C_2
REMARK    2  A    between atoms: N_4  and  C_5
REMARK    3  A    between atoms: C_5  and  C_6
REMARK    4  A    between atoms: C_5  and  C_26
REMARK    5  A    between atoms: C_6  and  C_7
REMARK    6  A    between atoms: C_7  and  O_9
REMARK    7  A    between atoms: O_9  and  C_10
REMARK    8  A    between atoms: C_10  and  C_11
REMARK    9  A    between atoms: C_11  and  C_13
REMARK   10  A    between atoms: C_16  and  N_17
REMARK   11  A    between atoms: C_18  and  C_20
REMARK   12  A    between atoms: C_20  and  C_21
REMARK   13  A    between atoms: C_21  and  C_22
REMARK   14  A    between atoms: C_21  and  C_23
REMARK                            x       y       z     vdW  Elec       q    Type
REMARK                         _______ _______ _______ _____ _____    ______ ____
ROOT
ATOM      1  C   UNL     1       3.118   6.025  17.943  0.00  0.00    +0.000 C 
ENDROOT
BRANCH   1   2
ATOM      2  C   UNL     1       2.829   6.401  19.398  0.00  0.00    +0.000 C 
ATOM      3  O   UNL     1       3.333   5.791  20.340  0.00  0.00    +0.000 OA
BRANCH   2   4
ATOM      4  C   UNL     1       1.959   7.584  19.682  0.00  0.00    +0.000 A 
ATOM      5  C   UNL     1       1.304   7.730  20.904  0.00  0.00    +0.000 A 
ATOM      6  C   UNL     1       0.532   8.867  21.162  0.00  0.00    +0.000 A 
ATOM      7  C   UNL     1       0.392   9.869  20.205  0.00  0.00    +0.000 A 
ATOM      8  C   UNL     1       0.990   9.697  18.952  0.00  0.00    +0.000 A 
ATOM      9  C   UNL     1       1.782   8.567  18.698  0.00  0.00    +0.000 A 
BRANCH   7  10
ATOM     10  N   UNL     1      -0.348  11.045  20.451  0.00  0.00    +0.000 N 
ATOM     11  C   UNL     1      -1.420  11.487  19.691  0.00  0.00    +0.000 C 
ATOM     12  O   UNL     1      -1.965  10.869  18.780  0.00  0.00    +0.000 OA
ATOM     13  H   UNL     1      -0.153  11.539  21.312  0.00  0.00    +0.000 HD
BRANCH  11  14
ATOM     14  C   UNL     1      -1.943  12.848  20.095  0.00  0.00    +0.000 C 
BRANCH  14  15
ATOM     15  C   UNL     1      -2.686  12.843  21.436  0.00  0.00    +0.000 C 
ATOM     16  C   UNL     1      -1.958  13.676  22.496  0.00  0.00    +0.000 C 
ATOM     17  C   UNL     1      -4.105  13.377  21.242  0.00  0.00    +0.000 C 
ENDBRANCH  14  15
ENDBRANCH  11  14
ENDBRANCH   7  10
ENDBRANCH   2   4
ENDBRANCH   1   2
BRANCH   1  18
ATOM     18  O   UNL     1       2.990   4.633  17.650  0.00  0.00    +0.000 OA
BRANCH  18  19
ATOM     19  C   UNL     1       4.161   3.938  17.573  0.00  0.00    +0.000 C 
ATOM     20  O   UNL     1       4.722   3.418  18.526  0.00  0.00    +0.000 OA
BRANCH  19  21
ATOM     21  C   UNL     1       4.599   3.843  16.132  0.00  0.00    +0.000 C 
BRANCH  21  22
ATOM     22  C   UNL     1       6.091   4.162  15.963  0.00  0.00    +0.000 C 
BRANCH  22  23
ATOM     23  C   UNL     1       6.492   4.285  14.496  0.00  0.00    +0.000 A 
ATOM     24  C   UNL     1       5.915   3.452  13.524  0.00  0.00    +0.000 A 
ATOM     25  C   UNL     1       6.318   3.528  12.186  0.00  0.00    +0.000 A 
ATOM     26  C   UNL     1       7.304   4.435  11.803  0.00  0.00    +0.000 A 
ATOM     27  C   UNL     1       7.873   5.279  12.751  0.00  0.00    +0.000 A 
ATOM     28  C   UNL     1       7.464   5.212  14.083  0.00  0.00    +0.000 A 
ENDBRANCH  22  23
BRANCH  22  32
ATOM     29  C   UNL     1       7.768   6.585  18.388  0.00  0.00    +0.000 C 
ATOM     30  C   UNL     1       7.519   5.255  17.732  0.00  0.00    +0.000 C 
ATOM     31  O   UNL     1       8.111   4.241  18.082  0.00  0.00    +0.000 OA
ATOM     32  N   UNL     1       6.599   5.310  16.714  0.00  0.00    +0.000 N 
ATOM     33  H   UNL     1       6.164   6.200  16.513  0.00  0.00    +0.000 HD
ENDBRANCH  22  32
ENDBRANCH  21  22
ENDBRANCH  19  21
ENDBRANCH  18  19
ENDBRANCH   1  18
TORSDOF 11
ENDMDL
