MODEL 1
REMARK VINA RESULT:      -8.6      0.000      0.000
REMARK  Name = 
REMARK  2 active torsions:
REMARK  status: ('A' for Active; 'I' for Inactive)
REMARK    1  A    between atoms: C_7  and  C_8
REMARK    2  A    between atoms: C_14  and  C_15
REMARK                            x       y       z     vdW  Elec       q    Type
REMARK                         _______ _______ _______ _____ _____    ______ ____
ROOT
ATOM      1  C   UNL     1       5.629   5.250  17.445  0.00  0.00    +0.000 A 
ATOM      2  N   UNL     1       6.489   6.123  17.997  0.00  0.00    +0.000 NA
ATOM      3  N   UNL     1       7.394   6.321  17.011  0.00  0.00    +0.000 N 
ATOM      4  C   UNL     1       7.128   5.629  15.865  0.00  0.00    +0.000 A 
ATOM      5  N   UNL     1       7.852   5.645  14.731  0.00  0.00    +0.000 NA
ATOM      6  C   UNL     1       7.303   4.867  13.756  0.00  0.00    +0.000 A 
ATOM      7  C   UNL     1       6.122   4.111  13.832  0.00  0.00    +0.000 A 
ATOM      8  C   UNL     1       5.448   4.140  15.065  0.00  0.00    +0.000 A 
ATOM      9  C   UNL     1       5.966   4.923  16.109  0.00  0.00    +0.000 A 
ATOM     10  H   UNL     1       8.176   6.946  17.169  0.00  0.00    +0.000 HD
ENDROOT
BRANCH   1  17
ATOM     11  F   UNL     1       0.907   2.510  22.219  0.00  0.00    +0.000 F 
ATOM     12  C   UNL     1       1.445   2.985  21.088  0.00  0.00    +0.000 A 
ATOM     13  C   UNL     1       0.663   3.028  19.936  0.00  0.00    +0.000 A 
ATOM     14  C   UNL     1       1.192   3.525  18.739  0.00  0.00    +0.000 A 
ATOM     15  C   UNL     1       2.524   3.968  18.726  0.00  0.00    +0.000 A 
ATOM     16  N   UNL     1       3.261   4.490  17.696  0.00  0.00    +0.000 NA
ATOM     17  C   UNL     1       4.459   4.712  18.198  0.00  0.00    +0.000 A 
ATOM     18  N   UNL     1       4.513   4.369  19.525  0.00  0.00    +0.000 N 
ATOM     19  C   UNL     1       3.281   3.895  19.893  0.00  0.00    +0.000 A 
ATOM     20  C   UNL     1       2.773   3.416  21.104  0.00  0.00    +0.000 A 
ATOM     21  H   UNL     1       5.337   4.458  20.099  0.00  0.00    +0.000 HD
ENDBRANCH   1  17
BRANCH   7  22
ATOM     22  C   UNL     1       5.585   3.352  12.684  0.00  0.00    +0.000 A 
ATOM     23  C   UNL     1       4.389   3.710  12.042  0.00  0.00    +0.000 A 
ATOM     24  C   UNL     1       3.938   3.006  10.926  0.00  0.00    +0.000 A 
ATOM     25  C   UNL     1       4.691   1.938  10.475  0.00  0.00    +0.000 A 
ATOM     26  N   UNL     1       5.837   1.539  11.060  0.00  0.00    +0.000 NA
ATOM     27  C   UNL     1       6.253   2.253  12.136  0.00  0.00    +0.000 A 
ENDBRANCH   7  22
TORSDOF 2
ENDMDL
MODEL 2
REMARK VINA RESULT:      -8.5      4.214      5.778
REMARK  Name = 
REMARK  2 active torsions:
REMARK  status: ('A' for Active; 'I' for Inactive)
REMARK    1  A    between atoms: C_7  and  C_8
REMARK    2  A    between atoms: C_14  and  C_15
REMARK                            x       y       z     vdW  Elec       q    Type
REMARK                         _______ _______ _______ _____ _____    ______ ____
ROOT
ATOM      1  C   UNL     1       2.319   5.575  20.161  0.00  0.00    +0.000 A 
ATOM      2  N   UNL     1       1.848   4.789  21.145  0.00  0.00    +0.000 NA
ATOM      3  N   UNL     1       2.375   3.579  20.843  0.00  0.00    +0.000 N 
ATOM      4  C   UNL     1       3.166   3.579  19.731  0.00  0.00    +0.000 A 
ATOM      5  N   UNL     1       3.818   2.524  19.210  0.00  0.00    +0.000 NA
ATOM      6  C   UNL     1       4.550   2.859  18.110  0.00  0.00    +0.000 A 
ATOM      7  C   UNL     1       4.675   4.130  17.525  0.00  0.00    +0.000 A 
ATOM      8  C   UNL     1       3.938   5.164  18.127  0.00  0.00    +0.000 A 
ATOM      9  C   UNL     1       3.163   4.879  19.263  0.00  0.00    +0.000 A 
ATOM     10  H   UNL     1       2.167   2.783  21.434  0.00  0.00    +0.000 HD
ENDROOT
BRANCH   1  17
ATOM     11  F   UNL     1       0.197  12.443  21.128  0.00  0.00    +0.000 F 
ATOM     12  C   UNL     1       0.640  11.314  20.558  0.00  0.00    +0.000 A 
ATOM     13  C   UNL     1       0.915  11.311  19.193  0.00  0.00    +0.000 A 
ATOM     14  C   UNL     1       1.387  10.151  18.568  0.00  0.00    +0.000 A 
ATOM     15  C   UNL     1       1.566   8.995  19.345  0.00  0.00    +0.000 A 
ATOM     16  N   UNL     1       2.011   7.753  18.974  0.00  0.00    +0.000 NA
ATOM     17  C   UNL     1       1.962   7.021  20.068  0.00  0.00    +0.000 A 
ATOM     18  N   UNL     1       1.520   7.756  21.138  0.00  0.00    +0.000 N 
ATOM     19  C   UNL     1       1.265   9.031  20.705  0.00  0.00    +0.000 A 
ATOM     20  C   UNL     1       0.807  10.179  21.355  0.00  0.00    +0.000 A 
ATOM     21  H   UNL     1       1.408   7.387  22.071  0.00  0.00    +0.000 HD
ENDBRANCH   1  17
BRANCH   7  22
ATOM     22  C   UNL     1       5.551   4.390  16.365  0.00  0.00    +0.000 A 
ATOM     23  C   UNL     1       5.264   3.894  15.082  0.00  0.00    +0.000 A 
ATOM     24  C   UNL     1       6.081   4.205  13.995  0.00  0.00    +0.000 A 
ATOM     25  C   UNL     1       7.189   5.002  14.214  0.00  0.00    +0.000 A 
ATOM     26  N   UNL     1       7.523   5.492  15.424  0.00  0.00    +0.000 NA
ATOM     27  C   UNL     1       6.700   5.182  16.456  0.00  0.00    +0.000 A 
ENDBRANCH   7  22
TORSDOF 2
ENDMDL
MODEL 3
REMARK VINA RESULT:      -8.4      6.446      8.975
REMARK  Name = 
REMARK  2 active torsions:
REMARK  status: ('A' for Active; 'I' for Inactive)
REMARK    1  A    between atoms: C_7  and  C_8
REMARK    2  A    between atoms: C_14  and  C_15
REMARK                            x       y       z     vdW  Elec       q    Type
REMARK                         _______ _______ _______ _____ _____    ______ ____
ROOT
ATOM      1  C   UNL     1       1.149   8.784  20.910  0.00  0.00    +0.000 A 
ATOM      2  N   UNL     1       1.452   9.145  22.169  0.00  0.00    +0.000 NA
ATOM      3  N   UNL     1       0.654  10.219  22.376  0.00  0.00    +0.000 N 
ATOM      4  C   UNL     1      -0.144  10.532  21.314  0.00  0.00    +0.000 A 
ATOM      5  N   UNL     1      -1.033  11.539  21.247  0.00  0.00    +0.000 NA
ATOM      6  C   UNL     1      -1.696  11.566  20.057  0.00  0.00    +0.000 A 
ATOM      7  C   UNL     1      -1.541  10.684  18.975  0.00  0.00    +0.000 A 
ATOM      8  C   UNL     1      -0.572   9.678  19.130  0.00  0.00    +0.000 A 
ATOM      9  C   UNL     1       0.145   9.600  20.335  0.00  0.00    +0.000 A 
ATOM     10  H   UNL     1       0.689  10.702  23.266  0.00  0.00    +0.000 HD
ENDROOT
BRANCH   1  17
ATOM     11  F   UNL     1       4.175   2.509  18.895  0.00  0.00    +0.000 F 
ATOM     12  C   UNL     1       3.758   3.783  18.891  0.00  0.00    +0.000 A 
ATOM     13  C   UNL     1       4.061   4.587  17.795  0.00  0.00    +0.000 A 
ATOM     14  C   UNL     1       3.635   5.919  17.756  0.00  0.00    +0.000 A 
ATOM     15  C   UNL     1       2.907   6.424  18.845  0.00  0.00    +0.000 A 
ATOM     16  N   UNL     1       2.384   7.676  19.042  0.00  0.00    +0.000 NA
ATOM     17  C   UNL     1       1.825   7.639  20.234  0.00  0.00    +0.000 A 
ATOM     18  N   UNL     1       1.952   6.399  20.805  0.00  0.00    +0.000 N 
ATOM     19  C   UNL     1       2.636   5.595  19.931  0.00  0.00    +0.000 A 
ATOM     20  C   UNL     1       3.038   4.258  19.989  0.00  0.00    +0.000 A 
ATOM     21  H   UNL     1       1.595   6.156  21.717  0.00  0.00    +0.000 HD
ENDBRANCH   1  17
BRANCH   7  22
ATOM     22  C   UNL     1      -2.363  10.771  17.751  0.00  0.00    +0.000 A 
ATOM     23  C   UNL     1      -2.033  10.077  16.575  0.00  0.00    +0.000 A 
ATOM     24  C   UNL     1      -2.860  10.136  15.453  0.00  0.00    +0.000 A 
ATOM     25  C   UNL     1      -4.006  10.905  15.523  0.00  0.00    +0.000 A 
ATOM     26  N   UNL     1      -4.365  11.605  16.617  0.00  0.00    +0.000 NA
ATOM     27  C   UNL     1      -3.545  11.516  17.694  0.00  0.00    +0.000 A 
ENDBRANCH   7  22
TORSDOF 2
ENDMDL
MODEL 4
REMARK VINA RESULT:      -8.3      4.279      5.943
REMARK  Name = 
REMARK  2 active torsions:
REMARK  status: ('A' for Active; 'I' for Inactive)
REMARK    1  A    between atoms: C_7  and  C_8
REMARK    2  A    between atoms: C_14  and  C_15
REMARK                            x       y       z     vdW  Elec       q    Type
REMARK                         _______ _______ _______ _____ _____    ______ ____
ROOT
ATOM      1  C   UNL     1       2.243   5.588  20.189  0.00  0.00    +0.000 A 
ATOM      2  N   UNL     1       1.782   4.809  21.183  0.00  0.00    +0.000 NA
ATOM      3  N   UNL     1       2.337   3.606  20.906  0.00  0.00    +0.000 N 
ATOM      4  C   UNL     1       3.135   3.603  19.799  0.00  0.00    +0.000 A 
ATOM      5  N   UNL     1       3.813   2.553  19.301  0.00  0.00    +0.000 NA
ATOM      6  C   UNL     1       4.544   2.884  18.200  0.00  0.00    +0.000 A 
ATOM      7  C   UNL     1       4.647   4.147  17.593  0.00  0.00    +0.000 A 
ATOM      8  C   UNL     1       3.884   5.175  18.172  0.00  0.00    +0.000 A 
ATOM      9  C   UNL     1       3.108   4.894  19.309  0.00  0.00    +0.000 A 
ATOM     10  H   UNL     1       2.142   2.816  21.510  0.00  0.00    +0.000 HD
ENDROOT
BRANCH   1  17
ATOM     11  F   UNL     1       0.984  12.466  18.262  0.00  0.00    +0.000 F 
ATOM     12  C   UNL     1       1.049  11.333  18.976  0.00  0.00    +0.000 A 
ATOM     13  C   UNL     1       0.613  11.344  20.298  0.00  0.00    +0.000 A 
ATOM     14  C   UNL     1       0.660  10.177  21.069  0.00  0.00    +0.000 A 
ATOM     15  C   UNL     1       1.163   9.005  20.482  0.00  0.00    +0.000 A 
ATOM     16  N   UNL     1       1.309   7.752  21.019  0.00  0.00    +0.000 NA
ATOM     17  C   UNL     1       1.857   7.024  20.068  0.00  0.00    +0.000 A 
ATOM     18  N   UNL     1       2.050   7.760  18.927  0.00  0.00    +0.000 N 
ATOM     19  C   UNL     1       1.606   9.036  19.162  0.00  0.00    +0.000 A 
ATOM     20  C   UNL     1       1.557  10.183  18.367  0.00  0.00    +0.000 A 
ATOM     21  H   UNL     1       2.458   7.395  18.080  0.00  0.00    +0.000 HD
ENDBRANCH   1  17
BRANCH   7  22
ATOM     22  C   UNL     1       5.525   4.405  16.434  0.00  0.00    +0.000 A 
ATOM     23  C   UNL     1       5.242   3.904  15.153  0.00  0.00    +0.000 A 
ATOM     24  C   UNL     1       6.061   4.212  14.067  0.00  0.00    +0.000 A 
ATOM     25  C   UNL     1       7.166   5.013  14.286  0.00  0.00    +0.000 A 
ATOM     26  N   UNL     1       7.496   5.510  15.494  0.00  0.00    +0.000 NA
ATOM     27  C   UNL     1       6.671   5.200  16.526  0.00  0.00    +0.000 A 
ENDBRANCH   7  22
TORSDOF 2
ENDMDL
MODEL 5
REMARK VINA RESULT:      -8.1      6.550      9.083
REMARK  Name = 
REMARK  2 active torsions:
REMARK  status: ('A' for Active; 'I' for Inactive)
REMARK    1  A    between atoms: C_7  and  C_8
REMARK    2  A    between atoms: C_14  and  C_15
REMARK                            x       y       z     vdW  Elec       q    Type
REMARK                         _______ _______ _______ _____ _____    ______ ____
ROOT
ATOM      1  C   UNL     1       1.112   8.803  20.973  0.00  0.00    +0.000 A 
ATOM      2  N   UNL     1       1.452   9.200  22.212  0.00  0.00    +0.000 NA
ATOM      3  N   UNL     1       0.702  10.313  22.388  0.00  0.00    +0.000 N 
ATOM      4  C   UNL     1      -0.101  10.617  21.328  0.00  0.00    +0.000 A 
ATOM      5  N   UNL     1      -0.950  11.656  21.235  0.00  0.00    +0.000 NA
ATOM      6  C   UNL     1      -1.632  11.664  20.055  0.00  0.00    +0.000 A 
ATOM      7  C   UNL     1      -1.533  10.735  19.007  0.00  0.00    +0.000 A 
ATOM      8  C   UNL     1      -0.602   9.697  19.187  0.00  0.00    +0.000 A 
ATOM      9  C   UNL     1       0.132   9.636  20.382  0.00  0.00    +0.000 A 
ATOM     10  H   UNL     1       0.772  10.829  23.257  0.00  0.00    +0.000 HD
ENDROOT
BRANCH   1  17
ATOM     11  F   UNL     1       4.467   3.929  16.780  0.00  0.00    +0.000 F 
ATOM     12  C   UNL     1       3.773   4.486  17.781  0.00  0.00    +0.000 A 
ATOM     13  C   UNL     1       3.273   3.667  18.791  0.00  0.00    +0.000 A 
ATOM     14  C   UNL     1       2.551   4.218  19.856  0.00  0.00    +0.000 A 
ATOM     15  C   UNL     1       2.336   5.605  19.876  0.00  0.00    +0.000 A 
ATOM     16  N   UNL     1       1.671   6.373  20.795  0.00  0.00    +0.000 NA
ATOM     17  C   UNL     1       1.729   7.605  20.332  0.00  0.00    +0.000 A 
ATOM     18  N   UNL     1       2.428   7.660  19.153  0.00  0.00    +0.000 N 
ATOM     19  C   UNL     1       2.837   6.390  18.840  0.00  0.00    +0.000 A 
ATOM     20  C   UNL     1       3.573   5.868  17.774  0.00  0.00    +0.000 A 
ATOM     21  H   UNL     1       2.590   8.508  18.631  0.00  0.00    +0.000 HD
ENDBRANCH   1  17
BRANCH   7  22
ATOM     22  C   UNL     1      -2.372  10.808  17.794  0.00  0.00    +0.000 A 
ATOM     23  C   UNL     1      -2.044  10.121  16.613  0.00  0.00    +0.000 A 
ATOM     24  C   UNL     1      -2.886  10.165  15.502  0.00  0.00    +0.000 A 
ATOM     25  C   UNL     1      -4.046  10.913  15.588  0.00  0.00    +0.000 A 
ATOM     26  N   UNL     1      -4.404  11.604  16.687  0.00  0.00    +0.000 NA
ATOM     27  C   UNL     1      -3.568  11.530  17.753  0.00  0.00    +0.000 A 
ENDBRANCH   7  22
TORSDOF 2
ENDMDL
MODEL 6
REMARK VINA RESULT:      -8.0      4.076      8.085
REMARK  Name = 
REMARK  2 active torsions:
REMARK  status: ('A' for Active; 'I' for Inactive)
REMARK    1  A    between atoms: C_7  and  C_8
REMARK    2  A    between atoms: C_14  and  C_15
REMARK                            x       y       z     vdW  Elec       q    Type
REMARK                         _______ _______ _______ _____ _____    ______ ____
ROOT
ATOM      1  C   UNL     1       4.182   3.805  18.310  0.00  0.00    +0.000 A 
ATOM      2  N   UNL     1       4.164   2.624  18.951  0.00  0.00    +0.000 NA
ATOM      3  N   UNL     1       3.413   2.885  20.046  0.00  0.00    +0.000 N 
ATOM      4  C   UNL     1       2.947   4.166  20.108  0.00  0.00    +0.000 A 
ATOM      5  N   UNL     1       2.176   4.694  21.076  0.00  0.00    +0.000 NA
ATOM      6  C   UNL     1       1.856   5.996  20.830  0.00  0.00    +0.000 A 
ATOM      7  C   UNL     1       2.232   6.772  19.721  0.00  0.00    +0.000 A 
ATOM      8  C   UNL     1       3.057   6.139  18.775  0.00  0.00    +0.000 A 
ATOM      9  C   UNL     1       3.423   4.798  18.975  0.00  0.00    +0.000 A 
ATOM     10  H   UNL     1       3.243   2.149  20.722  0.00  0.00    +0.000 HD
ENDROOT
BRANCH   1  17
ATOM     11  F   UNL     1       8.679   5.670  12.934  0.00  0.00    +0.000 F 
ATOM     12  C   UNL     1       7.665   5.118  13.614  0.00  0.00    +0.000 A 
ATOM     13  C   UNL     1       6.738   4.339  12.926  0.00  0.00    +0.000 A 
ATOM     14  C   UNL     1       5.671   3.742  13.607  0.00  0.00    +0.000 A 
ATOM     15  C   UNL     1       5.553   3.954  14.990  0.00  0.00    +0.000 A 
ATOM     16  N   UNL     1       4.613   3.485  15.870  0.00  0.00    +0.000 NA
ATOM     17  C   UNL     1       4.936   4.001  17.038  0.00  0.00    +0.000 A 
ATOM     18  N   UNL     1       6.067   4.771  16.945  0.00  0.00    +0.000 N 
ATOM     19  C   UNL     1       6.490   4.753  15.642  0.00  0.00    +0.000 A 
ATOM     20  C   UNL     1       7.572   5.349  14.989  0.00  0.00    +0.000 A 
ATOM     21  H   UNL     1       6.485   5.258  17.724  0.00  0.00    +0.000 HD
ENDBRANCH   1  17
BRANCH   7  22
ATOM     22  C   UNL     1       1.771   8.161  19.526  0.00  0.00    +0.000 A 
ATOM     23  C   UNL     1       1.917   8.834  18.302  0.00  0.00    +0.000 A 
ATOM     24  C   UNL     1       1.420  10.127  18.133  0.00  0.00    +0.000 A 
ATOM     25  C   UNL     1       0.793  10.734  19.205  0.00  0.00    +0.000 A 
ATOM     26  N   UNL     1       0.639  10.144  20.406  0.00  0.00    +0.000 NA
ATOM     27  C   UNL     1       1.122   8.883  20.533  0.00  0.00    +0.000 A 
ENDBRANCH   7  22
TORSDOF 2
ENDMDL
MODEL 7
REMARK VINA RESULT:      -8.0      4.067      8.176
REMARK  Name = 
REMARK  2 active torsions:
REMARK  status: ('A' for Active; 'I' for Inactive)
REMARK    1  A    between atoms: C_7  and  C_8
REMARK    2  A    between atoms: C_14  and  C_15
REMARK                            x       y       z     vdW  Elec       q    Type
REMARK                         _______ _______ _______ _____ _____    ______ ____
ROOT
ATOM      1  C   UNL     1       4.242   3.893  18.315  0.00  0.00    +0.000 A 
ATOM      2  N   UNL     1       4.233   2.696  18.925  0.00  0.00    +0.000 NA
ATOM      3  N   UNL     1       3.457   2.916  20.012  0.00  0.00    +0.000 N 
ATOM      4  C   UNL     1       2.967   4.187  20.097  0.00  0.00    +0.000 A 
ATOM      5  N   UNL     1       2.169   4.676  21.063  0.00  0.00    +0.000 NA
ATOM      6  C   UNL     1       1.829   5.978  20.844  0.00  0.00    +0.000 A 
ATOM      7  C   UNL     1       2.212   6.788  19.762  0.00  0.00    +0.000 A 
ATOM      8  C   UNL     1       3.066   6.195  18.816  0.00  0.00    +0.000 A 
ATOM      9  C   UNL     1       3.452   4.855  18.990  0.00  0.00    +0.000 A 
ATOM     10  H   UNL     1       3.288   2.160  20.666  0.00  0.00    +0.000 HD
ENDROOT
BRANCH   1  17
ATOM     11  F   UNL     1       7.036   4.116  11.626  0.00  0.00    +0.000 F 
ATOM     12  C   UNL     1       6.849   4.323  12.937  0.00  0.00    +0.000 A 
ATOM     13  C   UNL     1       7.771   5.097  13.635  0.00  0.00    +0.000 A 
ATOM     14  C   UNL     1       7.601   5.339  15.004  0.00  0.00    +0.000 A 
ATOM     15  C   UNL     1       6.489   4.777  15.652  0.00  0.00    +0.000 A 
ATOM     16  N   UNL     1       6.105   4.867  16.964  0.00  0.00    +0.000 NA
ATOM     17  C   UNL     1       5.015   4.134  17.062  0.00  0.00    +0.000 A 
ATOM     18  N   UNL     1       4.670   3.592  15.850  0.00  0.00    +0.000 N 
ATOM     19  C   UNL     1       5.596   3.995  14.923  0.00  0.00    +0.000 A 
ATOM     20  C   UNL     1       5.735   3.750  13.555  0.00  0.00    +0.000 A 
ATOM     21  H   UNL     1       3.868   2.997  15.704  0.00  0.00    +0.000 HD
ENDBRANCH   1  17
BRANCH   7  22
ATOM     22  C   UNL     1       1.730   8.174  19.594  0.00  0.00    +0.000 A 
ATOM     23  C   UNL     1       1.837   8.862  18.373  0.00  0.00    +0.000 A 
ATOM     24  C   UNL     1       1.321  10.150  18.230  0.00  0.00    +0.000 A 
ATOM     25  C   UNL     1       0.714  10.738  19.324  0.00  0.00    +0.000 A 
ATOM     26  N   UNL     1       0.597  10.134  20.522  0.00  0.00    +0.000 NA
ATOM     27  C   UNL     1       1.098   8.878  20.623  0.00  0.00    +0.000 A 
ENDBRANCH   7  22
TORSDOF 2
ENDMDL
MODEL 8
REMARK VINA RESULT:      -7.8      0.764      1.254
REMARK  Name = 
REMARK  2 active torsions:
REMARK  status: ('A' for Active; 'I' for Inactive)
REMARK    1  A    between atoms: C_7  and  C_8
REMARK    2  A    between atoms: C_14  and  C_15
REMARK                            x       y       z     vdW  Elec       q    Type
REMARK                         _______ _______ _______ _____ _____    ______ ____
ROOT
ATOM      1  C   UNL     1       5.799   5.506  17.247  0.00  0.00    +0.000 A 
ATOM      2  N   UNL     1       6.688   6.387  17.738  0.00  0.00    +0.000 NA
ATOM      3  N   UNL     1       7.581   6.510  16.729  0.00  0.00    +0.000 N 
ATOM      4  C   UNL     1       7.281   5.764  15.626  0.00  0.00    +0.000 A 
ATOM      5  N   UNL     1       7.987   5.701  14.483  0.00  0.00    +0.000 NA
ATOM      6  C   UNL     1       7.405   4.885  13.560  0.00  0.00    +0.000 A 
ATOM      7  C   UNL     1       6.208   4.162  13.694  0.00  0.00    +0.000 A 
ATOM      8  C   UNL     1       5.554   4.274  14.934  0.00  0.00    +0.000 A 
ATOM      9  C   UNL     1       6.107   5.100  15.926  0.00  0.00    +0.000 A 
ATOM     10  H   UNL     1       8.379   7.124  16.841  0.00  0.00    +0.000 HD
ENDROOT
BRANCH   1  17
ATOM     11  F   UNL     1      -0.217   2.454  19.911  0.00  0.00    +0.000 F 
ATOM     12  C   UNL     1       0.882   3.211  19.790  0.00  0.00    +0.000 A 
ATOM     13  C   UNL     1       1.221   4.078  20.825  0.00  0.00    +0.000 A 
ATOM     14  C   UNL     1       2.367   4.877  20.734  0.00  0.00    +0.000 A 
ATOM     15  C   UNL     1       3.156   4.789  19.577  0.00  0.00    +0.000 A 
ATOM     16  N   UNL     1       4.309   5.455  19.253  0.00  0.00    +0.000 NA
ATOM     17  C   UNL     1       4.629   5.037  18.045  0.00  0.00    +0.000 A 
ATOM     18  N   UNL     1       3.731   4.107  17.587  0.00  0.00    +0.000 N 
ATOM     19  C   UNL     1       2.778   3.922  18.554  0.00  0.00    +0.000 A 
ATOM     20  C   UNL     1       1.647   3.104  18.626  0.00  0.00    +0.000 A 
ATOM     21  H   UNL     1       3.790   3.660  16.684  0.00  0.00    +0.000 HD
ENDBRANCH   1  17
BRANCH   7  22
ATOM     22  C   UNL     1       5.636   3.355  12.598  0.00  0.00    +0.000 A 
ATOM     23  C   UNL     1       4.412   3.677  11.989  0.00  0.00    +0.000 A 
ATOM     24  C   UNL     1       3.926   2.927  10.918  0.00  0.00    +0.000 A 
ATOM     25  C   UNL     1       4.672   1.849  10.480  0.00  0.00    +0.000 A 
ATOM     26  N   UNL     1       5.844   1.483  11.035  0.00  0.00    +0.000 NA
ATOM     27  C   UNL     1       6.294   2.242  12.066  0.00  0.00    +0.000 A 
ENDBRANCH   7  22
TORSDOF 2
ENDMDL
MODEL 9
REMARK VINA RESULT:      -7.6      0.815      1.590
REMARK  Name = 
REMARK  2 active torsions:
REMARK  status: ('A' for Active; 'I' for Inactive)
REMARK    1  A    between atoms: C_7  and  C_8
REMARK    2  A    between atoms: C_14  and  C_15
REMARK                            x       y       z     vdW  Elec       q    Type
REMARK                         _______ _______ _______ _____ _____    ______ ____
ROOT
ATOM      1  C   UNL     1       5.952   5.153  17.328  0.00  0.00    +0.000 A 
ATOM      2  N   UNL     1       6.786   6.073  17.844  0.00  0.00    +0.000 NA
ATOM      3  N   UNL     1       7.618   6.341  16.810  0.00  0.00    +0.000 N 
ATOM      4  C   UNL     1       7.331   5.646  15.671  0.00  0.00    +0.000 A 
ATOM      5  N   UNL     1       7.986   5.722  14.498  0.00  0.00    +0.000 NA
ATOM      6  C   UNL     1       7.433   4.921  13.544  0.00  0.00    +0.000 A 
ATOM      7  C   UNL     1       6.308   4.090  13.676  0.00  0.00    +0.000 A 
ATOM      8  C   UNL     1       5.706   4.061  14.945  0.00  0.00    +0.000 A 
ATOM      9  C   UNL     1       6.232   4.864  15.970  0.00  0.00    +0.000 A 
ATOM     10  H   UNL     1       8.366   7.013  16.933  0.00  0.00    +0.000 HD
ENDROOT
BRANCH   1  17
ATOM     11  F   UNL     1      -0.233   2.836  20.322  0.00  0.00    +0.000 F 
ATOM     12  C   UNL     1       1.069   3.055  20.095  0.00  0.00    +0.000 A 
ATOM     13  C   UNL     1       2.004   2.550  20.994  0.00  0.00    +0.000 A 
ATOM     14  C   UNL     1       3.373   2.754  20.782  0.00  0.00    +0.000 A 
ATOM     15  C   UNL     1       3.776   3.485  19.652  0.00  0.00    +0.000 A 
ATOM     16  N   UNL     1       5.037   3.814  19.229  0.00  0.00    +0.000 NA
ATOM     17  C   UNL     1       4.865   4.532  18.138  0.00  0.00    +0.000 A 
ATOM     18  N   UNL     1       3.534   4.659  17.831  0.00  0.00    +0.000 N 
ATOM     19  C   UNL     1       2.811   3.989  18.783  0.00  0.00    +0.000 A 
ATOM     20  C   UNL     1       1.440   3.787  18.964  0.00  0.00    +0.000 A 
ATOM     21  H   UNL     1       3.183   5.170  17.035  0.00  0.00    +0.000 HD
ENDBRANCH   1  17
BRANCH   7  22
ATOM     22  C   UNL     1       5.756   3.310  12.549  0.00  0.00    +0.000 A 
ATOM     23  C   UNL     1       6.434   2.213  11.994  0.00  0.00    +0.000 A 
ATOM     24  C   UNL     1       5.861   1.462  10.968  0.00  0.00    +0.000 A 
ATOM     25  C   UNL     1       4.614   1.834  10.501  0.00  0.00    +0.000 A 
ATOM     26  N   UNL     1       3.924   2.886  10.984  0.00  0.00    +0.000 NA
ATOM     27  C   UNL     1       4.505   3.586  11.989  0.00  0.00    +0.000 A 
ENDBRANCH   7  22
TORSDOF 2
ENDMDL
