MODEL 1
REMARK VINA RESULT:     -10.2      0.000      0.000
REMARK  Name = 
REMARK  5 active torsions:
REMARK  status: ('A' for Active; 'I' for Inactive)
REMARK    1  A    between atoms: C_2  and  C_21
REMARK    2  A    between atoms: N_3  and  C_4
REMARK    3  A    between atoms: C_6  and  S_7
REMARK    4  A    between atoms: S_7  and  C_8
REMARK    5  A    between atoms: C_13  and  O_14
REMARK                            x       y       z     vdW  Elec       q    Type
REMARK                         _______ _______ _______ _____ _____    ______ ____
ROOT
ATOM      1  C   UNL     1       2.871   5.739  19.664  0.00  0.00    +0.000 A 
ATOM      2  C   UNL     1       4.168   5.940  19.148  0.00  0.00    +0.000 A 
ATOM      3  C   UNL     1       4.901   4.934  18.498  0.00  0.00    +0.000 A 
ATOM      4  C   UNL     1       4.294   3.681  18.384  0.00  0.00    +0.000 A 
ATOM      5  C   UNL     1       2.989   3.430  18.865  0.00  0.00    +0.000 A 
ATOM      6  C   UNL     1       2.400   2.163  18.675  0.00  0.00    +0.000 A 
ATOM      7  C   UNL     1       1.120   1.872  19.132  0.00  0.00    +0.000 A 
ATOM      8  C   UNL     1       0.405   2.848  19.805  0.00  0.00    +0.000 A 
ATOM      9  C   UNL     1       0.964   4.115  20.001  0.00  0.00    +0.000 A 
ATOM     10  C   UNL     1       2.263   4.453  19.532  0.00  0.00    +0.000 A 
ENDROOT
BRANCH   1  13
ATOM     11  O   UNL     1       1.868   8.268  18.539  0.00  0.00    +0.000 OA
ATOM     12  C   UNL     1       1.755   7.982  19.725  0.00  0.00    +0.000 C 
ATOM     13  N   UNL     1       2.179   6.804  20.327  0.00  0.00    +0.000 N 
ATOM     14  H   UNL     1       1.849   6.627  21.263  0.00  0.00    +0.000 HD
BRANCH  12  15
ATOM     15  C   UNL     1       1.035   8.966  20.578  0.00  0.00    +0.000 A 
ATOM     16  C   UNL     1       0.981   8.690  21.951  0.00  0.00    +0.000 A 
ATOM     17  C   UNL     1       0.237   9.496  22.810  0.00  0.00    +0.000 A 
ATOM     18  C   UNL     1      -0.484  10.586  22.310  0.00  0.00    +0.000 A 
ATOM     19  C   UNL     1      -1.265  11.380  23.165  0.00  0.00    +0.000 A 
ATOM     20  C   UNL     1      -2.004  12.450  22.662  0.00  0.00    +0.000 A 
ATOM     21  C   UNL     1      -1.970  12.736  21.302  0.00  0.00    +0.000 A 
ATOM     22  C   UNL     1      -1.196  11.957  20.439  0.00  0.00    +0.000 A 
ATOM     23  C   UNL     1      -0.441  10.874  20.922  0.00  0.00    +0.000 A 
ATOM     24  C   UNL     1       0.331  10.060  20.064  0.00  0.00    +0.000 A 
ENDBRANCH  12  15
ENDBRANCH   1  13
BRANCH   4  25
ATOM     25  O   UNL     1       4.948   2.613  17.821  0.00  0.00    +0.000 OA
ATOM     26  H   UNL     1       4.268   2.115  17.320  0.00  0.00    +0.000 HD
ENDBRANCH   4  25
BRANCH   3  27
ATOM     27  S   UNL     1       6.593   5.375  18.081  0.00  0.00    +0.000 S 
BRANCH  27  28
ATOM     28  C   UNL     1       6.769   5.100  16.395  0.00  0.00    +0.000 A 
ATOM     29  N   UNL     1       6.314   4.119  15.651  0.00  0.00    +0.000 NA
ATOM     30  C   UNL     1       6.867   4.383  14.426  0.00  0.00    +0.000 A 
ATOM     31  N   UNL     1       7.628   5.478  14.369  0.00  0.00    +0.000 NA
ATOM     32  N   UNL     1       7.547   5.922  15.638  0.00  0.00    +0.000 N 
ATOM     33  H   UNL     1       8.048   6.758  15.915  0.00  0.00    +0.000 HD
ENDBRANCH  27  28
ENDBRANCH   3  27
TORSDOF 5
ENDMDL
MODEL 2
REMARK VINA RESULT:      -9.9      0.810      1.480
REMARK  Name = 
REMARK  5 active torsions:
REMARK  status: ('A' for Active; 'I' for Inactive)
REMARK    1  A    between atoms: C_2  and  C_21
REMARK    2  A    between atoms: N_3  and  C_4
REMARK    3  A    between atoms: C_6  and  S_7
REMARK    4  A    between atoms: S_7  and  C_8
REMARK    5  A    between atoms: C_13  and  O_14
REMARK                            x       y       z     vdW  Elec       q    Type
REMARK                         _______ _______ _______ _____ _____    ______ ____
ROOT
ATOM      1  C   UNL     1       2.985   6.138  19.615  0.00  0.00    +0.000 A 
ATOM      2  C   UNL     1       4.270   6.266  19.047  0.00  0.00    +0.000 A 
ATOM      3  C   UNL     1       5.076   5.166  18.713  0.00  0.00    +0.000 A 
ATOM      4  C   UNL     1       4.558   3.897  18.980  0.00  0.00    +0.000 A 
ATOM      5  C   UNL     1       3.269   3.710  19.529  0.00  0.00    +0.000 A 
ATOM      6  C   UNL     1       2.769   2.406  19.727  0.00  0.00    +0.000 A 
ATOM      7  C   UNL     1       1.508   2.176  20.264  0.00  0.00    +0.000 A 
ATOM      8  C   UNL     1       0.722   3.255  20.628  0.00  0.00    +0.000 A 
ATOM      9  C   UNL     1       1.191   4.560  20.436  0.00  0.00    +0.000 A 
ATOM     10  C   UNL     1       2.468   4.832  19.873  0.00  0.00    +0.000 A 
ENDROOT
BRANCH   1  13
ATOM     11  O   UNL     1       2.076   8.308  17.844  0.00  0.00    +0.000 OA
ATOM     12  C   UNL     1       1.843   8.296  19.047  0.00  0.00    +0.000 C 
ATOM     13  N   UNL     1       2.217   7.302  19.942  0.00  0.00    +0.000 N 
ATOM     14  H   UNL     1       1.792   7.331  20.858  0.00  0.00    +0.000 HD
BRANCH  12  15
ATOM     15  C   UNL     1       1.027   9.423  19.576  0.00  0.00    +0.000 A 
ATOM     16  C   UNL     1       0.979  10.586  18.796  0.00  0.00    +0.000 A 
ATOM     17  C   UNL     1       0.331  11.728  19.262  0.00  0.00    +0.000 A 
ATOM     18  C   UNL     1      -0.268  11.735  20.527  0.00  0.00    +0.000 A 
ATOM     19  C   UNL     1      -0.891  12.894  21.016  0.00  0.00    +0.000 A 
ATOM     20  C   UNL     1      -1.464  12.909  22.288  0.00  0.00    +0.000 A 
ATOM     21  C   UNL     1      -1.420  11.767  23.079  0.00  0.00    +0.000 A 
ATOM     22  C   UNL     1      -0.806  10.605  22.606  0.00  0.00    +0.000 A 
ATOM     23  C   UNL     1      -0.223  10.566  21.327  0.00  0.00    +0.000 A 
ATOM     24  C   UNL     1       0.422   9.409  20.837  0.00  0.00    +0.000 A 
ENDBRANCH  12  15
ENDBRANCH   1  13
BRANCH   4  25
ATOM     25  O   UNL     1       5.289   2.758  18.748  0.00  0.00    +0.000 OA
ATOM     26  H   UNL     1       5.680   2.866  17.856  0.00  0.00    +0.000 HD
ENDBRANCH   4  25
BRANCH   3  27
ATOM     27  S   UNL     1       6.738   5.579  18.165  0.00  0.00    +0.000 S 
BRANCH  27  28
ATOM     28  C   UNL     1       6.820   5.167  16.501  0.00  0.00    +0.000 A 
ATOM     29  N   UNL     1       6.323   4.132  15.864  0.00  0.00    +0.000 NA
ATOM     30  C   UNL     1       6.809   4.293  14.593  0.00  0.00    +0.000 A 
ATOM     31  N   UNL     1       7.567   5.375  14.406  0.00  0.00    +0.000 NA
ATOM     32  N   UNL     1       7.556   5.921  15.637  0.00  0.00    +0.000 N 
ATOM     33  H   UNL     1       8.073   6.773  15.818  0.00  0.00    +0.000 HD
ENDBRANCH  27  28
ENDBRANCH   3  27
TORSDOF 5
ENDMDL
MODEL 3
REMARK VINA RESULT:      -9.8      1.240      1.811
REMARK  Name = 
REMARK  5 active torsions:
REMARK  status: ('A' for Active; 'I' for Inactive)
REMARK    1  A    between atoms: C_2  and  C_21
REMARK    2  A    between atoms: N_3  and  C_4
REMARK    3  A    between atoms: C_6  and  S_7
REMARK    4  A    between atoms: S_7  and  C_8
REMARK    5  A    between atoms: C_13  and  O_14
REMARK                            x       y       z     vdW  Elec       q    Type
REMARK                         _______ _______ _______ _____ _____    ______ ____
ROOT
ATOM      1  C   UNL     1       3.119   6.004  18.398  0.00  0.00    +0.000 A 
ATOM      2  C   UNL     1       4.325   6.211  17.696  0.00  0.00    +0.000 A 
ATOM      3  C   UNL     1       5.049   5.173  17.089  0.00  0.00    +0.000 A 
ATOM      4  C   UNL     1       4.532   3.881  17.215  0.00  0.00    +0.000 A 
ATOM      5  C   UNL     1       3.317   3.620  17.891  0.00  0.00    +0.000 A 
ATOM      6  C   UNL     1       2.809   2.305  17.941  0.00  0.00    +0.000 A 
ATOM      7  C   UNL     1       1.620   2.002  18.595  0.00  0.00    +0.000 A 
ATOM      8  C   UNL     1       0.919   3.015  19.225  0.00  0.00    +0.000 A 
ATOM      9  C   UNL     1       1.398   4.329  19.184  0.00  0.00    +0.000 A 
ATOM     10  C   UNL     1       2.601   4.678  18.510  0.00  0.00    +0.000 A 
ENDROOT
BRANCH   1  13
ATOM     11  O   UNL     1       2.310   8.565  17.190  0.00  0.00    +0.000 OA
ATOM     12  C   UNL     1       2.103   8.296  18.367  0.00  0.00    +0.000 C 
ATOM     13  N   UNL     1       2.432   7.106  19.004  0.00  0.00    +0.000 N 
ATOM     14  H   UNL     1       2.031   6.953  19.917  0.00  0.00    +0.000 HD
BRANCH  12  15
ATOM     15  C   UNL     1       1.372   9.319  19.162  0.00  0.00    +0.000 A 
ATOM     16  C   UNL     1       1.459  10.644  18.715  0.00  0.00    +0.000 A 
ATOM     17  C   UNL     1       0.899  11.683  19.456  0.00  0.00    +0.000 A 
ATOM     18  C   UNL     1       0.254  11.417  20.670  0.00  0.00    +0.000 A 
ATOM     19  C   UNL     1      -0.281  12.464  21.439  0.00  0.00    +0.000 A 
ATOM     20  C   UNL     1      -0.900  12.202  22.661  0.00  0.00    +0.000 A 
ATOM     21  C   UNL     1      -0.989  10.894  23.125  0.00  0.00    +0.000 A 
ATOM     22  C   UNL     1      -0.464   9.843  22.370  0.00  0.00    +0.000 A 
ATOM     23  C   UNL     1       0.163  10.081  21.135  0.00  0.00    +0.000 A 
ATOM     24  C   UNL     1       0.719   9.035  20.366  0.00  0.00    +0.000 A 
ENDBRANCH  12  15
ENDBRANCH   1  13
BRANCH   4  25
ATOM     25  O   UNL     1       5.193   2.788  16.712  0.00  0.00    +0.000 OA
ATOM     26  H   UNL     1       6.139   2.923  16.932  0.00  0.00    +0.000 HD
ENDBRANCH   4  25
BRANCH   3  27
ATOM     27  S   UNL     1       6.639   5.655  16.402  0.00  0.00    +0.000 S 
BRANCH  27  28
ATOM     28  C   UNL     1       6.686   5.040  14.800  0.00  0.00    +0.000 A 
ATOM     29  N   UNL     1       5.983   4.080  14.246  0.00  0.00    +0.000 NA
ATOM     30  C   UNL     1       6.542   3.973  13.000  0.00  0.00    +0.000 A 
ATOM     31  N   UNL     1       7.542   4.820  12.749  0.00  0.00    +0.000 NA
ATOM     32  N   UNL     1       7.613   5.495  13.912  0.00  0.00    +0.000 N 
ATOM     33  H   UNL     1       8.310   6.220  14.035  0.00  0.00    +0.000 HD
ENDBRANCH  27  28
ENDBRANCH   3  27
TORSDOF 5
ENDMDL
MODEL 4
REMARK VINA RESULT:      -9.7      1.672      2.219
REMARK  Name = 
REMARK  5 active torsions:
REMARK  status: ('A' for Active; 'I' for Inactive)
REMARK    1  A    between atoms: C_2  and  C_21
REMARK    2  A    between atoms: N_3  and  C_4
REMARK    3  A    between atoms: C_6  and  S_7
REMARK    4  A    between atoms: S_7  and  C_8
REMARK    5  A    between atoms: C_13  and  O_14
REMARK                            x       y       z     vdW  Elec       q    Type
REMARK                         _______ _______ _______ _____ _____    ______ ____
ROOT
ATOM      1  C   UNL     1       2.912   6.490  19.071  0.00  0.00    +0.000 A 
ATOM      2  C   UNL     1       4.107   6.686  18.349  0.00  0.00    +0.000 A 
ATOM      3  C   UNL     1       5.095   5.697  18.213  0.00  0.00    +0.000 A 
ATOM      4  C   UNL     1       4.860   4.475  18.847  0.00  0.00    +0.000 A 
ATOM      5  C   UNL     1       3.671   4.218  19.568  0.00  0.00    +0.000 A 
ATOM      6  C   UNL     1       3.456   2.948  20.143  0.00  0.00    +0.000 A 
ATOM      7  C   UNL     1       2.303   2.652  20.860  0.00  0.00    +0.000 A 
ATOM      8  C   UNL     1       1.341   3.632  21.027  0.00  0.00    +0.000 A 
ATOM      9  C   UNL     1       1.526   4.899  20.462  0.00  0.00    +0.000 A 
ATOM     10  C   UNL     1       2.685   5.231  19.707  0.00  0.00    +0.000 A 
ENDROOT
BRANCH   1  13
ATOM     11  O   UNL     1       2.514   8.816  17.312  0.00  0.00    +0.000 OA
ATOM     12  C   UNL     1       1.838   8.624  18.315  0.00  0.00    +0.000 C 
ATOM     13  N   UNL     1       1.948   7.543  19.181  0.00  0.00    +0.000 N 
ATOM     14  H   UNL     1       1.203   7.419  19.850  0.00  0.00    +0.000 HD
BRANCH  12  15
ATOM     15  C   UNL     1       0.757   9.611  18.585  0.00  0.00    +0.000 A 
ATOM     16  C   UNL     1       0.948  10.472  19.673  0.00  0.00    +0.000 A 
ATOM     17  C   UNL     1      -0.057  11.353  20.068  0.00  0.00    +0.000 A 
ATOM     18  C   UNL     1      -1.282  11.378  19.390  0.00  0.00    +0.000 A 
ATOM     19  C   UNL     1      -2.311  12.238  19.806  0.00  0.00    +0.000 A 
ATOM     20  C   UNL     1      -3.540  12.243  19.147  0.00  0.00    +0.000 A 
ATOM     21  C   UNL     1      -3.751  11.391  18.069  0.00  0.00    +0.000 A 
ATOM     22  C   UNL     1      -2.737  10.531  17.643  0.00  0.00    +0.000 A 
ATOM     23  C   UNL     1      -1.488  10.509  18.290  0.00  0.00    +0.000 A 
ATOM     24  C   UNL     1      -0.456   9.633  17.888  0.00  0.00    +0.000 A 
ENDBRANCH  12  15
ENDBRANCH   1  13
BRANCH   4  25
ATOM     25  O   UNL     1       5.788   3.463  18.829  0.00  0.00    +0.000 OA
ATOM     26  H   UNL     1       6.514   3.754  19.420  0.00  0.00    +0.000 HD
ENDBRANCH   4  25
BRANCH   3  27
ATOM     27  S   UNL     1       6.603   6.235  17.394  0.00  0.00    +0.000 S 
BRANCH  27  28
ATOM     28  C   UNL     1       6.707   5.346  15.929  0.00  0.00    +0.000 A 
ATOM     29  N   UNL     1       7.431   5.573  14.857  0.00  0.00    +0.000 NA
ATOM     30  C   UNL     1       7.007   4.598  13.992  0.00  0.00    +0.000 A 
ATOM     31  N   UNL     1       6.072   3.776  14.473  0.00  0.00    +0.000 NA
ATOM     32  N   UNL     1       5.900   4.270  15.714  0.00  0.00    +0.000 N 
ATOM     33  H   UNL     1       5.222   3.849  16.338  0.00  0.00    +0.000 HD
ENDBRANCH  27  28
ENDBRANCH   3  27
TORSDOF 5
ENDMDL
MODEL 5
REMARK VINA RESULT:      -9.6      1.593      2.240
REMARK  Name = 
REMARK  5 active torsions:
REMARK  status: ('A' for Active; 'I' for Inactive)
REMARK    1  A    between atoms: C_2  and  C_21
REMARK    2  A    between atoms: N_3  and  C_4
REMARK    3  A    between atoms: C_6  and  S_7
REMARK    4  A    between atoms: S_7  and  C_8
REMARK    5  A    between atoms: C_13  and  O_14
REMARK                            x       y       z     vdW  Elec       q    Type
REMARK                         _______ _______ _______ _____ _____    ______ ____
ROOT
ATOM      1  C   UNL     1       2.800   6.218  18.691  0.00  0.00    +0.000 A 
ATOM      2  C   UNL     1       3.854   6.342  17.762  0.00  0.00    +0.000 A 
ATOM      3  C   UNL     1       4.525   5.239  17.210  0.00  0.00    +0.000 A 
ATOM      4  C   UNL     1       4.115   3.972  17.630  0.00  0.00    +0.000 A 
ATOM      5  C   UNL     1       3.051   3.790  18.544  0.00  0.00    +0.000 A 
ATOM      6  C   UNL     1       2.638   2.487  18.893  0.00  0.00    +0.000 A 
ATOM      7  C   UNL     1       1.598   2.262  19.787  0.00  0.00    +0.000 A 
ATOM      8  C   UNL     1       0.955   3.343  20.362  0.00  0.00    +0.000 A 
ATOM      9  C   UNL     1       1.341   4.646  20.028  0.00  0.00    +0.000 A 
ATOM     10  C   UNL     1       2.388   4.914  19.104  0.00  0.00    +0.000 A 
ENDROOT
BRANCH   1  13
ATOM     11  O   UNL     1       2.132   8.743  17.332  0.00  0.00    +0.000 OA
ATOM     12  C   UNL     1       1.899   8.551  18.519  0.00  0.00    +0.000 C 
ATOM     13  N   UNL     1       2.162   7.384  19.226  0.00  0.00    +0.000 N 
ATOM     14  H   UNL     1       1.743   7.302  20.140  0.00  0.00    +0.000 HD
BRANCH  12  15
ATOM     15  C   UNL     1       1.210   9.652  19.246  0.00  0.00    +0.000 A 
ATOM     16  C   UNL     1       1.391  10.948  18.745  0.00  0.00    +0.000 A 
ATOM     17  C   UNL     1       0.876  12.050  19.423  0.00  0.00    +0.000 A 
ATOM     18  C   UNL     1       0.183  11.880  20.627  0.00  0.00    +0.000 A 
ATOM     19  C   UNL     1      -0.308  12.991  21.333  0.00  0.00    +0.000 A 
ATOM     20  C   UNL     1      -0.976  12.822  22.546  0.00  0.00    +0.000 A 
ATOM     21  C   UNL     1      -1.159  11.544  23.063  0.00  0.00    +0.000 A 
ATOM     22  C   UNL     1      -0.678  10.430  22.371  0.00  0.00    +0.000 A 
ATOM     23  C   UNL     1      -0.004  10.574  21.146  0.00  0.00    +0.000 A 
ATOM     24  C   UNL     1       0.508   9.463  20.441  0.00  0.00    +0.000 A 
ENDBRANCH  12  15
ENDBRANCH   1  13
BRANCH   4  25
ATOM     25  O   UNL     1       4.745   2.831  17.199  0.00  0.00    +0.000 OA
ATOM     26  H   UNL     1       5.176   3.067  16.350  0.00  0.00    +0.000 HD
ENDBRANCH   4  25
BRANCH   3  27
ATOM     27  S   UNL     1       5.944   5.648  16.184  0.00  0.00    +0.000 S 
BRANCH  27  28
ATOM     28  C   UNL     1       7.032   6.526  17.181  0.00  0.00    +0.000 A 
ATOM     29  N   UNL     1       7.647   6.159  18.281  0.00  0.00    +0.000 NA
ATOM     30  C   UNL     1       8.280   7.309  18.674  0.00  0.00    +0.000 A 
ATOM     31  N   UNL     1       8.100   8.361  17.873  0.00  0.00    +0.000 NA
ATOM     32  N   UNL     1       7.303   7.835  16.923  0.00  0.00    +0.000 N 
ATOM     33  H   UNL     1       6.976   8.414  16.159  0.00  0.00    +0.000 HD
ENDBRANCH  27  28
ENDBRANCH   3  27
TORSDOF 5
ENDMDL
MODEL 6
REMARK VINA RESULT:      -9.5      1.144      1.617
REMARK  Name = 
REMARK  5 active torsions:
REMARK  status: ('A' for Active; 'I' for Inactive)
REMARK    1  A    between atoms: C_2  and  C_21
REMARK    2  A    between atoms: N_3  and  C_4
REMARK    3  A    between atoms: C_6  and  S_7
REMARK    4  A    between atoms: S_7  and  C_8
REMARK    5  A    between atoms: C_13  and  O_14
REMARK                            x       y       z     vdW  Elec       q    Type
REMARK                         _______ _______ _______ _____ _____    ______ ____
ROOT
ATOM      1  C   UNL     1       3.137   6.125  19.631  0.00  0.00    +0.000 A 
ATOM      2  C   UNL     1       4.425   6.170  19.059  0.00  0.00    +0.000 A 
ATOM      3  C   UNL     1       5.180   5.021  18.774  0.00  0.00    +0.000 A 
ATOM      4  C   UNL     1       4.607   3.789  19.098  0.00  0.00    +0.000 A 
ATOM      5  C   UNL     1       3.312   3.685  19.655  0.00  0.00    +0.000 A 
ATOM      6  C   UNL     1       2.755   2.415  19.911  0.00  0.00    +0.000 A 
ATOM      7  C   UNL     1       1.486   2.266  20.459  0.00  0.00    +0.000 A 
ATOM      8  C   UNL     1       0.750   3.394  20.774  0.00  0.00    +0.000 A 
ATOM      9  C   UNL     1       1.276   4.667  20.524  0.00  0.00    +0.000 A 
ATOM     10  C   UNL     1       2.563   4.856  19.949  0.00  0.00    +0.000 A 
ENDROOT
BRANCH   1  13
ATOM     11  O   UNL     1       2.110   8.133  17.738  0.00  0.00    +0.000 OA
ATOM     12  C   UNL     1       1.987   8.246  18.952  0.00  0.00    +0.000 C 
ATOM     13  N   UNL     1       2.421   7.335  19.907  0.00  0.00    +0.000 N 
ATOM     14  H   UNL     1       2.081   7.466  20.848  0.00  0.00    +0.000 HD
BRANCH  12  15
ATOM     15  C   UNL     1       1.242   9.441  19.434  0.00  0.00    +0.000 A 
ATOM     16  C   UNL     1       0.438   9.267  20.568  0.00  0.00    +0.000 A 
ATOM     17  C   UNL     1      -0.380  10.298  21.025  0.00  0.00    +0.000 A 
ATOM     18  C   UNL     1      -0.422  11.521  20.346  0.00  0.00    +0.000 A 
ATOM     19  C   UNL     1      -1.271  12.552  20.781  0.00  0.00    +0.000 A 
ATOM     20  C   UNL     1      -1.332  13.761  20.088  0.00  0.00    +0.000 A 
ATOM     21  C   UNL     1      -0.547  13.950  18.956  0.00  0.00    +0.000 A 
ATOM     22  C   UNL     1       0.303  12.935  18.512  0.00  0.00    +0.000 A 
ATOM     23  C   UNL     1       0.384  11.708  19.195  0.00  0.00    +0.000 A 
ATOM     24  C   UNL     1       1.221  10.661  18.751  0.00  0.00    +0.000 A 
ENDBRANCH  12  15
ENDBRANCH   1  13
BRANCH   4  25
ATOM     25  O   UNL     1       5.285   2.609  18.918  0.00  0.00    +0.000 OA
ATOM     26  H   UNL     1       5.605   2.622  17.991  0.00  0.00    +0.000 HD
ENDBRANCH   4  25
BRANCH   3  27
ATOM     27  S   UNL     1       6.858   5.335  18.208  0.00  0.00    +0.000 S 
BRANCH  27  28
ATOM     28  C   UNL     1       6.893   4.933  16.539  0.00  0.00    +0.000 A 
ATOM     29  N   UNL     1       7.405   5.592  15.525  0.00  0.00    +0.000 NA
ATOM     30  C   UNL     1       7.026   4.835  14.448  0.00  0.00    +0.000 A 
ATOM     31  N   UNL     1       6.321   3.740  14.739  0.00  0.00    +0.000 NA
ATOM     32  N   UNL     1       6.253   3.821  16.082  0.00  0.00    +0.000 N 
ATOM     33  H   UNL     1       5.752   3.114  16.607  0.00  0.00    +0.000 HD
ENDBRANCH  27  28
ENDBRANCH   3  27
TORSDOF 5
ENDMDL
MODEL 7
REMARK VINA RESULT:      -9.5      1.492      1.739
REMARK  Name = 
REMARK  5 active torsions:
REMARK  status: ('A' for Active; 'I' for Inactive)
REMARK    1  A    between atoms: C_2  and  C_21
REMARK    2  A    between atoms: N_3  and  C_4
REMARK    3  A    between atoms: C_6  and  S_7
REMARK    4  A    between atoms: S_7  and  C_8
REMARK    5  A    between atoms: C_13  and  O_14
REMARK                            x       y       z     vdW  Elec       q    Type
REMARK                         _______ _______ _______ _____ _____    ______ ____
ROOT
ATOM      1  C   UNL     1       2.765   5.936  18.848  0.00  0.00    +0.000 A 
ATOM      2  C   UNL     1       3.755   6.321  17.920  0.00  0.00    +0.000 A 
ATOM      3  C   UNL     1       4.450   5.406  17.112  0.00  0.00    +0.000 A 
ATOM      4  C   UNL     1       4.132   4.055  17.268  0.00  0.00    +0.000 A 
ATOM      5  C   UNL     1       3.135   3.615  18.168  0.00  0.00    +0.000 A 
ATOM      6  C   UNL     1       2.813   2.244  18.247  0.00  0.00    +0.000 A 
ATOM      7  C   UNL     1       1.841   1.768  19.119  0.00  0.00    +0.000 A 
ATOM      8  C   UNL     1       1.177   2.659  19.943  0.00  0.00    +0.000 A 
ATOM      9  C   UNL     1       1.473   4.025  19.880  0.00  0.00    +0.000 A 
ATOM     10  C   UNL     1       2.448   4.550  18.988  0.00  0.00    +0.000 A 
ENDROOT
BRANCH   1  13
ATOM     11  O   UNL     1       1.885   8.643  18.098  0.00  0.00    +0.000 OA
ATOM     12  C   UNL     1       1.734   8.189  19.225  0.00  0.00    +0.000 C 
ATOM     13  N   UNL     1       2.100   6.917  19.651  0.00  0.00    +0.000 N 
ATOM     14  H   UNL     1       1.741   6.616  20.544  0.00  0.00    +0.000 HD
BRANCH  12  15
ATOM     15  C   UNL     1       1.032   9.063  20.204  0.00  0.00    +0.000 A 
ATOM     16  C   UNL     1       1.091   8.676  21.549  0.00  0.00    +0.000 A 
ATOM     17  C   UNL     1       0.373   9.372  22.520  0.00  0.00    +0.000 A 
ATOM     18  C   UNL     1      -0.431  10.459  22.162  0.00  0.00    +0.000 A 
ATOM     19  C   UNL     1      -1.185  11.141  23.132  0.00  0.00    +0.000 A 
ATOM     20  C   UNL     1      -2.007  12.208  22.770  0.00  0.00    +0.000 A 
ATOM     21  C   UNL     1      -2.083  12.602  21.439  0.00  0.00    +0.000 A 
ATOM     22  C   UNL     1      -1.339  11.935  20.464  0.00  0.00    +0.000 A 
ATOM     23  C   UNL     1      -0.501  10.858  20.804  0.00  0.00    +0.000 A 
ATOM     24  C   UNL     1       0.243  10.156  19.831  0.00  0.00    +0.000 A 
ENDBRANCH  12  15
ENDBRANCH   1  13
BRANCH   4  25
ATOM     25  O   UNL     1       4.795   3.075  16.571  0.00  0.00    +0.000 OA
ATOM     26  H   UNL     1       4.099   2.513  16.169  0.00  0.00    +0.000 HD
ENDBRANCH   4  25
BRANCH   3  27
ATOM     27  S   UNL     1       5.782   6.115  16.133  0.00  0.00    +0.000 S 
BRANCH  27  28
ATOM     28  C   UNL     1       6.962   6.675  17.247  0.00  0.00    +0.000 A 
ATOM     29  N   UNL     1       7.486   6.076  18.291  0.00  0.00    +0.000 NA
ATOM     30  C   UNL     1       8.272   7.054  18.841  0.00  0.00    +0.000 A 
ATOM     31  N   UNL     1       8.273   8.218  18.189  0.00  0.00    +0.000 NA
ATOM     32  N   UNL     1       7.432   7.951  17.172  0.00  0.00    +0.000 N 
ATOM     33  H   UNL     1       7.215   8.670  16.492  0.00  0.00    +0.000 HD
ENDBRANCH  27  28
ENDBRANCH   3  27
TORSDOF 5
ENDMDL
MODEL 8
REMARK VINA RESULT:      -9.5      1.966      2.202
REMARK  Name = 
REMARK  5 active torsions:
REMARK  status: ('A' for Active; 'I' for Inactive)
REMARK    1  A    between atoms: C_2  and  C_21
REMARK    2  A    between atoms: N_3  and  C_4
REMARK    3  A    between atoms: C_6  and  S_7
REMARK    4  A    between atoms: S_7  and  C_8
REMARK    5  A    between atoms: C_13  and  O_14
REMARK                            x       y       z     vdW  Elec       q    Type
REMARK                         _______ _______ _______ _____ _____    ______ ____
ROOT
ATOM      1  C   UNL     1       3.274   6.146  19.139  0.00  0.00    +0.000 A 
ATOM      2  C   UNL     1       4.567   6.026  18.589  0.00  0.00    +0.000 A 
ATOM      3  C   UNL     1       5.296   4.826  18.592  0.00  0.00    +0.000 A 
ATOM      4  C   UNL     1       4.690   3.717  19.187  0.00  0.00    +0.000 A 
ATOM      5  C   UNL     1       3.388   3.776  19.736  0.00  0.00    +0.000 A 
ATOM      6  C   UNL     1       2.798   2.614  20.275  0.00  0.00    +0.000 A 
ATOM      7  C   UNL     1       1.522   2.626  20.825  0.00  0.00    +0.000 A 
ATOM      8  C   UNL     1       0.812   3.813  20.858  0.00  0.00    +0.000 A 
ATOM      9  C   UNL     1       1.371   4.979  20.324  0.00  0.00    +0.000 A 
ATOM     10  C   UNL     1       2.666   5.000  19.737  0.00  0.00    +0.000 A 
ENDROOT
BRANCH   1  13
ATOM     11  O   UNL     1       2.960   8.032  16.901  0.00  0.00    +0.000 OA
ATOM     12  C   UNL     1       2.502   8.249  18.016  0.00  0.00    +0.000 C 
ATOM     13  N   UNL     1       2.587   7.402  19.114  0.00  0.00    +0.000 N 
ATOM     14  H   UNL     1       2.001   7.623  19.905  0.00  0.00    +0.000 HD
BRANCH  12  15
ATOM     15  C   UNL     1       1.726   9.508  18.181  0.00  0.00    +0.000 A 
ATOM     16  C   UNL     1       2.456  10.704  18.165  0.00  0.00    +0.000 A 
ATOM     17  C   UNL     1       1.829  11.923  18.421  0.00  0.00    +0.000 A 
ATOM     18  C   UNL     1       0.462  11.967  18.715  0.00  0.00    +0.000 A 
ATOM     19  C   UNL     1      -0.167  13.188  19.009  0.00  0.00    +0.000 A 
ATOM     20  C   UNL     1      -1.524  13.228  19.328  0.00  0.00    +0.000 A 
ATOM     21  C   UNL     1      -2.263  12.051  19.356  0.00  0.00    +0.000 A 
ATOM     22  C   UNL     1      -1.653  10.829  19.064  0.00  0.00    +0.000 A 
ATOM     23  C   UNL     1      -0.287  10.763  18.737  0.00  0.00    +0.000 A 
ATOM     24  C   UNL     1       0.355   9.536  18.460  0.00  0.00    +0.000 A 
ENDBRANCH  12  15
ENDBRANCH   1  13
BRANCH   4  25
ATOM     25  O   UNL     1       5.340   2.513  19.297  0.00  0.00    +0.000 OA
ATOM     26  H   UNL     1       6.079   2.548  18.654  0.00  0.00    +0.000 HD
ENDBRANCH   4  25
BRANCH   3  27
ATOM     27  S   UNL     1       6.985   4.961  17.989  0.00  0.00    +0.000 S 
BRANCH  27  28
ATOM     28  C   UNL     1       6.907   4.826  16.280  0.00  0.00    +0.000 A 
ATOM     29  N   UNL     1       6.331   3.912  15.533  0.00  0.00    +0.000 NA
ATOM     30  C   UNL     1       6.703   4.277  14.265  0.00  0.00    +0.000 A 
ATOM     31  N   UNL     1       7.464   5.370  14.186  0.00  0.00    +0.000 NA
ATOM     32  N   UNL     1       7.577   5.706  15.486  0.00  0.00    +0.000 N 
ATOM     33  H   UNL     1       8.126   6.514  15.754  0.00  0.00    +0.000 HD
ENDBRANCH  27  28
ENDBRANCH   3  27
TORSDOF 5
ENDMDL
MODEL 9
REMARK VINA RESULT:      -9.5      2.156      2.402
REMARK  Name = 
REMARK  5 active torsions:
REMARK  status: ('A' for Active; 'I' for Inactive)
REMARK    1  A    between atoms: C_2  and  C_21
REMARK    2  A    between atoms: N_3  and  C_4
REMARK    3  A    between atoms: C_6  and  S_7
REMARK    4  A    between atoms: S_7  and  C_8
REMARK    5  A    between atoms: C_13  and  O_14
REMARK                            x       y       z     vdW  Elec       q    Type
REMARK                         _______ _______ _______ _____ _____    ______ ____
ROOT
ATOM      1  C   UNL     1       3.211   6.182  19.215  0.00  0.00    +0.000 A 
ATOM      2  C   UNL     1       4.509   6.104  18.671  0.00  0.00    +0.000 A 
ATOM      3  C   UNL     1       5.251   4.913  18.621  0.00  0.00    +0.000 A 
ATOM      4  C   UNL     1       4.653   3.770  19.156  0.00  0.00    +0.000 A 
ATOM      5  C   UNL     1       3.347   3.788  19.697  0.00  0.00    +0.000 A 
ATOM      6  C   UNL     1       2.765   2.594  20.174  0.00  0.00    +0.000 A 
ATOM      7  C   UNL     1       1.485   2.566  20.713  0.00  0.00    +0.000 A 
ATOM      8  C   UNL     1       0.761   3.742  20.798  0.00  0.00    +0.000 A 
ATOM      9  C   UNL     1       1.312   4.939  20.326  0.00  0.00    +0.000 A 
ATOM     10  C   UNL     1       2.611   5.002  19.752  0.00  0.00    +0.000 A 
ENDROOT
BRANCH   1  13
ATOM     11  O   UNL     1       2.816   8.130  17.043  0.00  0.00    +0.000 OA
ATOM     12  C   UNL     1       2.386   8.309  18.176  0.00  0.00    +0.000 C 
ATOM     13  N   UNL     1       2.510   7.431  19.246  0.00  0.00    +0.000 N 
ATOM     14  H   UNL     1       1.943   7.622  20.058  0.00  0.00    +0.000 HD
BRANCH  12  15
ATOM     15  C   UNL     1       1.601   9.553  18.398  0.00  0.00    +0.000 A 
ATOM     16  C   UNL     1       0.206   9.435  18.356  0.00  0.00    +0.000 A 
ATOM     17  C   UNL     1      -0.606  10.564  18.444  0.00  0.00    +0.000 A 
ATOM     18  C   UNL     1      -0.037  11.837  18.559  0.00  0.00    +0.000 A 
ATOM     19  C   UNL     1      -0.851  12.981  18.611  0.00  0.00    +0.000 A 
ATOM     20  C   UNL     1      -0.282  14.252  18.699  0.00  0.00    +0.000 A 
ATOM     21  C   UNL     1       1.101  14.390  18.734  0.00  0.00    +0.000 A 
ATOM     22  C   UNL     1       1.922  13.262  18.685  0.00  0.00    +0.000 A 
ATOM     23  C   UNL     1       1.373  11.971  18.599  0.00  0.00    +0.000 A 
ATOM     24  C   UNL     1       2.186  10.818  18.526  0.00  0.00    +0.000 A 
ENDBRANCH  12  15
ENDBRANCH   1  13
BRANCH   4  25
ATOM     25  O   UNL     1       5.316   2.569  19.213  0.00  0.00    +0.000 OA
ATOM     26  H   UNL     1       5.148   2.212  20.111  0.00  0.00    +0.000 HD
ENDBRANCH   4  25
BRANCH   3  27
ATOM     27  S   UNL     1       6.944   5.095  18.040  0.00  0.00    +0.000 S 
BRANCH  27  28
ATOM     28  C   UNL     1       6.899   4.894  16.336  0.00  0.00    +0.000 A 
ATOM     29  N   UNL     1       6.339   3.950  15.614  0.00  0.00    +0.000 NA
ATOM     30  C   UNL     1       6.736   4.265  14.341  0.00  0.00    +0.000 A 
ATOM     31  N   UNL     1       7.498   5.355  14.234  0.00  0.00    +0.000 NA
ATOM     32  N   UNL     1       7.585   5.742  15.521  0.00  0.00    +0.000 N 
ATOM     33  H   UNL     1       8.129   6.561  15.768  0.00  0.00    +0.000 HD
ENDBRANCH  27  28
ENDBRANCH   3  27
TORSDOF 5
ENDMDL
