MODEL 1
REMARK VINA RESULT:      -7.3      0.000      0.000
REMARK  Name = 
REMARK  8 active torsions:
REMARK  status: ('A' for Active; 'I' for Inactive)
REMARK    1  A    between atoms: C_1  and  O_2
REMARK    2  A    between atoms: O_2  and  C_3
REMARK    3  A    between atoms: C_3  and  C_4
REMARK    4  A    between atoms: C_6  and  C_7
REMARK    5  A    between atoms: N_8  and  N_9
REMARK    6  A    between atoms: C_10  and  C_12
REMARK    7  A    between atoms: C_21  and  O_22
REMARK    8  A    between atoms: O_22  and  C_23
REMARK                            x       y       z     vdW  Elec       q    Type
REMARK                         _______ _______ _______ _____ _____    ______ ____
ROOT
ATOM      1  C   UNL     1       4.390   3.562  19.282  0.00  0.00    +0.000 C 
ATOM      2  N   UNL     1       3.588   4.045  20.182  0.00  0.00    +0.000 NA
ENDROOT
BRANCH   1   5
ATOM      3  C   UNL     1       6.983   5.779  17.520  0.00  0.00    +0.000 A 
ATOM      4  C   UNL     1       6.159   5.198  18.524  0.00  0.00    +0.000 A 
ATOM      5  C   UNL     1       5.178   4.249  18.235  0.00  0.00    +0.000 A 
ATOM      6  C   UNL     1       5.011   3.835  16.921  0.00  0.00    +0.000 A 
ATOM      7  C   UNL     1       5.832   4.371  15.928  0.00  0.00    +0.000 A 
ATOM      8  C   UNL     1       6.826   5.333  16.200  0.00  0.00    +0.000 A 
BRANCH   8   9
ATOM      9  O   UNL     1       7.460   5.679  15.046  0.00  0.00    +0.000 OA
ATOM     10  C   UNL     1       7.315   4.962  13.837  0.00  0.00    +0.000 C 
ENDBRANCH   8   9
BRANCH   3  11
ATOM     11  C   UNL     1       7.909   6.862  18.020  0.00  0.00    +0.000 C 
BRANCH  11  13
ATOM     12  C   UNL     1       8.144   9.226  17.958  0.00  0.00    +0.000 C 
ATOM     13  O   UNL     1       7.843   8.048  17.219  0.00  0.00    +0.000 OA
ENDBRANCH  11  13
ENDBRANCH   3  11
ENDBRANCH   1   5
BRANCH   2  14
ATOM     14  N   UNL     1       3.225   5.354  20.126  0.00  0.00    +0.000 N 
ATOM     15  C   UNL     1       2.363   5.779  19.125  0.00  0.00    +0.000 C 
ATOM     16  O   UNL     1       1.859   5.060  18.275  0.00  0.00    +0.000 OA
ATOM     17  H   UNL     1       3.718   6.009  20.718  0.00  0.00    +0.000 HD
BRANCH  15  18
ATOM     18  C   UNL     1       2.036   7.236  19.125  0.00  0.00    +0.000 A 
ATOM     19  C   UNL     1       2.241   7.949  17.937  0.00  0.00    +0.000 A 
ATOM     20  C   UNL     1       1.930   9.309  17.862  0.00  0.00    +0.000 A 
ATOM     21  C   UNL     1       1.398   9.955  18.974  0.00  0.00    +0.000 A 
ATOM     22 CL   UNL     1       1.004  11.627  18.885  0.00  0.00    +0.000 Cl
ATOM     23  C   UNL     1       1.172   9.254  20.159  0.00  0.00    +0.000 A 
ATOM     24  C   UNL     1       1.487   7.892  20.237  0.00  0.00    +0.000 A 
ENDBRANCH  15  18
ENDBRANCH   2  14
TORSDOF 6
ENDMDL
MODEL 2
REMARK VINA RESULT:      -7.3      3.371      6.745
REMARK  Name = 
REMARK  8 active torsions:
REMARK  status: ('A' for Active; 'I' for Inactive)
REMARK    1  A    between atoms: C_1  and  O_2
REMARK    2  A    between atoms: O_2  and  C_3
REMARK    3  A    between atoms: C_3  and  C_4
REMARK    4  A    between atoms: C_6  and  C_7
REMARK    5  A    between atoms: N_8  and  N_9
REMARK    6  A    between atoms: C_10  and  C_12
REMARK    7  A    between atoms: C_21  and  O_22
REMARK    8  A    between atoms: O_22  and  C_23
REMARK                            x       y       z     vdW  Elec       q    Type
REMARK                         _______ _______ _______ _____ _____    ______ ____
ROOT
ATOM      1  C   UNL     1       6.774   5.179  19.212  0.00  0.00    +0.000 C 
ATOM      2  N   UNL     1       7.670   4.817  18.343  0.00  0.00    +0.000 NA
ENDROOT
BRANCH   1   5
ATOM      3  C   UNL     1       3.039   5.711  18.501  0.00  0.00    +0.000 A 
ATOM      4  C   UNL     1       4.442   5.928  18.599  0.00  0.00    +0.000 A 
ATOM      5  C   UNL     1       5.305   5.011  19.199  0.00  0.00    +0.000 A 
ATOM      6  C   UNL     1       4.782   3.828  19.702  0.00  0.00    +0.000 A 
ATOM      7  C   UNL     1       3.414   3.583  19.586  0.00  0.00    +0.000 A 
ATOM      8  C   UNL     1       2.526   4.499  18.986  0.00  0.00    +0.000 A 
BRANCH   8   9
ATOM      9  O   UNL     1       1.258   4.003  19.022  0.00  0.00    +0.000 OA
ATOM     10  C   UNL     1       0.945   2.655  18.737  0.00  0.00    +0.000 C 
ENDBRANCH   8   9
BRANCH   3  11
ATOM     11  C   UNL     1       2.265   6.867  17.914  0.00  0.00    +0.000 C 
BRANCH  11  13
ATOM     12  C   UNL     1       1.914   9.207  18.135  0.00  0.00    +0.000 C 
ATOM     13  O   UNL     1       2.192   7.984  18.808  0.00  0.00    +0.000 OA
ENDBRANCH  11  13
ENDBRANCH   3  11
ENDBRANCH   1   5
BRANCH   2  14
ATOM     14  N   UNL     1       7.276   4.354  17.127  0.00  0.00    +0.000 N 
ATOM     15  C   UNL     1       7.168   5.240  16.064  0.00  0.00    +0.000 C 
ATOM     16  O   UNL     1       7.428   6.433  16.110  0.00  0.00    +0.000 OA
ATOM     17  H   UNL     1       6.921   3.409  17.070  0.00  0.00    +0.000 HD
BRANCH  15  18
ATOM     18  C   UNL     1       6.708   4.650  14.771  0.00  0.00    +0.000 A 
ATOM     19  C   UNL     1       5.448   4.039  14.746  0.00  0.00    +0.000 A 
ATOM     20  C   UNL     1       4.948   3.491  13.563  0.00  0.00    +0.000 A 
ATOM     21  C   UNL     1       5.704   3.568  12.395  0.00  0.00    +0.000 A 
ATOM     22 CL   UNL     1       5.088   2.904  10.933  0.00  0.00    +0.000 Cl
ATOM     23  C   UNL     1       6.952   4.190  12.402  0.00  0.00    +0.000 A 
ATOM     24  C   UNL     1       7.457   4.735  13.587  0.00  0.00    +0.000 A 
ENDBRANCH  15  18
ENDBRANCH   2  14
TORSDOF 6
ENDMDL
MODEL 3
REMARK VINA RESULT:      -7.2      0.138      1.018
REMARK  Name = 
REMARK  8 active torsions:
REMARK  status: ('A' for Active; 'I' for Inactive)
REMARK    1  A    between atoms: C_1  and  O_2
REMARK    2  A    between atoms: O_2  and  C_3
REMARK    3  A    between atoms: C_3  and  C_4
REMARK    4  A    between atoms: C_6  and  C_7
REMARK    5  A    between atoms: N_8  and  N_9
REMARK    6  A    between atoms: C_10  and  C_12
REMARK    7  A    between atoms: C_21  and  O_22
REMARK    8  A    between atoms: O_22  and  C_23
REMARK                            x       y       z     vdW  Elec       q    Type
REMARK                         _______ _______ _______ _____ _____    ______ ____
ROOT
ATOM      1  C   UNL     1       4.376   3.700  19.407  0.00  0.00    +0.000 C 
ATOM      2  N   UNL     1       3.544   4.213  20.262  0.00  0.00    +0.000 NA
ENDROOT
BRANCH   1   5
ATOM      3  C   UNL     1       7.017   5.836  17.616  0.00  0.00    +0.000 A 
ATOM      4  C   UNL     1       6.174   5.293  18.625  0.00  0.00    +0.000 A 
ATOM      5  C   UNL     1       5.185   4.348  18.350  0.00  0.00    +0.000 A 
ATOM      6  C   UNL     1       5.026   3.902  17.046  0.00  0.00    +0.000 A 
ATOM      7  C   UNL     1       5.865   4.400  16.049  0.00  0.00    +0.000 A 
ATOM      8  C   UNL     1       6.868   5.357  16.307  0.00  0.00    +0.000 A 
BRANCH   8   9
ATOM      9  O   UNL     1       7.520   5.664  15.150  0.00  0.00    +0.000 OA
ATOM     10  C   UNL     1       7.242   5.038  13.915  0.00  0.00    +0.000 C 
ENDBRANCH   8   9
BRANCH   3  11
ATOM     11  C   UNL     1       7.951   6.920  18.097  0.00  0.00    +0.000 C 
BRANCH  11  13
ATOM     12  C   UNL     1       8.238   9.276  17.969  0.00  0.00    +0.000 C 
ATOM     13  O   UNL     1       7.911   8.084  17.263  0.00  0.00    +0.000 OA
ENDBRANCH  11  13
ENDBRANCH   3  11
ENDBRANCH   1   5
BRANCH   2  14
ATOM     14  N   UNL     1       3.168   5.513  20.136  0.00  0.00    +0.000 N 
ATOM     15  C   UNL     1       2.352   5.886  19.076  0.00  0.00    +0.000 C 
ATOM     16  O   UNL     1       1.902   5.126  18.230  0.00  0.00    +0.000 OA
ATOM     17  H   UNL     1       3.621   6.198  20.726  0.00  0.00    +0.000 HD
BRANCH  15  18
ATOM     18  C   UNL     1       2.006   7.336  19.002  0.00  0.00    +0.000 A 
ATOM     19  C   UNL     1       1.481   7.940  20.152  0.00  0.00    +0.000 A 
ATOM     20  C   UNL     1       1.160   9.299  20.157  0.00  0.00    +0.000 A 
ATOM     21  C   UNL     1       1.379  10.062  19.013  0.00  0.00    +0.000 A 
ATOM     22 CL   UNL     1       0.996  11.739  19.017  0.00  0.00    +0.000 Cl
ATOM     23  C   UNL     1       1.918   9.479  17.866  0.00  0.00    +0.000 A 
ATOM     24  C   UNL     1       2.236   8.116  17.858  0.00  0.00    +0.000 A 
ENDBRANCH  15  18
ENDBRANCH   2  14
TORSDOF 6
ENDMDL
MODEL 4
REMARK VINA RESULT:      -7.2      1.359      3.051
REMARK  Name = 
REMARK  8 active torsions:
REMARK  status: ('A' for Active; 'I' for Inactive)
REMARK    1  A    between atoms: C_1  and  O_2
REMARK    2  A    between atoms: O_2  and  C_3
REMARK    3  A    between atoms: C_3  and  C_4
REMARK    4  A    between atoms: C_6  and  C_7
REMARK    5  A    between atoms: N_8  and  N_9
REMARK    6  A    between atoms: C_10  and  C_12
REMARK    7  A    between atoms: C_21  and  O_22
REMARK    8  A    between atoms: O_22  and  C_23
REMARK                            x       y       z     vdW  Elec       q    Type
REMARK                         _______ _______ _______ _____ _____    ______ ____
ROOT
ATOM      1  C   UNL     1       3.659   3.193  18.171  0.00  0.00    +0.000 C 
ATOM      2  N   UNL     1       2.522   3.545  18.692  0.00  0.00    +0.000 NA
ENDROOT
BRANCH   1   5
ATOM      3  C   UNL     1       6.291   4.881  15.942  0.00  0.00    +0.000 A 
ATOM      4  C   UNL     1       5.261   4.011  16.398  0.00  0.00    +0.000 A 
ATOM      5  C   UNL     1       4.799   4.018  17.715  0.00  0.00    +0.000 A 
ATOM      6  C   UNL     1       5.347   4.921  18.614  0.00  0.00    +0.000 A 
ATOM      7  C   UNL     1       6.336   5.804  18.176  0.00  0.00    +0.000 A 
ATOM      8  C   UNL     1       6.817   5.810  16.851  0.00  0.00    +0.000 A 
BRANCH   8   9
ATOM      9  O   UNL     1       7.780   6.764  16.716  0.00  0.00    +0.000 OA
ATOM     10  C   UNL     1       7.811   7.948  17.484  0.00  0.00    +0.000 C 
ENDBRANCH   8   9
BRANCH   3  11
ATOM     11  C   UNL     1       6.723   4.647  14.515  0.00  0.00    +0.000 C 
BRANCH  11  13
ATOM     12  C   UNL     1       6.097   3.429  12.572  0.00  0.00    +0.000 C 
ATOM     13  O   UNL     1       5.646   4.189  13.688  0.00  0.00    +0.000 OA
ENDBRANCH  11  13
ENDBRANCH   3  11
ENDBRANCH   1   5
BRANCH   2  14
ATOM     14  N   UNL     1       2.168   4.857  18.705  0.00  0.00    +0.000 N 
ATOM     15  C   UNL     1       2.215   5.563  19.900  0.00  0.00    +0.000 C 
ATOM     16  O   UNL     1       2.582   5.109  20.974  0.00  0.00    +0.000 OA
ATOM     17  H   UNL     1       1.730   5.240  17.878  0.00  0.00    +0.000 HD
BRANCH  15  18
ATOM     18  C   UNL     1       1.789   6.992  19.828  0.00  0.00    +0.000 A 
ATOM     19  C   UNL     1       1.222   7.561  20.976  0.00  0.00    +0.000 A 
ATOM     20  C   UNL     1       0.826   8.900  20.983  0.00  0.00    +0.000 A 
ATOM     21  C   UNL     1       1.011   9.679  19.844  0.00  0.00    +0.000 A 
ATOM     22 CL   UNL     1       0.535  11.332  19.851  0.00  0.00    +0.000 Cl
ATOM     23  C   UNL     1       1.591   9.131  18.700  0.00  0.00    +0.000 A 
ATOM     24  C   UNL     1       1.984   7.788  18.689  0.00  0.00    +0.000 A 
ENDBRANCH  15  18
ENDBRANCH   2  14
TORSDOF 6
ENDMDL
MODEL 5
REMARK VINA RESULT:      -7.2      1.409      2.935
REMARK  Name = 
REMARK  8 active torsions:
REMARK  status: ('A' for Active; 'I' for Inactive)
REMARK    1  A    between atoms: C_1  and  O_2
REMARK    2  A    between atoms: O_2  and  C_3
REMARK    3  A    between atoms: C_3  and  C_4
REMARK    4  A    between atoms: C_6  and  C_7
REMARK    5  A    between atoms: N_8  and  N_9
REMARK    6  A    between atoms: C_10  and  C_12
REMARK    7  A    between atoms: C_21  and  O_22
REMARK    8  A    between atoms: O_22  and  C_23
REMARK                            x       y       z     vdW  Elec       q    Type
REMARK                         _______ _______ _______ _____ _____    ______ ____
ROOT
ATOM      1  C   UNL     1       3.448   3.375  17.826  0.00  0.00    +0.000 C 
ATOM      2  N   UNL     1       2.339   3.717  18.411  0.00  0.00    +0.000 NA
ENDROOT
BRANCH   1   5
ATOM      3  C   UNL     1       6.199   5.023  15.714  0.00  0.00    +0.000 A 
ATOM      4  C   UNL     1       5.150   4.156  16.131  0.00  0.00    +0.000 A 
ATOM      5  C   UNL     1       4.607   4.198  17.416  0.00  0.00    +0.000 A 
ATOM      6  C   UNL     1       5.090   5.135  18.318  0.00  0.00    +0.000 A 
ATOM      7  C   UNL     1       6.095   6.015  17.916  0.00  0.00    +0.000 A 
ATOM      8  C   UNL     1       6.658   5.985  16.624  0.00  0.00    +0.000 A 
BRANCH   8   9
ATOM      9  O   UNL     1       7.619   6.945  16.519  0.00  0.00    +0.000 OA
ATOM     10  C   UNL     1       7.792   7.975  17.469  0.00  0.00    +0.000 C 
ENDBRANCH   8   9
BRANCH   3  11
ATOM     11  C   UNL     1       6.721   4.750  14.323  0.00  0.00    +0.000 C 
BRANCH  11  13
ATOM     12  C   UNL     1       6.341   3.511  12.331  0.00  0.00    +0.000 C 
ATOM     13  O   UNL     1       6.125   3.587  13.736  0.00  0.00    +0.000 OA
ENDBRANCH  11  13
ENDBRANCH   3  11
ENDBRANCH   1   5
BRANCH   2  14
ATOM     14  N   UNL     1       2.037   5.033  18.559  0.00  0.00    +0.000 N 
ATOM     15  C   UNL     1       2.162   5.624  19.809  0.00  0.00    +0.000 C 
ATOM     16  O   UNL     1       2.558   5.062  20.819  0.00  0.00    +0.000 OA
ATOM     17  H   UNL     1       1.578   5.505  17.791  0.00  0.00    +0.000 HD
BRANCH  15  18
ATOM     18  C   UNL     1       1.789   7.068  19.885  0.00  0.00    +0.000 A 
ATOM     19  C   UNL     1       1.960   7.847  18.733  0.00  0.00    +0.000 A 
ATOM     20  C   UNL     1       1.606   9.198  18.730  0.00  0.00    +0.000 A 
ATOM     21  C   UNL     1       1.064   9.770  19.878  0.00  0.00    +0.000 A 
ATOM     22 CL   UNL     1       0.615  11.430  19.877  0.00  0.00    +0.000 Cl
ATOM     23  C   UNL     1       0.870   9.002  21.027  0.00  0.00    +0.000 A 
ATOM     24  C   UNL     1       1.229   7.649  21.033  0.00  0.00    +0.000 A 
ENDBRANCH  15  18
ENDBRANCH   2  14
TORSDOF 6
ENDMDL
MODEL 6
REMARK VINA RESULT:      -7.1      1.016      1.485
REMARK  Name = 
REMARK  8 active torsions:
REMARK  status: ('A' for Active; 'I' for Inactive)
REMARK    1  A    between atoms: C_1  and  O_2
REMARK    2  A    between atoms: O_2  and  C_3
REMARK    3  A    between atoms: C_3  and  C_4
REMARK    4  A    between atoms: C_6  and  C_7
REMARK    5  A    between atoms: N_8  and  N_9
REMARK    6  A    between atoms: C_10  and  C_12
REMARK    7  A    between atoms: C_21  and  O_22
REMARK    8  A    between atoms: O_22  and  C_23
REMARK                            x       y       z     vdW  Elec       q    Type
REMARK                         _______ _______ _______ _____ _____    ______ ____
ROOT
ATOM      1  C   UNL     1       3.637   4.072  18.664  0.00  0.00    +0.000 C 
ATOM      2  N   UNL     1       2.689   4.707  19.287  0.00  0.00    +0.000 NA
ENDROOT
BRANCH   1   5
ATOM      3  C   UNL     1       6.770   5.828  17.308  0.00  0.00    +0.000 A 
ATOM      4  C   UNL     1       5.707   5.430  18.165  0.00  0.00    +0.000 A 
ATOM      5  C   UNL     1       4.686   4.574  17.750  0.00  0.00    +0.000 A 
ATOM      6  C   UNL     1       4.716   4.071  16.457  0.00  0.00    +0.000 A 
ATOM      7  C   UNL     1       5.769   4.425  15.613  0.00  0.00    +0.000 A 
ATOM      8  C   UNL     1       6.808   5.290  16.013  0.00  0.00    +0.000 A 
BRANCH   8   9
ATOM      9  O   UNL     1       7.685   5.463  14.986  0.00  0.00    +0.000 OA
ATOM     10  C   UNL     1       7.462   4.961  13.684  0.00  0.00    +0.000 C 
ENDBRANCH   8   9
BRANCH   3  11
ATOM     11  C   UNL     1       7.715   6.840  17.910  0.00  0.00    +0.000 C 
BRANCH  11  13
ATOM     12  C   UNL     1       8.240   9.156  18.008  0.00  0.00    +0.000 C 
ATOM     13  O   UNL     1       7.650   8.108  17.247  0.00  0.00    +0.000 OA
ENDBRANCH  11  13
ENDBRANCH   3  11
ENDBRANCH   1   5
BRANCH   2  14
ATOM     14  N   UNL     1       2.444   6.009  18.985  0.00  0.00    +0.000 N 
ATOM     15  C   UNL     1       1.903   6.843  19.954  0.00  0.00    +0.000 C 
ATOM     16  O   UNL     1       1.642   6.514  21.102  0.00  0.00    +0.000 OA
ATOM     17  H   UNL     1       2.514   6.294  18.016  0.00  0.00    +0.000 HD
BRANCH  15  18
ATOM     18  C   UNL     1       1.646   8.251  19.530  0.00  0.00    +0.000 A 
ATOM     19  C   UNL     1       1.009   9.100  20.444  0.00  0.00    +0.000 A 
ATOM     20  C   UNL     1       0.761  10.436  20.120  0.00  0.00    +0.000 A 
ATOM     21  C   UNL     1       1.166  10.930  18.883  0.00  0.00    +0.000 A 
ATOM     22 CL   UNL     1       0.874  12.577  18.482  0.00  0.00    +0.000 Cl
ATOM     23  C   UNL     1       1.818  10.101  17.970  0.00  0.00    +0.000 A 
ATOM     24  C   UNL     1       2.063   8.761  18.291  0.00  0.00    +0.000 A 
ENDBRANCH  15  18
ENDBRANCH   2  14
TORSDOF 6
ENDMDL
MODEL 7
REMARK VINA RESULT:      -7.1      4.242      6.131
REMARK  Name = 
REMARK  8 active torsions:
REMARK  status: ('A' for Active; 'I' for Inactive)
REMARK    1  A    between atoms: C_1  and  O_2
REMARK    2  A    between atoms: O_2  and  C_3
REMARK    3  A    between atoms: C_3  and  C_4
REMARK    4  A    between atoms: C_6  and  C_7
REMARK    5  A    between atoms: N_8  and  N_9
REMARK    6  A    between atoms: C_10  and  C_12
REMARK    7  A    between atoms: C_21  and  O_22
REMARK    8  A    between atoms: O_22  and  C_23
REMARK                            x       y       z     vdW  Elec       q    Type
REMARK                         _______ _______ _______ _____ _____    ______ ____
ROOT
ATOM      1  C   UNL     1       3.162   8.097  18.112  0.00  0.00    +0.000 C 
ATOM      2  N   UNL     1       2.652   9.143  17.535  0.00  0.00    +0.000 NA
ENDROOT
BRANCH   1   5
ATOM      3  C   UNL     1       1.827   4.530  18.597  0.00  0.00    +0.000 A 
ATOM      4  C   UNL     1       2.371   5.701  17.999  0.00  0.00    +0.000 A 
ATOM      5  C   UNL     1       2.502   6.906  18.691  0.00  0.00    +0.000 A 
ATOM      6  C   UNL     1       2.110   6.963  20.020  0.00  0.00    +0.000 A 
ATOM      7  C   UNL     1       1.605   5.815  20.632  0.00  0.00    +0.000 A 
ATOM      8  C   UNL     1       1.462   4.590  19.949  0.00  0.00    +0.000 A 
BRANCH   8   9
ATOM      9  O   UNL     1       0.937   3.654  20.788  0.00  0.00    +0.000 OA
ATOM     10  C   UNL     1       1.722   2.872  21.664  0.00  0.00    +0.000 C 
ENDBRANCH   8   9
BRANCH   3  11
ATOM     11  C   UNL     1       1.671   3.361  17.654  0.00  0.00    +0.000 C 
BRANCH  11  13
ATOM     12  C   UNL     1       3.424   1.848  18.189  0.00  0.00    +0.000 C 
ATOM     13  O   UNL     1       2.028   2.116  18.265  0.00  0.00    +0.000 OA
ENDBRANCH  11  13
ENDBRANCH   3  11
ENDBRANCH   1   5
BRANCH   2  14
ATOM     14  N   UNL     1       1.307   9.340  17.569  0.00  0.00    +0.000 N 
ATOM     15  C   UNL     1       0.802  10.479  18.181  0.00  0.00    +0.000 C 
ATOM     16  O   UNL     1       1.473  11.367  18.685  0.00  0.00    +0.000 OA
ATOM     17  H   UNL     1       0.708   8.575  17.289  0.00  0.00    +0.000 HD
BRANCH  15  18
ATOM     18  C   UNL     1      -0.686  10.604  18.192  0.00  0.00    +0.000 A 
ATOM     19  C   UNL     1      -1.419   9.739  17.369  0.00  0.00    +0.000 A 
ATOM     20  C   UNL     1      -2.814   9.787  17.352  0.00  0.00    +0.000 A 
ATOM     21  C   UNL     1      -3.482  10.692  18.173  0.00  0.00    +0.000 A 
ATOM     22 CL   UNL     1      -5.201  10.748  18.165  0.00  0.00    +0.000 Cl
ATOM     23  C   UNL     1      -2.766  11.547  19.011  0.00  0.00    +0.000 A 
ATOM     24  C   UNL     1      -1.368  11.504  19.026  0.00  0.00    +0.000 A 
ENDBRANCH  15  18
ENDBRANCH   2  14
TORSDOF 6
ENDMDL
MODEL 8
REMARK VINA RESULT:      -7.1      4.241      6.181
REMARK  Name = 
REMARK  8 active torsions:
REMARK  status: ('A' for Active; 'I' for Inactive)
REMARK    1  A    between atoms: C_1  and  O_2
REMARK    2  A    between atoms: O_2  and  C_3
REMARK    3  A    between atoms: C_3  and  C_4
REMARK    4  A    between atoms: C_6  and  C_7
REMARK    5  A    between atoms: N_8  and  N_9
REMARK    6  A    between atoms: C_10  and  C_12
REMARK    7  A    between atoms: C_21  and  O_22
REMARK    8  A    between atoms: O_22  and  C_23
REMARK                            x       y       z     vdW  Elec       q    Type
REMARK                         _______ _______ _______ _____ _____    ______ ____
ROOT
ATOM      1  C   UNL     1       3.148   7.840  18.019  0.00  0.00    +0.000 C 
ATOM      2  N   UNL     1       2.635   8.858  17.395  0.00  0.00    +0.000 NA
ENDROOT
BRANCH   1   5
ATOM      3  C   UNL     1       1.723   4.343  18.708  0.00  0.00    +0.000 A 
ATOM      4  C   UNL     1       2.262   5.475  18.037  0.00  0.00    +0.000 A 
ATOM      5  C   UNL     1       2.491   6.692  18.680  0.00  0.00    +0.000 A 
ATOM      6  C   UNL     1       2.203   6.800  20.033  0.00  0.00    +0.000 A 
ATOM      7  C   UNL     1       1.704   5.690  20.715  0.00  0.00    +0.000 A 
ATOM      8  C   UNL     1       1.464   4.454  20.082  0.00  0.00    +0.000 A 
BRANCH   8   9
ATOM      9  O   UNL     1       0.970   3.562  20.985  0.00  0.00    +0.000 OA
ATOM     10  C   UNL     1       1.790   2.747  21.797  0.00  0.00    +0.000 C 
ENDBRANCH   8   9
BRANCH   3  11
ATOM     11  C   UNL     1       1.451   3.156  17.815  0.00  0.00    +0.000 C 
BRANCH  11  13
ATOM     12  C   UNL     1       3.348   1.816  18.319  0.00  0.00    +0.000 C 
ATOM     13  O   UNL     1       1.931   1.929  18.378  0.00  0.00    +0.000 OA
ENDBRANCH  11  13
ENDBRANCH   3  11
ENDBRANCH   1   5
BRANCH   2  14
ATOM     14  N   UNL     1       1.294   9.073  17.452  0.00  0.00    +0.000 N 
ATOM     15  C   UNL     1       0.817  10.251  18.010  0.00  0.00    +0.000 C 
ATOM     16  O   UNL     1       1.510  11.158  18.447  0.00  0.00    +0.000 OA
ATOM     17  H   UNL     1       0.679   8.301  17.230  0.00  0.00    +0.000 HD
BRANCH  15  18
ATOM     18  C   UNL     1      -0.669  10.395  18.051  0.00  0.00    +0.000 A 
ATOM     19  C   UNL     1      -1.206  11.354  18.920  0.00  0.00    +0.000 A 
ATOM     20  C   UNL     1      -2.587  11.556  18.988  0.00  0.00    +0.000 A 
ATOM     21  C   UNL     1      -3.433  10.809  18.173  0.00  0.00    +0.000 A 
ATOM     22 CL   UNL     1      -5.133  11.062  18.244  0.00  0.00    +0.000 Cl
ATOM     23  C   UNL     1      -2.911   9.863  17.290  0.00  0.00    +0.000 A 
ATOM     24  C   UNL     1      -1.528   9.655  17.224  0.00  0.00    +0.000 A 
ENDBRANCH  15  18
ENDBRANCH   2  14
TORSDOF 6
ENDMDL
MODEL 9
REMARK VINA RESULT:      -7.1      0.840      2.520
REMARK  Name = 
REMARK  8 active torsions:
REMARK  status: ('A' for Active; 'I' for Inactive)
REMARK    1  A    between atoms: C_1  and  O_2
REMARK    2  A    between atoms: O_2  and  C_3
REMARK    3  A    between atoms: C_3  and  C_4
REMARK    4  A    between atoms: C_6  and  C_7
REMARK    5  A    between atoms: N_8  and  N_9
REMARK    6  A    between atoms: C_10  and  C_12
REMARK    7  A    between atoms: C_21  and  O_22
REMARK    8  A    between atoms: O_22  and  C_23
REMARK                            x       y       z     vdW  Elec       q    Type
REMARK                         _______ _______ _______ _____ _____    ______ ____
ROOT
ATOM      1  C   UNL     1       4.506   3.655  19.407  0.00  0.00    +0.000 C 
ATOM      2  N   UNL     1       3.553   3.945  20.241  0.00  0.00    +0.000 NA
ENDROOT
BRANCH   1   5
ATOM      3  C   UNL     1       5.972   5.778  16.563  0.00  0.00    +0.000 A 
ATOM      4  C   UNL     1       5.172   4.847  17.281  0.00  0.00    +0.000 A 
ATOM      5  C   UNL     1       5.396   4.541  18.624  0.00  0.00    +0.000 A 
ATOM      6  C   UNL     1       6.425   5.185  19.296  0.00  0.00    +0.000 A 
ATOM      7  C   UNL     1       7.199   6.126  18.617  0.00  0.00    +0.000 A 
ATOM      8  C   UNL     1       6.990   6.446  17.260  0.00  0.00    +0.000 A 
BRANCH   8   9
ATOM      9  O   UNL     1       7.895   7.382  16.862  0.00  0.00    +0.000 OA
ATOM     10  C   UNL     1       8.146   8.572  17.581  0.00  0.00    +0.000 C 
ENDBRANCH   8   9
BRANCH   3  11
ATOM     11  C   UNL     1       5.636   5.891  15.095  0.00  0.00    +0.000 C 
BRANCH  11  13
ATOM     12  C   UNL     1       6.435   3.999  13.900  0.00  0.00    +0.000 C 
ATOM     13  O   UNL     1       6.668   5.357  14.258  0.00  0.00    +0.000 OA
ENDBRANCH  11  13
ENDBRANCH   3  11
ENDBRANCH   1   5
BRANCH   2  14
ATOM     14  N   UNL     1       3.124   5.230  20.349  0.00  0.00    +0.000 N 
ATOM     15  C   UNL     1       2.285   5.752  19.374  0.00  0.00    +0.000 C 
ATOM     16  O   UNL     1       1.858   5.138  18.407  0.00  0.00    +0.000 OA
ATOM     17  H   UNL     1       3.554   5.817  21.051  0.00  0.00    +0.000 HD
BRANCH  15  18
ATOM     18  C   UNL     1       1.879   7.177  19.561  0.00  0.00    +0.000 A 
ATOM     19  C   UNL     1       1.993   8.035  18.459  0.00  0.00    +0.000 A 
ATOM     20  C   UNL     1       1.606   9.374  18.559  0.00  0.00    +0.000 A 
ATOM     21  C   UNL     1       1.091   9.853  19.761  0.00  0.00    +0.000 A 
ATOM     22 CL   UNL     1       0.603  11.498  19.887  0.00  0.00    +0.000 Cl
ATOM     23  C   UNL     1       0.955   9.005  20.860  0.00  0.00    +0.000 A 
ATOM     24  C   UNL     1       1.346   7.665  20.763  0.00  0.00    +0.000 A 
ENDBRANCH  15  18
ENDBRANCH   2  14
TORSDOF 6
ENDMDL
