MODEL 1
REMARK VINA RESULT:      -7.6      0.000      0.000
REMARK  Name = 
REMARK  6 active torsions:
REMARK  status: ('A' for Active; 'I' for Inactive)
REMARK    1  A    between atoms: C_1  and  O_2
REMARK    2  A    between atoms: O_2  and  C_3
REMARK    3  A    between atoms: C_12  and  C_13
REMARK    4  A    between atoms: C_13  and  O_15
REMARK    5  A    between atoms: O_15  and  C_16
REMARK    6  A    between atoms: C_16  and  C_17
REMARK                            x       y       z     vdW  Elec       q    Type
REMARK                         _______ _______ _______ _____ _____    ______ ____
ROOT
ATOM      1  C   UNL     1       0.800   9.756  21.699  0.00  0.00    +0.000 A 
ATOM      2  C   UNL     1       0.889  10.660  20.636  0.00  0.00    +0.000 A 
ATOM      3  C   UNL     1       1.284  10.235  19.365  0.00  0.00    +0.000 A 
ATOM      4  C   UNL     1       1.625   8.898  19.148  0.00  0.00    +0.000 A 
ATOM      5  C   UNL     1       1.522   7.990  20.221  0.00  0.00    +0.000 A 
ATOM      6  C   UNL     1       1.095   8.404  21.486  0.00  0.00    +0.000 A 
ATOM      7  N   UNL     1       1.914   6.657  19.957  0.00  0.00    +0.000 N 
ATOM      8  N   UNL     1       1.711   5.612  20.788  0.00  0.00    +0.000 NA
ATOM      9  C   UNL     1       2.212   4.574  20.111  0.00  0.00    +0.000 A 
ATOM     10  C   UNL     1       2.779   4.928  18.863  0.00  0.00    +0.000 A 
ATOM     11  C   UNL     1       2.559   6.289  18.784  0.00  0.00    +0.000 A 
ATOM     12  N   UNL     1       2.858   7.226  17.838  0.00  0.00    +0.000 N 
ATOM     13  C   UNL     1       2.008   8.411  17.768  0.00  0.00    +0.000 C 
ATOM     14  H   UNL     1       3.241   6.916  16.946  0.00  0.00    +0.000 HD
ENDROOT
BRANCH   1  16
ATOM     15  C   UNL     1      -0.888  10.535  23.177  0.00  0.00    +0.000 C 
ATOM     16  O   UNL     1       0.451  10.089  22.983  0.00  0.00    +0.000 OA
ENDBRANCH   1  16
BRANCH  10  17
ATOM     17  C   UNL     1       3.371   4.074  17.856  0.00  0.00    +0.000 C 
ATOM     18  O   UNL     1       2.726   3.474  17.005  0.00  0.00    +0.000 OA
BRANCH  17  19
ATOM     19  O   UNL     1       4.716   3.938  18.041  0.00  0.00    +0.000 OA
BRANCH  19  20
ATOM     20  C   UNL     1       5.540   4.585  17.063  0.00  0.00    +0.000 C 
BRANCH  20  21
ATOM     21  C   UNL     1       6.536   5.432  17.758  0.00  0.00    +0.000 A 
ATOM     22  C   UNL     1       7.143   6.632  17.453  0.00  0.00    +0.000 A 
ATOM     23  C   UNL     1       8.044   6.907  18.511  0.00  0.00    +0.000 A 
ATOM     24  C   UNL     1       7.941   5.852  19.387  0.00  0.00    +0.000 A 
ATOM     25  O   UNL     1       7.032   4.949  18.936  0.00  0.00    +0.000 OA
ENDBRANCH  20  21
ENDBRANCH  19  20
ENDBRANCH  17  19
ENDBRANCH  10  17
TORSDOF 5
ENDMDL
MODEL 2
REMARK VINA RESULT:      -7.5      0.853      1.025
REMARK  Name = 
REMARK  6 active torsions:
REMARK  status: ('A' for Active; 'I' for Inactive)
REMARK    1  A    between atoms: C_1  and  O_2
REMARK    2  A    between atoms: O_2  and  C_3
REMARK    3  A    between atoms: C_12  and  C_13
REMARK    4  A    between atoms: C_13  and  O_15
REMARK    5  A    between atoms: O_15  and  C_16
REMARK    6  A    between atoms: C_16  and  C_17
REMARK                            x       y       z     vdW  Elec       q    Type
REMARK                         _______ _______ _______ _____ _____    ______ ____
ROOT
ATOM      1  C   UNL     1       0.802   9.900  21.269  0.00  0.00    +0.000 A 
ATOM      2  C   UNL     1       0.895  10.695  20.122  0.00  0.00    +0.000 A 
ATOM      3  C   UNL     1       1.385  10.169  18.923  0.00  0.00    +0.000 A 
ATOM      4  C   UNL     1       1.818   8.843  18.866  0.00  0.00    +0.000 A 
ATOM      5  C   UNL     1       1.711   8.044  20.022  0.00  0.00    +0.000 A 
ATOM      6  C   UNL     1       1.190   8.556  21.214  0.00  0.00    +0.000 A 
ATOM      7  N   UNL     1       2.197   6.721  19.920  0.00  0.00    +0.000 N 
ATOM      8  N   UNL     1       2.013   5.755  20.845  0.00  0.00    +0.000 NA
ATOM      9  C   UNL     1       2.613   4.688  20.307  0.00  0.00    +0.000 A 
ATOM     10  C   UNL     1       3.226   4.950  19.058  0.00  0.00    +0.000 A 
ATOM     11  C   UNL     1       2.929   6.278  18.826  0.00  0.00    +0.000 A 
ATOM     12  N   UNL     1       3.222   7.132  17.802  0.00  0.00    +0.000 N 
ATOM     13  C   UNL     1       2.307   8.244  17.565  0.00  0.00    +0.000 C 
ATOM     14  H   UNL     1       3.672   6.758  16.967  0.00  0.00    +0.000 HD
ENDROOT
BRANCH   1  16
ATOM     15  C   UNL     1      -0.398   9.411  23.259  0.00  0.00    +0.000 C 
ATOM     16  O   UNL     1       0.363  10.339  22.492  0.00  0.00    +0.000 OA
ENDBRANCH   1  16
BRANCH  10  17
ATOM     17  C   UNL     1       3.924   4.038  18.177  0.00  0.00    +0.000 C 
ATOM     18  O   UNL     1       3.368   3.180  17.503  0.00  0.00    +0.000 OA
BRANCH  17  19
ATOM     19  O   UNL     1       5.277   4.184  18.275  0.00  0.00    +0.000 OA
BRANCH  19  20
ATOM     20  C   UNL     1       5.920   4.751  17.126  0.00  0.00    +0.000 C 
BRANCH  20  21
ATOM     21  C   UNL     1       6.794   5.863  17.563  0.00  0.00    +0.000 A 
ATOM     22  C   UNL     1       7.655   6.035  18.626  0.00  0.00    +0.000 A 
ATOM     23  C   UNL     1       8.173   7.348  18.515  0.00  0.00    +0.000 A 
ATOM     24  C   UNL     1       7.586   7.900  17.401  0.00  0.00    +0.000 A 
ATOM     25  O   UNL     1       6.743   7.008  16.820  0.00  0.00    +0.000 OA
ENDBRANCH  20  21
ENDBRANCH  19  20
ENDBRANCH  17  19
ENDBRANCH  10  17
TORSDOF 5
ENDMDL
MODEL 3
REMARK VINA RESULT:      -7.4      2.686      7.133
REMARK  Name = 
REMARK  6 active torsions:
REMARK  status: ('A' for Active; 'I' for Inactive)
REMARK    1  A    between atoms: C_1  and  O_2
REMARK    2  A    between atoms: O_2  and  C_3
REMARK    3  A    between atoms: C_12  and  C_13
REMARK    4  A    between atoms: C_13  and  O_15
REMARK    5  A    between atoms: O_15  and  C_16
REMARK    6  A    between atoms: C_16  and  C_17
REMARK                            x       y       z     vdW  Elec       q    Type
REMARK                         _______ _______ _______ _____ _____    ______ ____
ROOT
ATOM      1  C   UNL     1       6.063   4.087  14.543  0.00  0.00    +0.000 A 
ATOM      2  C   UNL     1       7.214   4.649  15.103  0.00  0.00    +0.000 A 
ATOM      3  C   UNL     1       7.248   5.021  16.450  0.00  0.00    +0.000 A 
ATOM      4  C   UNL     1       6.113   4.861  17.248  0.00  0.00    +0.000 A 
ATOM      5  C   UNL     1       4.961   4.283  16.681  0.00  0.00    +0.000 A 
ATOM      6  C   UNL     1       4.933   3.878  15.342  0.00  0.00    +0.000 A 
ATOM      7  N   UNL     1       3.829   4.177  17.522  0.00  0.00    +0.000 N 
ATOM      8  N   UNL     1       2.706   3.488  17.226  0.00  0.00    +0.000 NA
ATOM      9  C   UNL     1       1.946   3.649  18.314  0.00  0.00    +0.000 A 
ATOM     10  C   UNL     1       2.537   4.467  19.306  0.00  0.00    +0.000 A 
ATOM     11  C   UNL     1       3.768   4.787  18.768  0.00  0.00    +0.000 A 
ATOM     12  N   UNL     1       4.814   5.539  19.220  0.00  0.00    +0.000 N 
ATOM     13  C   UNL     1       6.146   5.213  18.720  0.00  0.00    +0.000 C 
ATOM     14  H   UNL     1       4.786   5.892  20.175  0.00  0.00    +0.000 HD
ENDROOT
BRANCH   1  16
ATOM     15  C   UNL     1       7.005   4.082  12.362  0.00  0.00    +0.000 C 
ATOM     16  O   UNL     1       5.932   3.721  13.228  0.00  0.00    +0.000 OA
ENDBRANCH   1  16
BRANCH  10  17
ATOM     17  C   UNL     1       2.031   4.824  20.614  0.00  0.00    +0.000 C 
ATOM     18  O   UNL     1       2.216   4.155  21.623  0.00  0.00    +0.000 OA
BRANCH  17  19
ATOM     19  O   UNL     1       1.237   5.933  20.559  0.00  0.00    +0.000 OA
BRANCH  19  20
ATOM     20  C   UNL     1       1.885   7.170  20.877  0.00  0.00    +0.000 C 
BRANCH  20  21
ATOM     21  C   UNL     1       1.749   8.094  19.727  0.00  0.00    +0.000 A 
ATOM     22  C   UNL     1       2.230   8.081  18.434  0.00  0.00    +0.000 A 
ATOM     23  C   UNL     1       1.782   9.279  17.827  0.00  0.00    +0.000 A 
ATOM     24  C   UNL     1       1.069   9.954  18.790  0.00  0.00    +0.000 A 
ATOM     25  O   UNL     1       1.048   9.245  19.948  0.00  0.00    +0.000 OA
ENDBRANCH  20  21
ENDBRANCH  19  20
ENDBRANCH  17  19
ENDBRANCH  10  17
TORSDOF 5
ENDMDL
MODEL 4
REMARK VINA RESULT:      -7.4      2.326      4.223
REMARK  Name = 
REMARK  6 active torsions:
REMARK  status: ('A' for Active; 'I' for Inactive)
REMARK    1  A    between atoms: C_1  and  O_2
REMARK    2  A    between atoms: O_2  and  C_3
REMARK    3  A    between atoms: C_12  and  C_13
REMARK    4  A    between atoms: C_13  and  O_15
REMARK    5  A    between atoms: O_15  and  C_16
REMARK    6  A    between atoms: C_16  and  C_17
REMARK                            x       y       z     vdW  Elec       q    Type
REMARK                         _______ _______ _______ _____ _____    ______ ____
ROOT
ATOM      1  C   UNL     1      -0.754  11.422  19.305  0.00  0.00    +0.000 A 
ATOM      2  C   UNL     1      -0.953  11.286  20.683  0.00  0.00    +0.000 A 
ATOM      3  C   UNL     1      -0.257  10.320  21.415  0.00  0.00    +0.000 A 
ATOM      4  C   UNL     1       0.628   9.455  20.769  0.00  0.00    +0.000 A 
ATOM      5  C   UNL     1       0.832   9.605  19.383  0.00  0.00    +0.000 A 
ATOM      6  C   UNL     1       0.164  10.592  18.652  0.00  0.00    +0.000 A 
ATOM      7  N   UNL     1       1.710   8.680  18.772  0.00  0.00    +0.000 N 
ATOM      8  N   UNL     1       2.177   8.775  17.508  0.00  0.00    +0.000 NA
ATOM      9  C   UNL     1       2.980   7.712  17.392  0.00  0.00    +0.000 A 
ATOM     10  C   UNL     1       3.017   6.897  18.549  0.00  0.00    +0.000 A 
ATOM     11  C   UNL     1       2.189   7.558  19.435  0.00  0.00    +0.000 A 
ATOM     12  N   UNL     1       1.804   7.299  20.719  0.00  0.00    +0.000 N 
ATOM     13  C   UNL     1       1.425   8.435  21.553  0.00  0.00    +0.000 C 
ATOM     14  H   UNL     1       2.246   6.527  21.215  0.00  0.00    +0.000 HD
ENDROOT
BRANCH   1  16
ATOM     15  C   UNL     1      -2.289  11.767  17.526  0.00  0.00    +0.000 C 
ATOM     16  O   UNL     1      -1.413  12.319  18.505  0.00  0.00    +0.000 OA
ENDBRANCH   1  16
BRANCH  10  17
ATOM     17  C   UNL     1       3.795   5.702  18.797  0.00  0.00    +0.000 C 
ATOM     18  O   UNL     1       4.687   5.631  19.634  0.00  0.00    +0.000 OA
BRANCH  17  19
ATOM     19  O   UNL     1       3.484   4.709  17.916  0.00  0.00    +0.000 OA
BRANCH  19  20
ATOM     20  C   UNL     1       2.160   4.174  18.033  0.00  0.00    +0.000 C 
BRANCH  20  21
ATOM     21  C   UNL     1       1.983   3.621  19.395  0.00  0.00    +0.000 A 
ATOM     22  C   UNL     1       1.018   3.778  20.368  0.00  0.00    +0.000 A 
ATOM     23  C   UNL     1       1.439   3.009  21.479  0.00  0.00    +0.000 A 
ATOM     24  C   UNL     1       2.640   2.443  21.122  0.00  0.00    +0.000 A 
ATOM     25  O   UNL     1       2.981   2.813  19.860  0.00  0.00    +0.000 OA
ENDBRANCH  20  21
ENDBRANCH  19  20
ENDBRANCH  17  19
ENDBRANCH  10  17
TORSDOF 5
ENDMDL
MODEL 5
REMARK VINA RESULT:      -7.4      2.571      7.858
REMARK  Name = 
REMARK  6 active torsions:
REMARK  status: ('A' for Active; 'I' for Inactive)
REMARK    1  A    between atoms: C_1  and  O_2
REMARK    2  A    between atoms: O_2  and  C_3
REMARK    3  A    between atoms: C_12  and  C_13
REMARK    4  A    between atoms: C_13  and  O_15
REMARK    5  A    between atoms: O_15  and  C_16
REMARK    6  A    between atoms: C_16  and  C_17
REMARK                            x       y       z     vdW  Elec       q    Type
REMARK                         _______ _______ _______ _____ _____    ______ ____
ROOT
ATOM      1  C   UNL     1       4.584   4.560  17.381  0.00  0.00    +0.000 A 
ATOM      2  C   UNL     1       4.314   3.626  18.386  0.00  0.00    +0.000 A 
ATOM      3  C   UNL     1       3.445   3.934  19.437  0.00  0.00    +0.000 A 
ATOM      4  C   UNL     1       2.858   5.198  19.510  0.00  0.00    +0.000 A 
ATOM      5  C   UNL     1       3.125   6.131  18.488  0.00  0.00    +0.000 A 
ATOM      6  C   UNL     1       3.966   5.815  17.417  0.00  0.00    +0.000 A 
ATOM      7  N   UNL     1       2.533   7.408  18.630  0.00  0.00    +0.000 N 
ATOM      8  N   UNL     1       2.514   8.362  17.675  0.00  0.00    +0.000 NA
ATOM      9  C   UNL     1       1.832   9.360  18.246  0.00  0.00    +0.000 A 
ATOM     10  C   UNL     1       1.437   9.092  19.578  0.00  0.00    +0.000 A 
ATOM     11  C   UNL     1       1.898   7.808  19.798  0.00  0.00    +0.000 A 
ATOM     12  N   UNL     1       1.839   6.970  20.874  0.00  0.00    +0.000 N 
ATOM     13  C   UNL     1       1.879   5.534  20.615  0.00  0.00    +0.000 C 
ATOM     14  H   UNL     1       1.282   7.248  21.680  0.00  0.00    +0.000 HD
ENDROOT
BRANCH   1  16
ATOM     15  C   UNL     1       6.829   4.538  16.606  0.00  0.00    +0.000 C 
ATOM     16  O   UNL     1       5.443   4.354  16.332  0.00  0.00    +0.000 OA
ENDBRANCH   1  16
BRANCH  10  17
ATOM     17  C   UNL     1       0.661   9.913  20.483  0.00  0.00    +0.000 C 
ATOM     18  O   UNL     1       1.120  10.441  21.489  0.00  0.00    +0.000 OA
BRANCH  17  19
ATOM     19  O   UNL     1      -0.657   9.936  20.134  0.00  0.00    +0.000 OA
BRANCH  19  20
ATOM     20  C   UNL     1      -1.098  11.126  19.469  0.00  0.00    +0.000 C 
BRANCH  20  21
ATOM     21  C   UNL     1      -1.932  10.747  18.306  0.00  0.00    +0.000 A 
ATOM     22  C   UNL     1      -1.736   9.913  17.225  0.00  0.00    +0.000 A 
ATOM     23  C   UNL     1      -2.904  10.005  16.430  0.00  0.00    +0.000 A 
ATOM     24  C   UNL     1      -3.733  10.898  17.066  0.00  0.00    +0.000 A 
ATOM     25  O   UNL     1      -3.149  11.358  18.203  0.00  0.00    +0.000 OA
ENDBRANCH  20  21
ENDBRANCH  19  20
ENDBRANCH  17  19
ENDBRANCH  10  17
TORSDOF 5
ENDMDL
MODEL 6
REMARK VINA RESULT:      -7.3      0.930      1.087
REMARK  Name = 
REMARK  6 active torsions:
REMARK  status: ('A' for Active; 'I' for Inactive)
REMARK    1  A    between atoms: C_1  and  O_2
REMARK    2  A    between atoms: O_2  and  C_3
REMARK    3  A    between atoms: C_12  and  C_13
REMARK    4  A    between atoms: C_13  and  O_15
REMARK    5  A    between atoms: O_15  and  C_16
REMARK    6  A    between atoms: C_16  and  C_17
REMARK                            x       y       z     vdW  Elec       q    Type
REMARK                         _______ _______ _______ _____ _____    ______ ____
ROOT
ATOM      1  C   UNL     1       0.455   9.991  20.619  0.00  0.00    +0.000 A 
ATOM      2  C   UNL     1       0.753  10.666  19.431  0.00  0.00    +0.000 A 
ATOM      3  C   UNL     1       1.479  10.040  18.414  0.00  0.00    +0.000 A 
ATOM      4  C   UNL     1       1.943   8.734  18.587  0.00  0.00    +0.000 A 
ATOM      5  C   UNL     1       1.630   8.056  19.782  0.00  0.00    +0.000 A 
ATOM      6  C   UNL     1       0.875   8.667  20.788  0.00  0.00    +0.000 A 
ATOM      7  N   UNL     1       2.155   6.751  19.921  0.00  0.00    +0.000 N 
ATOM      8  N   UNL     1       1.814   5.880  20.895  0.00  0.00    +0.000 NA
ATOM      9  C   UNL     1       2.531   4.789  20.603  0.00  0.00    +0.000 A 
ATOM     10  C   UNL     1       3.369   4.945  19.474  0.00  0.00    +0.000 A 
ATOM     11  C   UNL     1       3.095   6.229  19.043  0.00  0.00    +0.000 A 
ATOM     12  N   UNL     1       3.565   6.983  18.007  0.00  0.00    +0.000 N 
ATOM     13  C   UNL     1       2.689   8.025  17.478  0.00  0.00    +0.000 C 
ATOM     14  H   UNL     1       4.177   6.544  17.321  0.00  0.00    +0.000 HD
ENDROOT
BRANCH   1  16
ATOM     15  C   UNL     1      -0.276  11.959  21.731  0.00  0.00    +0.000 C 
ATOM     16  O   UNL     1      -0.224  10.536  21.679  0.00  0.00    +0.000 OA
ENDBRANCH   1  16
BRANCH  10  17
ATOM     17  C   UNL     1       4.246   3.978  18.849  0.00  0.00    +0.000 C 
ATOM     18  O   UNL     1       4.772   3.048  19.448  0.00  0.00    +0.000 OA
BRANCH  17  19
ATOM     19  O   UNL     1       4.495   4.294  17.545  0.00  0.00    +0.000 OA
BRANCH  19  20
ATOM     20  C   UNL     1       5.850   4.117  17.117  0.00  0.00    +0.000 C 
BRANCH  20  21
ATOM     21  C   UNL     1       6.671   5.231  17.644  0.00  0.00    +0.000 A 
ATOM     22  C   UNL     1       6.964   6.497  17.184  0.00  0.00    +0.000 A 
ATOM     23  C   UNL     1       7.848   7.074  18.128  0.00  0.00    +0.000 A 
ATOM     24  C   UNL     1       8.050   6.119  19.097  0.00  0.00    +0.000 A 
ATOM     25  O   UNL     1       7.344   4.995  18.809  0.00  0.00    +0.000 OA
ENDBRANCH  20  21
ENDBRANCH  19  20
ENDBRANCH  17  19
ENDBRANCH  10  17
TORSDOF 5
ENDMDL
MODEL 7
REMARK VINA RESULT:      -7.3      1.654      2.309
REMARK  Name = 
REMARK  6 active torsions:
REMARK  status: ('A' for Active; 'I' for Inactive)
REMARK    1  A    between atoms: C_1  and  O_2
REMARK    2  A    between atoms: O_2  and  C_3
REMARK    3  A    between atoms: C_12  and  C_13
REMARK    4  A    between atoms: C_13  and  O_15
REMARK    5  A    between atoms: O_15  and  C_16
REMARK    6  A    between atoms: C_16  and  C_17
REMARK                            x       y       z     vdW  Elec       q    Type
REMARK                         _______ _______ _______ _____ _____    ______ ____
ROOT
ATOM      1  C   UNL     1       0.087   9.588  21.069  0.00  0.00    +0.000 A 
ATOM      2  C   UNL     1       0.313  10.423  19.971  0.00  0.00    +0.000 A 
ATOM      3  C   UNL     1       1.117  10.006  18.906  0.00  0.00    +0.000 A 
ATOM      4  C   UNL     1       1.731   8.752  18.943  0.00  0.00    +0.000 A 
ATOM      5  C   UNL     1       1.489   7.911  20.047  0.00  0.00    +0.000 A 
ATOM      6  C   UNL     1       0.659   8.311  21.099  0.00  0.00    +0.000 A 
ATOM      7  N   UNL     1       2.164   6.668  20.052  0.00  0.00    +0.000 N 
ATOM      8  N   UNL     1       1.919   5.658  20.914  0.00  0.00    +0.000 NA
ATOM      9  C   UNL     1       2.763   4.699  20.517  0.00  0.00    +0.000 A 
ATOM     10  C   UNL     1       3.587   5.079  19.432  0.00  0.00    +0.000 A 
ATOM     11  C   UNL     1       3.167   6.362  19.142  0.00  0.00    +0.000 A 
ATOM     12  N   UNL     1       3.553   7.278  18.207  0.00  0.00    +0.000 N 
ATOM     13  C   UNL     1       2.565   8.265  17.779  0.00  0.00    +0.000 C 
ATOM     14  H   UNL     1       4.219   6.995  17.490  0.00  0.00    +0.000 HD
ENDROOT
BRANCH   1  16
ATOM     15  C   UNL     1      -0.652  11.302  22.539  0.00  0.00    +0.000 C 
ATOM     16  O   UNL     1      -0.661   9.926  22.168  0.00  0.00    +0.000 OA
ENDBRANCH   1  16
BRANCH  10  17
ATOM     17  C   UNL     1       4.578   4.297  18.722  0.00  0.00    +0.000 C 
ATOM     18  O   UNL     1       5.177   3.349  19.213  0.00  0.00    +0.000 OA
BRANCH  17  19
ATOM     19  O   UNL     1       4.833   4.814  17.486  0.00  0.00    +0.000 OA
BRANCH  19  20
ATOM     20  C   UNL     1       6.220   4.951  17.151  0.00  0.00    +0.000 C 
BRANCH  20  21
ATOM     21  C   UNL     1       6.393   4.688  15.704  0.00  0.00    +0.000 A 
ATOM     22  C   UNL     1       5.772   3.842  14.809  0.00  0.00    +0.000 A 
ATOM     23  C   UNL     1       6.421   4.027  13.565  0.00  0.00    +0.000 A 
ATOM     24  C   UNL     1       7.406   4.962  13.780  0.00  0.00    +0.000 A 
ATOM     25  O   UNL     1       7.400   5.365  15.077  0.00  0.00    +0.000 OA
ENDBRANCH  20  21
ENDBRANCH  19  20
ENDBRANCH  17  19
ENDBRANCH  10  17
TORSDOF 5
ENDMDL
MODEL 8
REMARK VINA RESULT:      -7.2      1.759      2.251
REMARK  Name = 
REMARK  6 active torsions:
REMARK  status: ('A' for Active; 'I' for Inactive)
REMARK    1  A    between atoms: C_1  and  O_2
REMARK    2  A    between atoms: O_2  and  C_3
REMARK    3  A    between atoms: C_12  and  C_13
REMARK    4  A    between atoms: C_13  and  O_15
REMARK    5  A    between atoms: O_15  and  C_16
REMARK    6  A    between atoms: C_16  and  C_17
REMARK                            x       y       z     vdW  Elec       q    Type
REMARK                         _______ _______ _______ _____ _____    ______ ____
ROOT
ATOM      1  C   UNL     1       0.270  10.377  21.783  0.00  0.00    +0.000 A 
ATOM      2  C   UNL     1       0.249  11.319  20.751  0.00  0.00    +0.000 A 
ATOM      3  C   UNL     1       0.714  10.994  19.473  0.00  0.00    +0.000 A 
ATOM      4  C   UNL     1       1.237   9.724  19.222  0.00  0.00    +0.000 A 
ATOM      5  C   UNL     1       1.245   8.775  20.264  0.00  0.00    +0.000 A 
ATOM      6  C   UNL     1       0.749   9.085  21.534  0.00  0.00    +0.000 A 
ATOM      7  N   UNL     1       1.818   7.517  19.966  0.00  0.00    +0.000 N 
ATOM      8  N   UNL     1       1.749   6.428  20.761  0.00  0.00    +0.000 NA
ATOM      9  C   UNL     1       2.396   5.490  20.060  0.00  0.00    +0.000 A 
ATOM     10  C   UNL     1       2.925   5.958  18.834  0.00  0.00    +0.000 A 
ATOM     11  C   UNL     1       2.523   7.279  18.794  0.00  0.00    +0.000 A 
ATOM     12  N   UNL     1       2.704   8.279  17.882  0.00  0.00    +0.000 N 
ATOM     13  C   UNL     1       1.701   9.339  17.834  0.00  0.00    +0.000 C 
ATOM     14  H   UNL     1       3.136   8.053  16.988  0.00  0.00    +0.000 HD
ENDROOT
BRANCH   1  16
ATOM     15  C   UNL     1      -1.436  11.183  23.226  0.00  0.00    +0.000 C 
ATOM     16  O   UNL     1      -0.138  10.617  23.071  0.00  0.00    +0.000 OA
ENDBRANCH   1  16
BRANCH  10  17
ATOM     17  C   UNL     1       3.641   5.226  17.812  0.00  0.00    +0.000 C 
ATOM     18  O   UNL     1       3.259   4.162  17.341  0.00  0.00    +0.000 OA
BRANCH  17  19
ATOM     19  O   UNL     1       4.838   5.813  17.520  0.00  0.00    +0.000 OA
BRANCH  19  20
ATOM     20  C   UNL     1       4.919   6.440  16.235  0.00  0.00    +0.000 C 
BRANCH  20  21
ATOM     21  C   UNL     1       5.616   5.530  15.298  0.00  0.00    +0.000 A 
ATOM     22  C   UNL     1       5.199   4.492  14.492  0.00  0.00    +0.000 A 
ATOM     23  C   UNL     1       6.358   3.983  13.859  0.00  0.00    +0.000 A 
ATOM     24  C   UNL     1       7.412   4.732  14.328  0.00  0.00    +0.000 A 
ATOM     25  O   UNL     1       6.972   5.670  15.206  0.00  0.00    +0.000 OA
ENDBRANCH  20  21
ENDBRANCH  19  20
ENDBRANCH  17  19
ENDBRANCH  10  17
TORSDOF 5
ENDMDL
MODEL 9
REMARK VINA RESULT:      -7.2      2.126      3.324
REMARK  Name = 
REMARK  6 active torsions:
REMARK  status: ('A' for Active; 'I' for Inactive)
REMARK    1  A    between atoms: C_1  and  O_2
REMARK    2  A    between atoms: O_2  and  C_3
REMARK    3  A    between atoms: C_12  and  C_13
REMARK    4  A    between atoms: C_13  and  O_15
REMARK    5  A    between atoms: O_15  and  C_16
REMARK    6  A    between atoms: C_16  and  C_17
REMARK                            x       y       z     vdW  Elec       q    Type
REMARK                         _______ _______ _______ _____ _____    ______ ____
ROOT
ATOM      1  C   UNL     1      -0.717  11.370  19.045  0.00  0.00    +0.000 A 
ATOM      2  C   UNL     1      -0.990  11.403  20.417  0.00  0.00    +0.000 A 
ATOM      3  C   UNL     1      -0.355  10.521  21.295  0.00  0.00    +0.000 A 
ATOM      4  C   UNL     1       0.543   9.571  20.806  0.00  0.00    +0.000 A 
ATOM      5  C   UNL     1       0.823   9.551  19.425  0.00  0.00    +0.000 A 
ATOM      6  C   UNL     1       0.215  10.453  18.546  0.00  0.00    +0.000 A 
ATOM      7  N   UNL     1       1.711   8.546  18.977  0.00  0.00    +0.000 N 
ATOM      8  N   UNL     1       2.245   8.482  17.738  0.00  0.00    +0.000 NA
ATOM      9  C   UNL     1       3.030   7.400  17.793  0.00  0.00    +0.000 A 
ATOM     10  C   UNL     1       2.989   6.729  19.038  0.00  0.00    +0.000 A 
ATOM     11  C   UNL     1       2.131   7.505  19.793  0.00  0.00    +0.000 A 
ATOM     12  N   UNL     1       1.674   7.407  21.076  0.00  0.00    +0.000 N 
ATOM     13  C   UNL     1       1.276   8.641  21.748  0.00  0.00    +0.000 C 
ATOM     14  H   UNL     1       2.072   6.694  21.684  0.00  0.00    +0.000 HD
ENDROOT
BRANCH   1  16
ATOM     15  C   UNL     1      -2.341  11.575  17.324  0.00  0.00    +0.000 C 
ATOM     16  O   UNL     1      -1.314  12.175  18.109  0.00  0.00    +0.000 OA
ENDBRANCH   1  16
BRANCH  10  17
ATOM     17  C   UNL     1       3.726   5.561  19.469  0.00  0.00    +0.000 C 
ATOM     18  O   UNL     1       3.286   4.727  20.251  0.00  0.00    +0.000 OA
BRANCH  17  19
ATOM     19  O   UNL     1       5.001   5.565  18.983  0.00  0.00    +0.000 OA
BRANCH  19  20
ATOM     20  C   UNL     1       5.485   4.300  18.515  0.00  0.00    +0.000 C 
BRANCH  20  21
ATOM     21  C   UNL     1       5.996   4.461  17.134  0.00  0.00    +0.000 A 
ATOM     22  C   UNL     1       6.905   5.318  16.550  0.00  0.00    +0.000 A 
ATOM     23  C   UNL     1       6.933   4.995  15.172  0.00  0.00    +0.000 A 
ATOM     24  C   UNL     1       6.030   3.973  14.998  0.00  0.00    +0.000 A 
ATOM     25  O   UNL     1       5.452   3.646  16.183  0.00  0.00    +0.000 OA
ENDBRANCH  20  21
ENDBRANCH  19  20
ENDBRANCH  17  19
ENDBRANCH  10  17
TORSDOF 5
ENDMDL
