MODEL 1
REMARK VINA RESULT:      -7.5      0.000      0.000
REMARK  Name = 
REMARK  14 active torsions:
REMARK  status: ('A' for Active; 'I' for Inactive)
REMARK    1  A    between atoms: C_1  and  C_2
REMARK    2  A    between atoms: C_2  and  C_3
REMARK    3  A    between atoms: C_3  and  C_4
REMARK    4  A    between atoms: C_3  and  C_6
REMARK    5  A    between atoms: C_4  and  C_5
REMARK    6  A    between atoms: N_8  and  C_9
REMARK    7  A    between atoms: C_11  and  N_12
REMARK    8  A    between atoms: C_13  and  C_15
REMARK    9  A    between atoms: C_15  and  C_16
REMARK   10  A    between atoms: C_15  and  C_18
REMARK   11  A    between atoms: C_16  and  C_17
REMARK   12  A    between atoms: C_18  and  C_19
REMARK   13  A    between atoms: C_21  and  C_22
REMARK   14  A    between atoms: C_22  and  O_24
REMARK                            x       y       z     vdW  Elec       q    Type
REMARK                         _______ _______ _______ _____ _____    ______ ____
ROOT
ATOM      1  C   UNL     1       6.004   3.977  16.490  0.00  0.00    +0.000 A 
ATOM      2  C   UNL     1       4.861   3.750  17.271  0.00  0.00    +0.000 A 
ATOM      3  C   UNL     1       4.715   4.250  18.564  0.00  0.00    +0.000 A 
ATOM      4  C   UNL     1       5.751   5.017  19.094  0.00  0.00    +0.000 A 
ATOM      5  C   UNL     1       6.919   5.242  18.340  0.00  0.00    +0.000 A 
ATOM      6  C   UNL     1       7.059   4.700  17.050  0.00  0.00    +0.000 A 
ENDROOT
BRANCH   1   9
ATOM      7  C   UNL     1       5.762   4.179  14.033  0.00  0.00    +0.000 C 
ATOM      8  O   UNL     1       5.481   5.376  14.030  0.00  0.00    +0.000 OA
ATOM      9  N   UNL     1       6.112   3.463  15.173  0.00  0.00    +0.000 N 
ATOM     10  H   UNL     1       6.591   2.582  15.050  0.00  0.00    +0.000 HD
BRANCH   7  11
ATOM     11  C   UNL     1       5.785   3.393  12.714  0.00  0.00    +0.000 C 
BRANCH  11  13
ATOM     12  C   UNL     1       3.821   2.877  11.080  0.00  0.00    +0.000 C 
ATOM     13  C   UNL     1       4.626   3.924  11.828  0.00  0.00    +0.000 C 
ENDBRANCH  11  13
BRANCH  11  14
ATOM     14  C   UNL     1       7.163   3.446  12.038  0.00  0.00    +0.000 C 
ATOM     15  C   UNL     1       7.490   2.225  11.187  0.00  0.00    +0.000 C 
ENDBRANCH  11  14
ENDBRANCH   7  11
ENDBRANCH   1   9
BRANCH   3  16
ATOM     16  N   UNL     1       3.556   4.005  19.349  0.00  0.00    +0.000 N 
ATOM     17  C   UNL     1       2.400   4.777  19.358  0.00  0.00    +0.000 C 
ATOM     18  O   UNL     1       2.201   5.781  18.681  0.00  0.00    +0.000 OA
ATOM     19  H   UNL     1       3.553   3.151  19.899  0.00  0.00    +0.000 HD
BRANCH  17  20
ATOM     20  C   UNL     1       1.311   4.279  20.309  0.00  0.00    +0.000 C 
BRANCH  20  21
ATOM     21  C   UNL     1       0.624   3.023  19.738  0.00  0.00    +0.000 C 
ATOM     22  C   UNL     1       0.925   2.735  18.276  0.00  0.00    +0.000 C 
ENDBRANCH  20  21
BRANCH  20  23
ATOM     23  C   UNL     1       1.957   3.900  21.665  0.00  0.00    +0.000 C 
ATOM     24  C   UNL     1       1.844   2.419  22.002  0.00  0.00    +0.000 C 
ENDBRANCH  20  23
ENDBRANCH  17  20
ENDBRANCH   3  16
BRANCH   5  25
ATOM     25  C   UNL     1       8.002   6.031  18.979  0.00  0.00    +0.000 C 
ATOM     26  O   UNL     1       8.318   7.147  18.604  0.00  0.00    +0.000 OA
BRANCH  25  27
ATOM     27  O   UNL     1       8.628   5.389  19.987  0.00  0.00    +0.000 OA
ATOM     28  H   UNL     1       9.446   4.920  19.743  0.00  0.00    +0.000 HD
ENDBRANCH  25  27
ENDBRANCH   5  25
TORSDOF 10
ENDMDL
MODEL 2
REMARK VINA RESULT:      -7.4      3.706      6.127
REMARK  Name = 
REMARK  14 active torsions:
REMARK  status: ('A' for Active; 'I' for Inactive)
REMARK    1  A    between atoms: C_1  and  C_2
REMARK    2  A    between atoms: C_2  and  C_3
REMARK    3  A    between atoms: C_3  and  C_4
REMARK    4  A    between atoms: C_3  and  C_6
REMARK    5  A    between atoms: C_4  and  C_5
REMARK    6  A    between atoms: N_8  and  C_9
REMARK    7  A    between atoms: C_11  and  N_12
REMARK    8  A    between atoms: C_13  and  C_15
REMARK    9  A    between atoms: C_15  and  C_16
REMARK   10  A    between atoms: C_15  and  C_18
REMARK   11  A    between atoms: C_16  and  C_17
REMARK   12  A    between atoms: C_18  and  C_19
REMARK   13  A    between atoms: C_21  and  C_22
REMARK   14  A    between atoms: C_22  and  O_24
REMARK                            x       y       z     vdW  Elec       q    Type
REMARK                         _______ _______ _______ _____ _____    ______ ____
ROOT
ATOM      1  C   UNL     1       3.795   5.396  19.100  0.00  0.00    +0.000 A 
ATOM      2  C   UNL     1       3.240   6.608  19.538  0.00  0.00    +0.000 A 
ATOM      3  C   UNL     1       2.140   6.674  20.391  0.00  0.00    +0.000 A 
ATOM      4  C   UNL     1       1.578   5.477  20.832  0.00  0.00    +0.000 A 
ATOM      5  C   UNL     1       2.101   4.246  20.391  0.00  0.00    +0.000 A 
ATOM      6  C   UNL     1       3.192   4.204  19.504  0.00  0.00    +0.000 A 
ENDROOT
BRANCH   1   9
ATOM      7  C   UNL     1       6.239   5.388  18.695  0.00  0.00    +0.000 C 
ATOM      8  O   UNL     1       6.564   5.267  19.875  0.00  0.00    +0.000 OA
ATOM      9  N   UNL     1       4.924   5.369  18.242  0.00  0.00    +0.000 N 
ATOM     10  H   UNL     1       4.764   5.192  17.260  0.00  0.00    +0.000 HD
BRANCH   7  11
ATOM     11  C   UNL     1       7.319   5.529  17.612  0.00  0.00    +0.000 C 
BRANCH  11  13
ATOM     12  C   UNL     1       6.675   4.876  15.173  0.00  0.00    +0.000 C 
ATOM     13  C   UNL     1       7.082   4.413  16.560  0.00  0.00    +0.000 C 
ENDBRANCH  11  13
BRANCH  11  14
ATOM     14  C   UNL     1       7.358   6.947  17.021  0.00  0.00    +0.000 C 
ATOM     15  C   UNL     1       7.968   7.994  17.944  0.00  0.00    +0.000 C 
ENDBRANCH  11  14
ENDBRANCH   7  11
ENDBRANCH   1   9
BRANCH   3  16
ATOM     16  N   UNL     1       1.580   7.907  20.820  0.00  0.00    +0.000 N 
ATOM     17  C   UNL     1       1.264   8.986  20.002  0.00  0.00    +0.000 C 
ATOM     18  O   UNL     1       1.410   9.033  18.784  0.00  0.00    +0.000 OA
ATOM     19  H   UNL     1       1.329   7.974  21.802  0.00  0.00    +0.000 HD
BRANCH  17  20
ATOM     20  C   UNL     1       0.678  10.191  20.739  0.00  0.00    +0.000 C 
BRANCH  20  21
ATOM     21  C   UNL     1       0.183  11.252  19.736  0.00  0.00    +0.000 C 
ATOM     22  C   UNL     1      -1.311  11.221  19.456  0.00  0.00    +0.000 C 
ENDBRANCH  20  21
BRANCH  20  23
ATOM     23  C   UNL     1      -0.533   9.727  21.586  0.00  0.00    +0.000 C 
ATOM     24  C   UNL     1      -0.395  10.040  23.071  0.00  0.00    +0.000 C 
ENDBRANCH  20  23
ENDBRANCH  17  20
ENDBRANCH   3  16
BRANCH   5  25
ATOM     25  C   UNL     1       1.430   3.010  20.865  0.00  0.00    +0.000 C 
ATOM     26  O   UNL     1       1.736   2.446  21.901  0.00  0.00    +0.000 OA
BRANCH  25  27
ATOM     27  O   UNL     1       0.477   2.547  20.029  0.00  0.00    +0.000 OA
ATOM     28  H   UNL     1       0.064   1.704  20.288  0.00  0.00    +0.000 HD
ENDBRANCH  25  27
ENDBRANCH   5  25
TORSDOF 10
ENDMDL
MODEL 3
REMARK VINA RESULT:      -7.4      3.601      8.557
REMARK  Name = 
REMARK  14 active torsions:
REMARK  status: ('A' for Active; 'I' for Inactive)
REMARK    1  A    between atoms: C_1  and  C_2
REMARK    2  A    between atoms: C_2  and  C_3
REMARK    3  A    between atoms: C_3  and  C_4
REMARK    4  A    between atoms: C_3  and  C_6
REMARK    5  A    between atoms: C_4  and  C_5
REMARK    6  A    between atoms: N_8  and  C_9
REMARK    7  A    between atoms: C_11  and  N_12
REMARK    8  A    between atoms: C_13  and  C_15
REMARK    9  A    between atoms: C_15  and  C_16
REMARK   10  A    between atoms: C_15  and  C_18
REMARK   11  A    between atoms: C_16  and  C_17
REMARK   12  A    between atoms: C_18  and  C_19
REMARK   13  A    between atoms: C_21  and  C_22
REMARK   14  A    between atoms: C_22  and  O_24
REMARK                            x       y       z     vdW  Elec       q    Type
REMARK                         _______ _______ _______ _____ _____    ______ ____
ROOT
ATOM      1  C   UNL     1       2.074   6.228  20.215  0.00  0.00    +0.000 A 
ATOM      2  C   UNL     1       3.283   6.323  19.510  0.00  0.00    +0.000 A 
ATOM      3  C   UNL     1       3.796   5.281  18.739  0.00  0.00    +0.000 A 
ATOM      4  C   UNL     1       3.061   4.099  18.661  0.00  0.00    +0.000 A 
ATOM      5  C   UNL     1       1.855   3.968  19.375  0.00  0.00    +0.000 A 
ATOM      6  C   UNL     1       1.374   5.021  20.174  0.00  0.00    +0.000 A 
ENDROOT
BRANCH   1   9
ATOM      7  C   UNL     1       1.325   8.577  20.454  0.00  0.00    +0.000 C 
ATOM      8  O   UNL     1       1.347   8.841  19.253  0.00  0.00    +0.000 OA
ATOM      9  N   UNL     1       1.578   7.314  20.979  0.00  0.00    +0.000 N 
ATOM     10  H   UNL     1       1.268   7.124  21.922  0.00  0.00    +0.000 HD
BRANCH   7  11
ATOM     11  C   UNL     1       0.959   9.666  21.472  0.00  0.00    +0.000 C 
BRANCH  11  13
ATOM     12  C   UNL     1       1.167  12.136  20.666  0.00  0.00    +0.000 C 
ATOM     13  C   UNL     1       0.347  10.859  20.689  0.00  0.00    +0.000 C 
ENDBRANCH  11  13
BRANCH  11  14
ATOM     14  C   UNL     1       0.057   9.126  22.592  0.00  0.00    +0.000 C 
ATOM     15  C   UNL     1      -0.886  10.161  23.192  0.00  0.00    +0.000 C 
ENDBRANCH  11  14
ENDBRANCH   7  11
ENDBRANCH   1   9
BRANCH   3  16
ATOM     16  N   UNL     1       5.027   5.386  18.037  0.00  0.00    +0.000 N 
ATOM     17  C   UNL     1       6.295   5.336  18.605  0.00  0.00    +0.000 C 
ATOM     18  O   UNL     1       6.543   5.183  19.798  0.00  0.00    +0.000 OA
ATOM     19  H   UNL     1       4.969   5.433  17.024  0.00  0.00    +0.000 HD
BRANCH  17  20
ATOM     20  C   UNL     1       7.444   5.482  17.608  0.00  0.00    +0.000 C 
BRANCH  20  21
ATOM     21  C   UNL     1       7.335   4.422  16.494  0.00  0.00    +0.000 C 
ATOM     22  C   UNL     1       7.053   4.976  15.107  0.00  0.00    +0.000 C 
ENDBRANCH  20  21
BRANCH  20  23
ATOM     23  C   UNL     1       7.367   6.882  16.949  0.00  0.00    +0.000 C 
ATOM     24  C   UNL     1       7.934   7.998  17.817  0.00  0.00    +0.000 C 
ENDBRANCH  20  23
ENDBRANCH  17  20
ENDBRANCH   3  16
BRANCH   5  25
ATOM     25  C   UNL     1       1.144   2.668  19.283  0.00  0.00    +0.000 C 
ATOM     26  O   UNL     1      -0.042   2.543  19.532  0.00  0.00    +0.000 OA
BRANCH  25  27
ATOM     27  O   UNL     1       1.936   1.633  18.935  0.00  0.00    +0.000 OA
ATOM     28  H   UNL     1       1.761   1.245  18.060  0.00  0.00    +0.000 HD
ENDBRANCH  25  27
ENDBRANCH   5  25
TORSDOF 10
ENDMDL
MODEL 4
REMARK VINA RESULT:      -7.4      3.689      6.212
REMARK  Name = 
REMARK  14 active torsions:
REMARK  status: ('A' for Active; 'I' for Inactive)
REMARK    1  A    between atoms: C_1  and  C_2
REMARK    2  A    between atoms: C_2  and  C_3
REMARK    3  A    between atoms: C_3  and  C_4
REMARK    4  A    between atoms: C_3  and  C_6
REMARK    5  A    between atoms: C_4  and  C_5
REMARK    6  A    between atoms: N_8  and  C_9
REMARK    7  A    between atoms: C_11  and  N_12
REMARK    8  A    between atoms: C_13  and  C_15
REMARK    9  A    between atoms: C_15  and  C_16
REMARK   10  A    between atoms: C_15  and  C_18
REMARK   11  A    between atoms: C_16  and  C_17
REMARK   12  A    between atoms: C_18  and  C_19
REMARK   13  A    between atoms: C_21  and  C_22
REMARK   14  A    between atoms: C_22  and  O_24
REMARK                            x       y       z     vdW  Elec       q    Type
REMARK                         _______ _______ _______ _____ _____    ______ ____
ROOT
ATOM      1  C   UNL     1       3.883   5.289  19.119  0.00  0.00    +0.000 A 
ATOM      2  C   UNL     1       3.233   6.453  19.558  0.00  0.00    +0.000 A 
ATOM      3  C   UNL     1       2.122   6.430  20.399  0.00  0.00    +0.000 A 
ATOM      4  C   UNL     1       1.648   5.191  20.828  0.00  0.00    +0.000 A 
ATOM      5  C   UNL     1       2.268   4.006  20.386  0.00  0.00    +0.000 A 
ATOM      6  C   UNL     1       3.368   4.053  19.510  0.00  0.00    +0.000 A 
ENDROOT
BRANCH   1   9
ATOM      7  C   UNL     1       6.327   5.438  18.740  0.00  0.00    +0.000 C 
ATOM      8  O   UNL     1       6.648   5.303  19.920  0.00  0.00    +0.000 OA
ATOM      9  N   UNL     1       5.019   5.354  18.273  0.00  0.00    +0.000 N 
ATOM     10  H   UNL     1       4.880   5.196  17.285  0.00  0.00    +0.000 HD
BRANCH   7  11
ATOM     11  C   UNL     1       7.406   5.673  17.674  0.00  0.00    +0.000 C 
BRANCH  11  13
ATOM     12  C   UNL     1       6.942   4.947  15.215  0.00  0.00    +0.000 C 
ATOM     13  C   UNL     1       7.297   4.529  16.630  0.00  0.00    +0.000 C 
ENDBRANCH  11  13
BRANCH  11  14
ATOM     14  C   UNL     1       7.318   7.082  17.068  0.00  0.00    +0.000 C 
ATOM     15  C   UNL     1       7.989   8.166  17.902  0.00  0.00    +0.000 C 
ENDBRANCH  11  14
ENDBRANCH   7  11
ENDBRANCH   1   9
BRANCH   3  16
ATOM     16  N   UNL     1       1.466   7.614  20.828  0.00  0.00    +0.000 N 
ATOM     17  C   UNL     1       1.208   8.733  20.044  0.00  0.00    +0.000 C 
ATOM     18  O   UNL     1       1.499   8.862  18.858  0.00  0.00    +0.000 OA
ATOM     19  H   UNL     1       1.095   7.610  21.774  0.00  0.00    +0.000 HD
BRANCH  17  20
ATOM     20  C   UNL     1       0.490   9.869  20.773  0.00  0.00    +0.000 C 
BRANCH  20  21
ATOM     21  C   UNL     1       0.737   9.781  22.292  0.00  0.00    +0.000 C 
ATOM     22  C   UNL     1      -0.520   9.795  23.148  0.00  0.00    +0.000 C 
ENDBRANCH  20  21
BRANCH  20  23
ATOM     23  C   UNL     1       1.049  11.224  20.272  0.00  0.00    +0.000 C 
ATOM     24  C   UNL     1      -0.030  12.194  19.805  0.00  0.00    +0.000 C 
ENDBRANCH  20  23
ENDBRANCH  17  20
ENDBRANCH   3  16
BRANCH   5  25
ATOM     25  C   UNL     1       1.688   2.720  20.846  0.00  0.00    +0.000 C 
ATOM     26  O   UNL     1       1.515   2.455  22.023  0.00  0.00    +0.000 OA
BRANCH  25  27
ATOM     27  O   UNL     1       1.404   1.857  19.849  0.00  0.00    +0.000 OA
ATOM     28  H   UNL     1       1.061   2.259  19.031  0.00  0.00    +0.000 HD
ENDBRANCH  25  27
ENDBRANCH   5  25
TORSDOF 10
ENDMDL
MODEL 5
REMARK VINA RESULT:      -7.2      3.996      6.372
REMARK  Name = 
REMARK  14 active torsions:
REMARK  status: ('A' for Active; 'I' for Inactive)
REMARK    1  A    between atoms: C_1  and  C_2
REMARK    2  A    between atoms: C_2  and  C_3
REMARK    3  A    between atoms: C_3  and  C_4
REMARK    4  A    between atoms: C_3  and  C_6
REMARK    5  A    between atoms: C_4  and  C_5
REMARK    6  A    between atoms: N_8  and  C_9
REMARK    7  A    between atoms: C_11  and  N_12
REMARK    8  A    between atoms: C_13  and  C_15
REMARK    9  A    between atoms: C_15  and  C_16
REMARK   10  A    between atoms: C_15  and  C_18
REMARK   11  A    between atoms: C_16  and  C_17
REMARK   12  A    between atoms: C_18  and  C_19
REMARK   13  A    between atoms: C_21  and  C_22
REMARK   14  A    between atoms: C_22  and  O_24
REMARK                            x       y       z     vdW  Elec       q    Type
REMARK                         _______ _______ _______ _____ _____    ______ ____
ROOT
ATOM      1  C   UNL     1       3.698   5.841  19.176  0.00  0.00    +0.000 A 
ATOM      2  C   UNL     1       2.960   7.013  19.397  0.00  0.00    +0.000 A 
ATOM      3  C   UNL     1       1.819   7.052  20.196  0.00  0.00    +0.000 A 
ATOM      4  C   UNL     1       1.405   5.870  20.808  0.00  0.00    +0.000 A 
ATOM      5  C   UNL     1       2.114   4.674  20.587  0.00  0.00    +0.000 A 
ATOM      6  C   UNL     1       3.244   4.652  19.749  0.00  0.00    +0.000 A 
ENDROOT
BRANCH   1   9
ATOM      7  C   UNL     1       6.133   5.536  18.839  0.00  0.00    +0.000 C 
ATOM      8  O   UNL     1       6.361   5.077  19.957  0.00  0.00    +0.000 OA
ATOM      9  N   UNL     1       4.862   5.843  18.366  0.00  0.00    +0.000 N 
ATOM     10  H   UNL     1       4.741   5.943  17.368  0.00  0.00    +0.000 HD
BRANCH   7  11
ATOM     11  C   UNL     1       7.289   5.763  17.854  0.00  0.00    +0.000 C 
BRANCH  11  13
ATOM     12  C   UNL     1       6.974   4.643  15.522  0.00  0.00    +0.000 C 
ATOM     13  C   UNL     1       6.686   5.829  16.425  0.00  0.00    +0.000 C 
ENDBRANCH  11  13
BRANCH  11  14
ATOM     14  C   UNL     1       8.134   6.988  18.232  0.00  0.00    +0.000 C 
ATOM     15  C   UNL     1       7.693   8.284  17.564  0.00  0.00    +0.000 C 
ENDBRANCH  11  14
ENDBRANCH   7  11
ENDBRANCH   1   9
BRANCH   3  16
ATOM     16  N   UNL     1       1.074   8.244  20.405  0.00  0.00    +0.000 N 
ATOM     17  C   UNL     1       1.152   9.068  21.521  0.00  0.00    +0.000 C 
ATOM     18  O   UNL     1       1.884   8.898  22.492  0.00  0.00    +0.000 OA
ATOM     19  H   UNL     1       0.485   8.550  19.636  0.00  0.00    +0.000 HD
BRANCH  17  20
ATOM     20  C   UNL     1       0.227  10.285  21.479  0.00  0.00    +0.000 C 
BRANCH  20  21
ATOM     21  C   UNL     1      -0.671  10.241  20.227  0.00  0.00    +0.000 C 
ATOM     22  C   UNL     1      -0.554  11.448  19.310  0.00  0.00    +0.000 C 
ENDBRANCH  20  21
BRANCH  20  23
ATOM     23  C   UNL     1      -0.688  10.268  22.728  0.00  0.00    +0.000 C 
ATOM     24  C   UNL     1      -1.367  11.604  23.005  0.00  0.00    +0.000 C 
ENDBRANCH  20  23
ENDBRANCH  17  20
ENDBRANCH   3  16
BRANCH   5  25
ATOM     25  C   UNL     1       1.596   3.442  21.234  0.00  0.00    +0.000 C 
ATOM     26  O   UNL     1       2.124   2.934  22.207  0.00  0.00    +0.000 OA
BRANCH  25  27
ATOM     27  O   UNL     1       0.512   2.917  20.626  0.00  0.00    +0.000 OA
ATOM     28  H   UNL     1       0.667   2.098  20.124  0.00  0.00    +0.000 HD
ENDBRANCH  25  27
ENDBRANCH   5  25
TORSDOF 10
ENDMDL
MODEL 6
REMARK VINA RESULT:      -7.2      1.020      1.697
REMARK  Name = 
REMARK  14 active torsions:
REMARK  status: ('A' for Active; 'I' for Inactive)
REMARK    1  A    between atoms: C_1  and  C_2
REMARK    2  A    between atoms: C_2  and  C_3
REMARK    3  A    between atoms: C_3  and  C_4
REMARK    4  A    between atoms: C_3  and  C_6
REMARK    5  A    between atoms: C_4  and  C_5
REMARK    6  A    between atoms: N_8  and  C_9
REMARK    7  A    between atoms: C_11  and  N_12
REMARK    8  A    between atoms: C_13  and  C_15
REMARK    9  A    between atoms: C_15  and  C_16
REMARK   10  A    between atoms: C_15  and  C_18
REMARK   11  A    between atoms: C_16  and  C_17
REMARK   12  A    between atoms: C_18  and  C_19
REMARK   13  A    between atoms: C_21  and  C_22
REMARK   14  A    between atoms: C_22  and  O_24
REMARK                            x       y       z     vdW  Elec       q    Type
REMARK                         _______ _______ _______ _____ _____    ______ ____
ROOT
ATOM      1  C   UNL     1       5.573   5.228  16.215  0.00  0.00    +0.000 A 
ATOM      2  C   UNL     1       4.523   4.800  17.042  0.00  0.00    +0.000 A 
ATOM      3  C   UNL     1       4.564   4.895  18.432  0.00  0.00    +0.000 A 
ATOM      4  C   UNL     1       5.700   5.451  19.019  0.00  0.00    +0.000 A 
ATOM      5  C   UNL     1       6.778   5.868  18.215  0.00  0.00    +0.000 A 
ATOM      6  C   UNL     1       6.728   5.732  16.815  0.00  0.00    +0.000 A 
ENDROOT
BRANCH   1   9
ATOM      7  C   UNL     1       5.926   4.020  14.081  0.00  0.00    +0.000 C 
ATOM      8  O   UNL     1       6.278   2.958  14.592  0.00  0.00    +0.000 OA
ATOM      9  N   UNL     1       5.489   5.126  14.804  0.00  0.00    +0.000 N 
ATOM     10  H   UNL     1       4.964   5.835  14.311  0.00  0.00    +0.000 HD
BRANCH   7  11
ATOM     11  C   UNL     1       5.912   4.169  12.553  0.00  0.00    +0.000 C 
BRANCH  11  13
ATOM     12  C   UNL     1       8.117   5.541  12.765  0.00  0.00    +0.000 C 
ATOM     13  C   UNL     1       7.373   4.404  12.087  0.00  0.00    +0.000 C 
ENDBRANCH  11  13
BRANCH  11  14
ATOM     14  C   UNL     1       5.221   2.980  11.867  0.00  0.00    +0.000 C 
ATOM     15  C   UNL     1       3.916   3.333  11.166  0.00  0.00    +0.000 C 
ENDBRANCH  11  14
ENDBRANCH   7  11
ENDBRANCH   1   9
BRANCH   3  16
ATOM     16  N   UNL     1       3.498   4.450  19.258  0.00  0.00    +0.000 N 
ATOM     17  C   UNL     1       2.184   4.899  19.206  0.00  0.00    +0.000 C 
ATOM     18  O   UNL     1       1.742   5.742  18.429  0.00  0.00    +0.000 OA
ATOM     19  H   UNL     1       3.707   3.687  19.896  0.00  0.00    +0.000 HD
BRANCH  17  20
ATOM     20  C   UNL     1       1.248   4.246  20.223  0.00  0.00    +0.000 C 
BRANCH  20  21
ATOM     21  C   UNL     1       0.500   3.058  19.587  0.00  0.00    +0.000 C 
ATOM     22  C   UNL     1       1.274   2.313  18.512  0.00  0.00    +0.000 C 
ENDBRANCH  20  21
BRANCH  20  23
ATOM     23  C   UNL     1       2.085   3.708  21.409  0.00  0.00    +0.000 C 
ATOM     24  C   UNL     1       1.528   2.428  22.020  0.00  0.00    +0.000 C 
ENDBRANCH  20  23
ENDBRANCH  17  20
ENDBRANCH   3  16
BRANCH   5  25
ATOM     25  C   UNL     1       7.974   6.412  18.905  0.00  0.00    +0.000 C 
ATOM     26  O   UNL     1       8.471   7.488  18.621  0.00  0.00    +0.000 OA
BRANCH  25  27
ATOM     27  O   UNL     1       8.483   5.593  19.849  0.00  0.00    +0.000 OA
ATOM     28  H   UNL     1       8.055   5.642  20.723  0.00  0.00    +0.000 HD
ENDBRANCH  25  27
ENDBRANCH   5  25
TORSDOF 10
ENDMDL
MODEL 7
REMARK VINA RESULT:      -7.2      3.727      8.434
REMARK  Name = 
REMARK  14 active torsions:
REMARK  status: ('A' for Active; 'I' for Inactive)
REMARK    1  A    between atoms: C_1  and  C_2
REMARK    2  A    between atoms: C_2  and  C_3
REMARK    3  A    between atoms: C_3  and  C_4
REMARK    4  A    between atoms: C_3  and  C_6
REMARK    5  A    between atoms: C_4  and  C_5
REMARK    6  A    between atoms: N_8  and  C_9
REMARK    7  A    between atoms: C_11  and  N_12
REMARK    8  A    between atoms: C_13  and  C_15
REMARK    9  A    between atoms: C_15  and  C_16
REMARK   10  A    between atoms: C_15  and  C_18
REMARK   11  A    between atoms: C_16  and  C_17
REMARK   12  A    between atoms: C_18  and  C_19
REMARK   13  A    between atoms: C_21  and  C_22
REMARK   14  A    between atoms: C_22  and  O_24
REMARK                            x       y       z     vdW  Elec       q    Type
REMARK                         _______ _______ _______ _____ _____    ______ ____
ROOT
ATOM      1  C   UNL     1       2.004   6.488  20.420  0.00  0.00    +0.000 A 
ATOM      2  C   UNL     1       3.156   6.574  19.624  0.00  0.00    +0.000 A 
ATOM      3  C   UNL     1       3.840   5.454  19.155  0.00  0.00    +0.000 A 
ATOM      4  C   UNL     1       3.344   4.195  19.486  0.00  0.00    +0.000 A 
ATOM      5  C   UNL     1       2.201   4.078  20.301  0.00  0.00    +0.000 A 
ATOM      6  C   UNL     1       1.546   5.223  20.791  0.00  0.00    +0.000 A 
ENDROOT
BRANCH   1   9
ATOM      7  C   UNL     1       1.169   8.798  20.097  0.00  0.00    +0.000 C 
ATOM      8  O   UNL     1       1.449   8.869  18.902  0.00  0.00    +0.000 OA
ATOM      9  N   UNL     1       1.328   7.651  20.868  0.00  0.00    +0.000 N 
ATOM     10  H   UNL     1       0.823   7.594  21.741  0.00  0.00    +0.000 HD
BRANCH   7  11
ATOM     11  C   UNL     1       0.564  10.011  20.817  0.00  0.00    +0.000 C 
BRANCH  11  13
ATOM     12  C   UNL     1      -0.610   9.951  23.143  0.00  0.00    +0.000 C 
ATOM     13  C   UNL     1       0.666   9.754  22.345  0.00  0.00    +0.000 C 
ENDBRANCH  11  13
BRANCH  11  14
ATOM     14  C   UNL     1       1.207  11.329  20.361  0.00  0.00    +0.000 C 
ATOM     15  C   UNL     1       0.234  12.316  19.728  0.00  0.00    +0.000 C 
ENDBRANCH  11  14
ENDBRANCH   7  11
ENDBRANCH   1   9
BRANCH   3  16
ATOM     16  N   UNL     1       5.012   5.555  18.358  0.00  0.00    +0.000 N 
ATOM     17  C   UNL     1       6.321   5.468  18.819  0.00  0.00    +0.000 C 
ATOM     18  O   UNL     1       6.662   5.280  19.984  0.00  0.00    +0.000 OA
ATOM     19  H   UNL     1       4.873   5.629  17.355  0.00  0.00    +0.000 HD
BRANCH  17  20
ATOM     20  C   UNL     1       7.388   5.619  17.736  0.00  0.00    +0.000 C 
BRANCH  20  21
ATOM     21  C   UNL     1       7.249   4.507  16.677  0.00  0.00    +0.000 C 
ATOM     22  C   UNL     1       7.015   4.998  15.257  0.00  0.00    +0.000 C 
ENDBRANCH  20  21
BRANCH  20  23
ATOM     23  C   UNL     1       7.200   6.984  17.027  0.00  0.00    +0.000 C 
ATOM     24  C   UNL     1       7.876   8.144  17.748  0.00  0.00    +0.000 C 
ENDBRANCH  20  23
ENDBRANCH  17  20
ENDBRANCH   3  16
BRANCH   5  25
ATOM     25  C   UNL     1       1.749   2.708  20.651  0.00  0.00    +0.000 C 
ATOM     26  O   UNL     1       1.496   1.860  19.814  0.00  0.00    +0.000 OA
BRANCH  25  27
ATOM     27  O   UNL     1       1.610   2.498  21.977  0.00  0.00    +0.000 OA
ATOM     28  H   UNL     1       2.295   1.943  22.389  0.00  0.00    +0.000 HD
ENDBRANCH  25  27
ENDBRANCH   5  25
TORSDOF 10
ENDMDL
MODEL 8
REMARK VINA RESULT:      -7.2      3.994      8.310
REMARK  Name = 
REMARK  14 active torsions:
REMARK  status: ('A' for Active; 'I' for Inactive)
REMARK    1  A    between atoms: C_1  and  C_2
REMARK    2  A    between atoms: C_2  and  C_3
REMARK    3  A    between atoms: C_3  and  C_4
REMARK    4  A    between atoms: C_3  and  C_6
REMARK    5  A    between atoms: C_4  and  C_5
REMARK    6  A    between atoms: N_8  and  C_9
REMARK    7  A    between atoms: C_11  and  N_12
REMARK    8  A    between atoms: C_13  and  C_15
REMARK    9  A    between atoms: C_15  and  C_16
REMARK   10  A    between atoms: C_15  and  C_18
REMARK   11  A    between atoms: C_16  and  C_17
REMARK   12  A    between atoms: C_18  and  C_19
REMARK   13  A    between atoms: C_21  and  C_22
REMARK   14  A    between atoms: C_22  and  O_24
REMARK                            x       y       z     vdW  Elec       q    Type
REMARK                         _______ _______ _______ _____ _____    ______ ____
ROOT
ATOM      1  C   UNL     1       2.009   7.147  20.110  0.00  0.00    +0.000 A 
ATOM      2  C   UNL     1       3.141   7.015  19.291  0.00  0.00    +0.000 A 
ATOM      3  C   UNL     1       3.768   5.793  19.054  0.00  0.00    +0.000 A 
ATOM      4  C   UNL     1       3.233   4.653  19.652  0.00  0.00    +0.000 A 
ATOM      5  C   UNL     1       2.110   4.759  20.496  0.00  0.00    +0.000 A 
ATOM      6  C   UNL     1       1.515   6.008  20.748  0.00  0.00    +0.000 A 
ENDROOT
BRANCH   1   9
ATOM      7  C   UNL     1       1.115   9.308  19.295  0.00  0.00    +0.000 C 
ATOM      8  O   UNL     1       1.224   9.049  18.098  0.00  0.00    +0.000 OA
ATOM      9  N   UNL     1       1.392   8.406  20.317  0.00  0.00    +0.000 N 
ATOM     10  H   UNL     1       1.014   8.599  21.234  0.00  0.00    +0.000 HD
BRANCH   7  11
ATOM     11  C   UNL     1       0.604  10.687  19.738  0.00  0.00    +0.000 C 
BRANCH  11  13
ATOM     12  C   UNL     1      -0.473  11.567  21.942  0.00  0.00    +0.000 C 
ATOM     13  C   UNL     1       0.600  10.713  21.290  0.00  0.00    +0.000 C 
ENDBRANCH  11  13
BRANCH  11  14
ATOM     14  C   UNL     1       1.405  11.830  19.097  0.00  0.00    +0.000 C 
ATOM     15  C   UNL     1       0.554  12.990  18.599  0.00  0.00    +0.000 C 
ENDBRANCH  11  14
ENDBRANCH   7  11
ENDBRANCH   1   9
BRANCH   3  16
ATOM     16  N   UNL     1       4.919   5.673  18.230  0.00  0.00    +0.000 N 
ATOM     17  C   UNL     1       6.218   5.454  18.673  0.00  0.00    +0.000 C 
ATOM     18  O   UNL     1       6.566   5.319  19.844  0.00  0.00    +0.000 OA
ATOM     19  H   UNL     1       4.762   5.682  17.227  0.00  0.00    +0.000 HD
BRANCH  17  20
ATOM     20  C   UNL     1       7.265   5.375  17.562  0.00  0.00    +0.000 C 
BRANCH  20  21
ATOM     21  C   UNL     1       6.861   4.322  16.510  0.00  0.00    +0.000 C 
ATOM     22  C   UNL     1       6.956   4.789  15.066  0.00  0.00    +0.000 C 
ENDBRANCH  20  21
BRANCH  20  23
ATOM     23  C   UNL     1       7.357   6.750  16.855  0.00  0.00    +0.000 C 
ATOM     24  C   UNL     1       7.854   7.870  17.761  0.00  0.00    +0.000 C 
ENDBRANCH  20  23
ENDBRANCH  17  20
ENDBRANCH   3  16
BRANCH   5  25
ATOM     25  C   UNL     1       1.617   3.514  21.136  0.00  0.00    +0.000 C 
ATOM     26  O   UNL     1       2.153   3.012  22.108  0.00  0.00    +0.000 OA
BRANCH  25  27
ATOM     27  O   UNL     1       0.546   2.968  20.523  0.00  0.00    +0.000 OA
ATOM     28  H   UNL     1       0.332   3.334  19.646  0.00  0.00    +0.000 HD
ENDBRANCH  25  27
ENDBRANCH   5  25
TORSDOF 10
ENDMDL
MODEL 9
REMARK VINA RESULT:      -7.2      0.574      1.371
REMARK  Name = 
REMARK  14 active torsions:
REMARK  status: ('A' for Active; 'I' for Inactive)
REMARK    1  A    between atoms: C_1  and  C_2
REMARK    2  A    between atoms: C_2  and  C_3
REMARK    3  A    between atoms: C_3  and  C_4
REMARK    4  A    between atoms: C_3  and  C_6
REMARK    5  A    between atoms: C_4  and  C_5
REMARK    6  A    between atoms: N_8  and  C_9
REMARK    7  A    between atoms: C_11  and  N_12
REMARK    8  A    between atoms: C_13  and  C_15
REMARK    9  A    between atoms: C_15  and  C_16
REMARK   10  A    between atoms: C_15  and  C_18
REMARK   11  A    between atoms: C_16  and  C_17
REMARK   12  A    between atoms: C_18  and  C_19
REMARK   13  A    between atoms: C_21  and  C_22
REMARK   14  A    between atoms: C_22  and  O_24
REMARK                            x       y       z     vdW  Elec       q    Type
REMARK                         _______ _______ _______ _____ _____    ______ ____
ROOT
ATOM      1  C   UNL     1       5.742   4.194  16.136  0.00  0.00    +0.000 A 
ATOM      2  C   UNL     1       4.658   3.896  16.975  0.00  0.00    +0.000 A 
ATOM      3  C   UNL     1       4.587   4.316  18.302  0.00  0.00    +0.000 A 
ATOM      4  C   UNL     1       5.641   5.076  18.808  0.00  0.00    +0.000 A 
ATOM      5  C   UNL     1       6.752   5.372  17.995  0.00  0.00    +0.000 A 
ATOM      6  C   UNL     1       6.817   4.908  16.668  0.00  0.00    +0.000 A 
ENDROOT
BRANCH   1   9
ATOM      7  C   UNL     1       6.457   4.426  13.775  0.00  0.00    +0.000 C 
ATOM      8  O   UNL     1       7.233   5.360  13.968  0.00  0.00    +0.000 OA
ATOM      9  N   UNL     1       5.772   3.759  14.787  0.00  0.00    +0.000 N 
ATOM     10  H   UNL     1       5.389   2.849  14.577  0.00  0.00    +0.000 HD
BRANCH   7  11
ATOM     11  C   UNL     1       6.228   3.900  12.351  0.00  0.00    +0.000 C 
BRANCH  11  13
ATOM     12  C   UNL     1       7.310   1.859  11.144  0.00  0.00    +0.000 C 
ATOM     13  C   UNL     1       7.516   3.153  11.911  0.00  0.00    +0.000 C 
ENDBRANCH  11  13
BRANCH  11  14
ATOM     14  C   UNL     1       4.950   3.054  12.250  0.00  0.00    +0.000 C 
ATOM     15  C   UNL     1       4.046   3.422  11.080  0.00  0.00    +0.000 C 
ENDBRANCH  11  14
ENDBRANCH   7  11
ENDBRANCH   1   9
BRANCH   3  16
ATOM     16  N   UNL     1       3.488   3.999  19.144  0.00  0.00    +0.000 N 
ATOM     17  C   UNL     1       2.386   4.811  19.386  0.00  0.00    +0.000 C 
ATOM     18  O   UNL     1       2.190   5.921  18.898  0.00  0.00    +0.000 OA
ATOM     19  H   UNL     1       3.481   3.068  19.549  0.00  0.00    +0.000 HD
BRANCH  17  20
ATOM     20  C   UNL     1       1.355   4.215  20.344  0.00  0.00    +0.000 C 
BRANCH  20  21
ATOM     21  C   UNL     1       0.708   2.957  19.733  0.00  0.00    +0.000 C 
ATOM     22  C   UNL     1       0.754   2.885  18.214  0.00  0.00    +0.000 C 
ENDBRANCH  20  21
BRANCH  20  23
ATOM     23  C   UNL     1       2.065   3.801  21.657  0.00  0.00    +0.000 C 
ATOM     24  C   UNL     1       2.102   2.295  21.883  0.00  0.00    +0.000 C 
ENDBRANCH  20  23
ENDBRANCH  17  20
ENDBRANCH   3  16
BRANCH   5  25
ATOM     25  C   UNL     1       7.859   6.148  18.607  0.00  0.00    +0.000 C 
ATOM     26  O   UNL     1       8.204   7.243  18.199  0.00  0.00    +0.000 OA
BRANCH  25  27
ATOM     27  O   UNL     1       8.471   5.517  19.631  0.00  0.00    +0.000 OA
ATOM     28  H   UNL     1       7.920   4.886  20.126  0.00  0.00    +0.000 HD
ENDBRANCH  25  27
ENDBRANCH   5  25
TORSDOF 10
ENDMDL
