MODEL 1
REMARK VINA RESULT:      -9.5      0.000      0.000
REMARK  Name = 
REMARK  7 active torsions:
REMARK  status: ('A' for Active; 'I' for Inactive)
REMARK    1  A    between atoms: C_1  and  C_2
REMARK    2  A    between atoms: C_4  and  C_5
REMARK    3  A    between atoms: C_7  and  N_8
REMARK    4  A    between atoms: N_10  and  C_11
REMARK    5  A    between atoms: C_11  and  C_12
REMARK    6  A    between atoms: C_12  and  C_13
REMARK    7  A    between atoms: N_25  and  C_26
REMARK                            x       y       z     vdW  Elec       q    Type
REMARK                         _______ _______ _______ _____ _____    ______ ____
ROOT
ATOM      1  N   UNL     1       2.442   6.235  18.784  0.00  0.00    +0.000 NA
ATOM      2  C   UNL     1       3.386   6.724  18.064  0.00  0.00    +0.000 C 
ATOM      3  N   UNL     1       4.544   6.144  17.609  0.00  0.00    +0.000 N 
ATOM      4  N   UNL     1       3.197   8.041  17.663  0.00  0.00    +0.000 N 
ATOM      5  C   UNL     1       2.279   9.001  18.029  0.00  0.00    +0.000 C 
ATOM      6  O   UNL     1       2.195  10.010  17.329  0.00  0.00    +0.000 OA
ATOM      7  N   UNL     1       1.624   8.772  19.214  0.00  0.00    +0.000 N 
ATOM      8  H   UNL     1       4.716   5.240  18.061  0.00  0.00    +0.000 HD
ATOM      9  H   UNL     1       3.729   8.329  16.859  0.00  0.00    +0.000 HD
ATOM     10  H   UNL     1       1.859   7.882  19.652  0.00  0.00    +0.000 HD
ENDROOT
BRANCH   1  17
ATOM     11  C   UNL     1       2.951   1.844  17.270  0.00  0.00    +0.000 C 
ATOM     12  C   UNL     1       2.543   2.755  18.388  0.00  0.00    +0.000 A 
ATOM     13  C   UNL     1       2.222   2.266  19.635  0.00  0.00    +0.000 A 
ATOM     14  C   UNL     1       1.922   3.201  20.612  0.00  0.00    +0.000 A 
ATOM     15  C   UNL     1       1.487   2.730  21.970  0.00  0.00    +0.000 C 
ATOM     16  N   UNL     1       1.953   4.538  20.391  0.00  0.00    +0.000 NA
ATOM     17  C   UNL     1       2.288   4.907  19.147  0.00  0.00    +0.000 A 
ATOM     18  N   UNL     1       2.569   4.072  18.132  0.00  0.00    +0.000 NA
ENDBRANCH   1  17
BRANCH   7  19
ATOM     19  C   UNL     1       0.775   9.658  19.896  0.00  0.00    +0.000 A 
ATOM     20  C   UNL     1       0.880   9.896  21.267  0.00  0.00    +0.000 A 
ATOM     21  C   UNL     1      -0.031  10.734  21.916  0.00  0.00    +0.000 A 
ATOM     22  C   UNL     1      -1.064  11.334  21.200  0.00  0.00    +0.000 A 
ATOM     23 CL   UNL     1      -2.186  12.311  22.077  0.00  0.00    +0.000 Cl
ATOM     24  C   UNL     1      -1.161  11.123  19.820  0.00  0.00    +0.000 A 
ATOM     25 CL   UNL     1      -2.423  11.826  18.870  0.00  0.00    +0.000 Cl
ATOM     26  C   UNL     1      -0.230  10.303  19.167  0.00  0.00    +0.000 A 
ENDBRANCH   7  19
BRANCH   3  27
ATOM     27  C   UNL     1       5.749   6.944  17.348  0.00  0.00    +0.000 C 
BRANCH  27  28
ATOM     28  C   UNL     1       6.949   6.137  16.849  0.00  0.00    +0.000 C 
BRANCH  28  29
ATOM     29  C   UNL     1       6.565   5.009  15.944  0.00  0.00    +0.000 A 
ATOM     30  C   UNL     1       5.840   3.881  16.282  0.00  0.00    +0.000 A 
ATOM     31  N   UNL     1       5.612   3.162  15.140  0.00  0.00    +0.000 N 
ATOM     32  C   UNL     1       6.248   3.750  14.074  0.00  0.00    +0.000 A 
ATOM     33  C   UNL     1       6.303   3.363  12.731  0.00  0.00    +0.000 A 
ATOM     34  C   UNL     1       7.076   4.142  11.865  0.00  0.00    +0.000 A 
ATOM     35  C   UNL     1       7.757   5.266  12.321  0.00  0.00    +0.000 A 
ATOM     36  C   UNL     1       7.662   5.658  13.662  0.00  0.00    +0.000 A 
ATOM     37  C   UNL     1       6.890   4.891  14.556  0.00  0.00    +0.000 A 
ATOM     38  H   UNL     1       5.067   2.312  15.085  0.00  0.00    +0.000 HD
ENDBRANCH  28  29
ENDBRANCH  27  28
ENDBRANCH   3  27
TORSDOF 5
ENDMDL
MODEL 2
REMARK VINA RESULT:      -9.4      0.617      1.209
REMARK  Name = 
REMARK  7 active torsions:
REMARK  status: ('A' for Active; 'I' for Inactive)
REMARK    1  A    between atoms: C_1  and  C_2
REMARK    2  A    between atoms: C_4  and  C_5
REMARK    3  A    between atoms: C_7  and  N_8
REMARK    4  A    between atoms: N_10  and  C_11
REMARK    5  A    between atoms: C_11  and  C_12
REMARK    6  A    between atoms: C_12  and  C_13
REMARK    7  A    between atoms: N_25  and  C_26
REMARK                            x       y       z     vdW  Elec       q    Type
REMARK                         _______ _______ _______ _____ _____    ______ ____
ROOT
ATOM      1  N   UNL     1       2.459   6.206  18.750  0.00  0.00    +0.000 NA
ATOM      2  C   UNL     1       3.418   6.682  18.042  0.00  0.00    +0.000 C 
ATOM      3  N   UNL     1       4.590   6.097  17.629  0.00  0.00    +0.000 N 
ATOM      4  N   UNL     1       3.234   7.989  17.606  0.00  0.00    +0.000 N 
ATOM      5  C   UNL     1       2.303   8.953  17.927  0.00  0.00    +0.000 C 
ATOM      6  O   UNL     1       2.232   9.944  17.202  0.00  0.00    +0.000 OA
ATOM      7  N   UNL     1       1.620   8.748  19.101  0.00  0.00    +0.000 N 
ATOM      8  H   UNL     1       4.754   5.204  18.105  0.00  0.00    +0.000 HD
ATOM      9  H   UNL     1       3.784   8.260  16.809  0.00  0.00    +0.000 HD
ATOM     10  H   UNL     1       1.849   7.869  19.565  0.00  0.00    +0.000 HD
ENDROOT
BRANCH   1  17
ATOM     11  C   UNL     1       3.081   1.783  17.376  0.00  0.00    +0.000 C 
ATOM     12  C   UNL     1       2.612   2.718  18.449  0.00  0.00    +0.000 A 
ATOM     13  C   UNL     1       2.239   2.257  19.693  0.00  0.00    +0.000 A 
ATOM     14  C   UNL     1       1.886   3.214  20.631  0.00  0.00    +0.000 A 
ATOM     15  C   UNL     1       1.394   2.773  21.980  0.00  0.00    +0.000 C 
ATOM     16  N   UNL     1       1.914   4.544  20.377  0.00  0.00    +0.000 NA
ATOM     17  C   UNL     1       2.302   4.886  19.140  0.00  0.00    +0.000 A 
ATOM     18  N   UNL     1       2.637   4.028  18.161  0.00  0.00    +0.000 NA
ENDBRANCH   1  17
BRANCH   7  19
ATOM     19  C   UNL     1       0.752   9.646  19.741  0.00  0.00    +0.000 A 
ATOM     20  C   UNL     1       0.222  10.767  19.101  0.00  0.00    +0.000 A 
ATOM     21  C   UNL     1      -0.584  11.671  19.798  0.00  0.00    +0.000 A 
ATOM     22  C   UNL     1      -0.859  11.466  21.149  0.00  0.00    +0.000 A 
ATOM     23 CL   UNL     1      -1.815  12.654  21.961  0.00  0.00    +0.000 Cl
ATOM     24  C   UNL     1      -0.355  10.330  21.792  0.00  0.00    +0.000 A 
ATOM     25 CL   UNL     1      -0.647  10.019  23.467  0.00  0.00    +0.000 Cl
ATOM     26  C   UNL     1       0.432   9.412  21.083  0.00  0.00    +0.000 A 
ENDBRANCH   7  19
BRANCH   3  27
ATOM     27  C   UNL     1       5.798   6.896  17.379  0.00  0.00    +0.000 C 
BRANCH  27  28
ATOM     28  C   UNL     1       6.996   6.091  16.875  0.00  0.00    +0.000 C 
BRANCH  28  29
ATOM     29  C   UNL     1       6.613   4.979  15.949  0.00  0.00    +0.000 A 
ATOM     30  C   UNL     1       5.894   3.842  16.268  0.00  0.00    +0.000 A 
ATOM     31  N   UNL     1       5.663   3.145  15.113  0.00  0.00    +0.000 N 
ATOM     32  C   UNL     1       6.291   3.757  14.056  0.00  0.00    +0.000 A 
ATOM     33  C   UNL     1       6.341   3.397  12.705  0.00  0.00    +0.000 A 
ATOM     34  C   UNL     1       7.106   4.196  11.851  0.00  0.00    +0.000 A 
ATOM     35  C   UNL     1       7.785   5.314  12.325  0.00  0.00    +0.000 A 
ATOM     36  C   UNL     1       7.695   5.679  13.674  0.00  0.00    +0.000 A 
ATOM     37  C   UNL     1       6.930   4.890  14.557  0.00  0.00    +0.000 A 
ATOM     38  H   UNL     1       5.121   2.294  15.044  0.00  0.00    +0.000 HD
ENDBRANCH  28  29
ENDBRANCH  27  28
ENDBRANCH   3  27
TORSDOF 5
ENDMDL
MODEL 3
REMARK VINA RESULT:      -9.4      3.438      6.760
REMARK  Name = 
REMARK  7 active torsions:
REMARK  status: ('A' for Active; 'I' for Inactive)
REMARK    1  A    between atoms: C_1  and  C_2
REMARK    2  A    between atoms: C_4  and  C_5
REMARK    3  A    between atoms: C_7  and  N_8
REMARK    4  A    between atoms: N_10  and  C_11
REMARK    5  A    between atoms: C_11  and  C_12
REMARK    6  A    between atoms: C_12  and  C_13
REMARK    7  A    between atoms: N_25  and  C_26
REMARK                            x       y       z     vdW  Elec       q    Type
REMARK                         _______ _______ _______ _____ _____    ______ ____
ROOT
ATOM      1  N   UNL     1      -1.287  11.434  18.667  0.00  0.00    +0.000 NA
ATOM      2  C   UNL     1      -0.114  10.917  18.721  0.00  0.00    +0.000 C 
ATOM      3  N   UNL     1       0.439   9.895  17.988  0.00  0.00    +0.000 N 
ATOM      4  N   UNL     1       0.740  11.495  19.652  0.00  0.00    +0.000 N 
ATOM      5  C   UNL     1       0.532  12.403  20.667  0.00  0.00    +0.000 C 
ATOM      6  O   UNL     1       1.520  12.926  21.180  0.00  0.00    +0.000 OA
ATOM      7  N   UNL     1      -0.772  12.548  21.072  0.00  0.00    +0.000 N 
ATOM      8  H   UNL     1      -0.270   9.399  17.438  0.00  0.00    +0.000 HD
ATOM      9  H   UNL     1       1.722  11.344  19.491  0.00  0.00    +0.000 HD
ATOM     10  H   UNL     1      -1.438  12.000  20.528  0.00  0.00    +0.000 HD
ENDROOT
BRANCH   1  17
ATOM     11  C   UNL     1      -5.795  12.073  17.617  0.00  0.00    +0.000 C 
ATOM     12  C   UNL     1      -4.472  11.502  17.207  0.00  0.00    +0.000 A 
ATOM     13  C   UNL     1      -4.280  10.954  15.958  0.00  0.00    +0.000 A 
ATOM     14  C   UNL     1      -3.000  10.514  15.660  0.00  0.00    +0.000 A 
ATOM     15  C   UNL     1      -2.744   9.835  14.346  0.00  0.00    +0.000 C 
ATOM     16  N   UNL     1      -1.962  10.622  16.524  0.00  0.00    +0.000 NA
ATOM     17  C   UNL     1      -2.254  11.181  17.708  0.00  0.00    +0.000 A 
ATOM     18  N   UNL     1      -3.469  11.611  18.091  0.00  0.00    +0.000 NA
ENDBRANCH   1  17
BRANCH   7  19
ATOM     19  C   UNL     1      -1.237  13.269  22.183  0.00  0.00    +0.000 A 
ATOM     20  C   UNL     1      -0.600  14.416  22.657  0.00  0.00    +0.000 A 
ATOM     21  C   UNL     1      -1.058  15.062  23.808  0.00  0.00    +0.000 A 
ATOM     22  C   UNL     1      -2.156  14.559  24.503  0.00  0.00    +0.000 A 
ATOM     23 CL   UNL     1      -2.632  15.376  25.948  0.00  0.00    +0.000 Cl
ATOM     24  C   UNL     1      -2.819  13.425  24.020  0.00  0.00    +0.000 A 
ATOM     25 CL   UNL     1      -4.179  12.739  24.837  0.00  0.00    +0.000 Cl
ATOM     26  C   UNL     1      -2.371  12.794  22.851  0.00  0.00    +0.000 A 
ENDBRANCH   7  19
BRANCH   3  27
ATOM     27  C   UNL     1       1.500   9.043  18.543  0.00  0.00    +0.000 C 
BRANCH  27  28
ATOM     28  C   UNL     1       2.163   8.115  17.525  0.00  0.00    +0.000 C 
BRANCH  28  29
ATOM     29  C   UNL     1       2.996   7.044  18.156  0.00  0.00    +0.000 A 
ATOM     30  C   UNL     1       2.825   6.488  19.411  0.00  0.00    +0.000 A 
ATOM     31  N   UNL     1       3.723   5.466  19.552  0.00  0.00    +0.000 N 
ATOM     32  C   UNL     1       4.539   5.396  18.449  0.00  0.00    +0.000 A 
ATOM     33  C   UNL     1       5.598   4.527  18.164  0.00  0.00    +0.000 A 
ATOM     34  C   UNL     1       6.289   4.723  16.965  0.00  0.00    +0.000 A 
ATOM     35  C   UNL     1       5.932   5.739  16.085  0.00  0.00    +0.000 A 
ATOM     36  C   UNL     1       4.848   6.578  16.371  0.00  0.00    +0.000 A 
ATOM     37  C   UNL     1       4.133   6.402  17.573  0.00  0.00    +0.000 A 
ATOM     38  H   UNL     1       3.791   4.856  20.356  0.00  0.00    +0.000 HD
ENDBRANCH  28  29
ENDBRANCH  27  28
ENDBRANCH   3  27
TORSDOF 5
ENDMDL
MODEL 4
REMARK VINA RESULT:      -9.3      5.061     10.337
REMARK  Name = 
REMARK  7 active torsions:
REMARK  status: ('A' for Active; 'I' for Inactive)
REMARK    1  A    between atoms: C_1  and  C_2
REMARK    2  A    between atoms: C_4  and  C_5
REMARK    3  A    between atoms: C_7  and  N_8
REMARK    4  A    between atoms: N_10  and  C_11
REMARK    5  A    between atoms: C_11  and  C_12
REMARK    6  A    between atoms: C_12  and  C_13
REMARK    7  A    between atoms: N_25  and  C_26
REMARK                            x       y       z     vdW  Elec       q    Type
REMARK                         _______ _______ _______ _____ _____    ______ ____
ROOT
ATOM      1  N   UNL     1      -1.066  10.389  18.877  0.00  0.00    +0.000 NA
ATOM      2  C   UNL     1      -0.712  11.236  19.774  0.00  0.00    +0.000 C 
ATOM      3  N   UNL     1      -1.110  12.535  19.972  0.00  0.00    +0.000 N 
ATOM      4  N   UNL     1       0.201  10.757  20.706  0.00  0.00    +0.000 N 
ATOM      5  C   UNL     1       0.950   9.603  20.765  0.00  0.00    +0.000 C 
ATOM      6  O   UNL     1       1.493   9.326  21.834  0.00  0.00    +0.000 OA
ATOM      7  N   UNL     1       1.097   8.932  19.576  0.00  0.00    +0.000 N 
ATOM      8  H   UNL     1      -1.649  12.890  19.176  0.00  0.00    +0.000 HD
ATOM      9  H   UNL     1       0.238  11.263  21.575  0.00  0.00    +0.000 HD
ATOM     10  H   UNL     1       0.581   9.346  18.800  0.00  0.00    +0.000 HD
ENDROOT
BRANCH   1  17
ATOM     11  C   UNL     1      -5.350  12.163  18.300  0.00  0.00    +0.000 C 
ATOM     12  C   UNL     1      -4.199  11.419  17.693  0.00  0.00    +0.000 A 
ATOM     13  C   UNL     1      -4.172  11.104  16.353  0.00  0.00    +0.000 A 
ATOM     14  C   UNL     1      -3.030  10.473  15.884  0.00  0.00    +0.000 A 
ATOM     15  C   UNL     1      -2.971  10.032  14.450  0.00  0.00    +0.000 C 
ATOM     16  N   UNL     1      -1.968  10.184  16.675  0.00  0.00    +0.000 NA
ATOM     17  C   UNL     1      -2.093  10.543  17.961  0.00  0.00    +0.000 A 
ATOM     18  N   UNL     1      -3.170  11.134  18.506  0.00  0.00    +0.000 NA
ENDBRANCH   1  17
BRANCH   7  19
ATOM     19  C   UNL     1       1.937   7.837  19.322  0.00  0.00    +0.000 A 
ATOM     20  C   UNL     1       2.811   7.795  18.235  0.00  0.00    +0.000 A 
ATOM     21  C   UNL     1       3.579   6.655  17.981  0.00  0.00    +0.000 A 
ATOM     22  C   UNL     1       3.471   5.540  18.809  0.00  0.00    +0.000 A 
ATOM     23 CL   UNL     1       4.407   4.146  18.402  0.00  0.00    +0.000 Cl
ATOM     24  C   UNL     1       2.618   5.582  19.917  0.00  0.00    +0.000 A 
ATOM     25 CL   UNL     1       2.425   4.232  20.979  0.00  0.00    +0.000 Cl
ATOM     26  C   UNL     1       1.868   6.736  20.183  0.00  0.00    +0.000 A 
ENDBRANCH   7  19
BRANCH   3  27
ATOM     27  C   UNL     1      -0.220  13.520  20.605  0.00  0.00    +0.000 C 
BRANCH  27  28
ATOM     28  C   UNL     1      -0.547  14.975  20.269  0.00  0.00    +0.000 C 
BRANCH  28  29
ATOM     29  C   UNL     1       0.530  15.655  19.483  0.00  0.00    +0.000 A 
ATOM     30  C   UNL     1       1.888  15.401  19.539  0.00  0.00    +0.000 A 
ATOM     31  N   UNL     1       2.505  16.157  18.580  0.00  0.00    +0.000 N 
ATOM     32  C   UNL     1       1.589  16.969  17.954  0.00  0.00    +0.000 A 
ATOM     33  C   UNL     1       1.766  17.908  16.932  0.00  0.00    +0.000 A 
ATOM     34  C   UNL     1       0.643  18.631  16.518  0.00  0.00    +0.000 A 
ATOM     35  C   UNL     1      -0.605  18.417  17.095  0.00  0.00    +0.000 A 
ATOM     36  C   UNL     1      -0.769  17.449  18.093  0.00  0.00    +0.000 A 
ATOM     37  C   UNL     1       0.346  16.705  18.529  0.00  0.00    +0.000 A 
ATOM     38  H   UNL     1       3.493  16.137  18.367  0.00  0.00    +0.000 HD
ENDBRANCH  28  29
ENDBRANCH  27  28
ENDBRANCH   3  27
TORSDOF 5
ENDMDL
MODEL 5
REMARK VINA RESULT:      -9.3      5.154     10.441
REMARK  Name = 
REMARK  7 active torsions:
REMARK  status: ('A' for Active; 'I' for Inactive)
REMARK    1  A    between atoms: C_1  and  C_2
REMARK    2  A    between atoms: C_4  and  C_5
REMARK    3  A    between atoms: C_7  and  N_8
REMARK    4  A    between atoms: N_10  and  C_11
REMARK    5  A    between atoms: C_11  and  C_12
REMARK    6  A    between atoms: C_12  and  C_13
REMARK    7  A    between atoms: N_25  and  C_26
REMARK                            x       y       z     vdW  Elec       q    Type
REMARK                         _______ _______ _______ _____ _____    ______ ____
ROOT
ATOM      1  N   UNL     1      -1.341  11.008  19.202  0.00  0.00    +0.000 NA
ATOM      2  C   UNL     1      -0.927  11.822  20.103  0.00  0.00    +0.000 C 
ATOM      3  N   UNL     1      -1.298  13.119  20.364  0.00  0.00    +0.000 N 
ATOM      4  N   UNL     1       0.030  11.305  20.967  0.00  0.00    +0.000 N 
ATOM      5  C   UNL     1       0.768  10.142  20.948  0.00  0.00    +0.000 C 
ATOM      6  O   UNL     1       1.367   9.826  21.975  0.00  0.00    +0.000 OA
ATOM      7  N   UNL     1       0.840   9.507  19.732  0.00  0.00    +0.000 N 
ATOM      8  H   UNL     1      -1.876  13.504  19.610  0.00  0.00    +0.000 HD
ATOM      9  H   UNL     1       0.122  11.783  21.848  0.00  0.00    +0.000 HD
ATOM     10  H   UNL     1       0.286   9.951  19.000  0.00  0.00    +0.000 HD
ENDROOT
BRANCH   1  17
ATOM     11  C   UNL     1      -2.904  10.180  14.877  0.00  0.00    +0.000 C 
ATOM     12  C   UNL     1      -3.170  10.788  16.221  0.00  0.00    +0.000 A 
ATOM     13  C   UNL     1      -4.403  11.310  16.544  0.00  0.00    +0.000 A 
ATOM     14  C   UNL     1      -4.558  11.787  17.836  0.00  0.00    +0.000 A 
ATOM     15  C   UNL     1      -5.852  12.441  18.226  0.00  0.00    +0.000 C 
ATOM     16  N   UNL     1      -3.573  11.739  18.765  0.00  0.00    +0.000 NA
ATOM     17  C   UNL     1      -2.417  11.201  18.351  0.00  0.00    +0.000 A 
ATOM     18  N   UNL     1      -2.169  10.738  17.113  0.00  0.00    +0.000 NA
ENDBRANCH   1  17
BRANCH   7  19
ATOM     19  C   UNL     1       1.651   8.412  19.397  0.00  0.00    +0.000 A 
ATOM     20  C   UNL     1       2.403   8.363  18.222  0.00  0.00    +0.000 A 
ATOM     21  C   UNL     1       3.142   7.224  17.895  0.00  0.00    +0.000 A 
ATOM     22  C   UNL     1       3.128   6.115  18.739  0.00  0.00    +0.000 A 
ATOM     23 CL   UNL     1       4.020   4.721  18.245  0.00  0.00    +0.000 Cl
ATOM     24  C   UNL     1       2.400   6.164  19.933  0.00  0.00    +0.000 A 
ATOM     25 CL   UNL     1       2.328   4.822  21.020  0.00  0.00    +0.000 Cl
ATOM     26  C   UNL     1       1.679   7.319  20.269  0.00  0.00    +0.000 A 
ENDBRANCH   7  19
BRANCH   3  27
ATOM     27  C   UNL     1      -0.362  14.074  20.975  0.00  0.00    +0.000 C 
BRANCH  27  28
ATOM     28  C   UNL     1      -0.619  15.535  20.607  0.00  0.00    +0.000 C 
BRANCH  28  29
ATOM     29  C   UNL     1       0.445  16.120  19.733  0.00  0.00    +0.000 A 
ATOM     30  C   UNL     1       1.808  15.910  19.829  0.00  0.00    +0.000 A 
ATOM     31  N   UNL     1       2.412  16.533  18.771  0.00  0.00    +0.000 N 
ATOM     32  C   UNL     1       1.481  17.221  18.031  0.00  0.00    +0.000 A 
ATOM     33  C   UNL     1       1.641  18.005  16.883  0.00  0.00    +0.000 A 
ATOM     34  C   UNL     1       0.504  18.631  16.365  0.00  0.00    +0.000 A 
ATOM     35  C   UNL     1      -0.742  18.473  16.963  0.00  0.00    +0.000 A 
ATOM     36  C   UNL     1      -0.889  17.657  18.092  0.00  0.00    +0.000 A 
ATOM     37  C   UNL     1       0.241  17.014  18.635  0.00  0.00    +0.000 A 
ATOM     38  H   UNL     1       3.402  16.507  18.566  0.00  0.00    +0.000 HD
ENDBRANCH  28  29
ENDBRANCH  27  28
ENDBRANCH   3  27
TORSDOF 5
ENDMDL
MODEL 6
REMARK VINA RESULT:      -9.2      0.615      1.570
REMARK  Name = 
REMARK  7 active torsions:
REMARK  status: ('A' for Active; 'I' for Inactive)
REMARK    1  A    between atoms: C_1  and  C_2
REMARK    2  A    between atoms: C_4  and  C_5
REMARK    3  A    between atoms: C_7  and  N_8
REMARK    4  A    between atoms: N_10  and  C_11
REMARK    5  A    between atoms: C_11  and  C_12
REMARK    6  A    between atoms: C_12  and  C_13
REMARK    7  A    between atoms: N_25  and  C_26
REMARK                            x       y       z     vdW  Elec       q    Type
REMARK                         _______ _______ _______ _____ _____    ______ ____
ROOT
ATOM      1  N   UNL     1       2.737   5.952  18.907  0.00  0.00    +0.000 NA
ATOM      2  C   UNL     1       3.540   6.546  18.101  0.00  0.00    +0.000 C 
ATOM      3  N   UNL     1       4.664   6.079  17.466  0.00  0.00    +0.000 N 
ATOM      4  N   UNL     1       3.207   7.862  17.805  0.00  0.00    +0.000 N 
ATOM      5  C   UNL     1       2.282   8.730  18.342  0.00  0.00    +0.000 C 
ATOM      6  O   UNL     1       2.035   9.762  17.719  0.00  0.00    +0.000 OA
ATOM      7  N   UNL     1       1.809   8.394  19.587  0.00  0.00    +0.000 N 
ATOM      8  H   UNL     1       4.958   5.170  17.839  0.00  0.00    +0.000 HD
ATOM      9  H   UNL     1       3.605   8.229  16.957  0.00  0.00    +0.000 HD
ATOM     10  H   UNL     1       2.162   7.505  19.938  0.00  0.00    +0.000 HD
ENDROOT
BRANCH   1  17
ATOM     11  C   UNL     1       1.193   2.805  21.998  0.00  0.00    +0.000 C 
ATOM     12  C   UNL     1       1.962   3.066  20.738  0.00  0.00    +0.000 A 
ATOM     13  C   UNL     1       2.430   2.035  19.953  0.00  0.00    +0.000 A 
ATOM     14  C   UNL     1       3.071   2.389  18.777  0.00  0.00    +0.000 A 
ATOM     15  C   UNL     1       3.673   1.315  17.917  0.00  0.00    +0.000 C 
ATOM     16  N   UNL     1       3.229   3.675  18.379  0.00  0.00    +0.000 NA
ATOM     17  C   UNL     1       2.727   4.600  19.210  0.00  0.00    +0.000 A 
ATOM     18  N   UNL     1       2.114   4.350  20.380  0.00  0.00    +0.000 NA
ENDBRANCH   1  17
BRANCH   7  19
ATOM     19  C   UNL     1       0.999   9.178  20.423  0.00  0.00    +0.000 A 
ATOM     20  C   UNL     1       0.945   8.996  21.806  0.00  0.00    +0.000 A 
ATOM     21  C   UNL     1       0.072   9.753  22.591  0.00  0.00    +0.000 A 
ATOM     22  C   UNL     1      -0.764  10.697  21.998  0.00  0.00    +0.000 A 
ATOM     23 CL   UNL     1      -1.856  11.557  23.022  0.00  0.00    +0.000 Cl
ATOM     24  C   UNL     1      -0.697  10.907  20.616  0.00  0.00    +0.000 A 
ATOM     25 CL   UNL     1      -1.713  12.051  19.811  0.00  0.00    +0.000 Cl
ATOM     26  C   UNL     1       0.198  10.162  19.834  0.00  0.00    +0.000 A 
ENDBRANCH   7  19
BRANCH   3  27
ATOM     27  C   UNL     1       5.765   6.981  17.098  0.00  0.00    +0.000 C 
BRANCH  27  28
ATOM     28  C   UNL     1       6.994   6.277  16.521  0.00  0.00    +0.000 C 
BRANCH  28  29
ATOM     29  C   UNL     1       6.653   5.081  15.689  0.00  0.00    +0.000 A 
ATOM     30  C   UNL     1       6.012   3.931  16.110  0.00  0.00    +0.000 A 
ATOM     31  N   UNL     1       5.791   3.139  15.016  0.00  0.00    +0.000 N 
ATOM     32  C   UNL     1       6.353   3.708  13.898  0.00  0.00    +0.000 A 
ATOM     33  C   UNL     1       6.388   3.254  12.575  0.00  0.00    +0.000 A 
ATOM     34  C   UNL     1       7.080   4.032  11.643  0.00  0.00    +0.000 A 
ATOM     35  C   UNL     1       7.704   5.218  12.016  0.00  0.00    +0.000 A 
ATOM     36  C   UNL     1       7.630   5.675  13.338  0.00  0.00    +0.000 A 
ATOM     37  C   UNL     1       6.937   4.910  14.298  0.00  0.00    +0.000 A 
ATOM     38  H   UNL     1       5.300   2.256  15.024  0.00  0.00    +0.000 HD
ENDBRANCH  28  29
ENDBRANCH  27  28
ENDBRANCH   3  27
TORSDOF 5
ENDMDL
MODEL 7
REMARK VINA RESULT:      -9.2      0.877      2.008
REMARK  Name = 
REMARK  7 active torsions:
REMARK  status: ('A' for Active; 'I' for Inactive)
REMARK    1  A    between atoms: C_1  and  C_2
REMARK    2  A    between atoms: C_4  and  C_5
REMARK    3  A    between atoms: C_7  and  N_8
REMARK    4  A    between atoms: N_10  and  C_11
REMARK    5  A    between atoms: C_11  and  C_12
REMARK    6  A    between atoms: C_12  and  C_13
REMARK    7  A    between atoms: N_25  and  C_26
REMARK                            x       y       z     vdW  Elec       q    Type
REMARK                         _______ _______ _______ _____ _____    ______ ____
ROOT
ATOM      1  N   UNL     1       2.865   5.883  18.783  0.00  0.00    +0.000 NA
ATOM      2  C   UNL     1       3.744   6.462  18.050  0.00  0.00    +0.000 C 
ATOM      3  N   UNL     1       4.938   5.991  17.559  0.00  0.00    +0.000 N 
ATOM      4  N   UNL     1       3.431   7.762  17.673  0.00  0.00    +0.000 N 
ATOM      5  C   UNL     1       2.442   8.633  18.075  0.00  0.00    +0.000 C 
ATOM      6  O   UNL     1       2.253   9.639  17.392  0.00  0.00    +0.000 OA
ATOM      7  N   UNL     1       1.838   8.332  19.271  0.00  0.00    +0.000 N 
ATOM      8  H   UNL     1       5.199   5.100  17.993  0.00  0.00    +0.000 HD
ATOM      9  H   UNL     1       3.916   8.106  16.861  0.00  0.00    +0.000 HD
ATOM     10  H   UNL     1       2.162   7.460  19.690  0.00  0.00    +0.000 HD
ENDROOT
BRANCH   1  17
ATOM     11  C   UNL     1       1.215   2.850  21.932  0.00  0.00    +0.000 C 
ATOM     12  C   UNL     1       2.020   3.064  20.686  0.00  0.00    +0.000 A 
ATOM     13  C   UNL     1       2.502   2.005  19.949  0.00  0.00    +0.000 A 
ATOM     14  C   UNL     1       3.178   2.316  18.780  0.00  0.00    +0.000 A 
ATOM     15  C   UNL     1       3.797   1.210  17.974  0.00  0.00    +0.000 C 
ATOM     16  N   UNL     1       3.356   3.587  18.344  0.00  0.00    +0.000 NA
ATOM     17  C   UNL     1       2.837   4.542  19.130  0.00  0.00    +0.000 A 
ATOM     18  N   UNL     1       2.191   4.335  20.290  0.00  0.00    +0.000 NA
ENDBRANCH   1  17
BRANCH   7  19
ATOM     19  C   UNL     1       0.932   9.131  19.985  0.00  0.00    +0.000 A 
ATOM     20  C   UNL     1       0.170  10.132  19.380  0.00  0.00    +0.000 A 
ATOM     21  C   UNL     1      -0.668  10.949  20.143  0.00  0.00    +0.000 A 
ATOM     22  C   UNL     1      -0.744  10.779  21.524  0.00  0.00    +0.000 A 
ATOM     23 CL   UNL     1      -1.757  11.861  22.410  0.00  0.00    +0.000 Cl
ATOM     24  C   UNL     1      -0.005   9.760  22.136  0.00  0.00    +0.000 A 
ATOM     25 CL   UNL     1      -0.041   9.500  23.845  0.00  0.00    +0.000 Cl
ATOM     26  C   UNL     1       0.816   8.926  21.364  0.00  0.00    +0.000 A 
ENDBRANCH   7  19
BRANCH   3  27
ATOM     27  C   UNL     1       6.061   6.898  17.282  0.00  0.00    +0.000 C 
BRANCH  27  28
ATOM     28  C   UNL     1       7.218   6.255  16.516  0.00  0.00    +0.000 C 
BRANCH  28  29
ATOM     29  C   UNL     1       6.798   5.082  15.688  0.00  0.00    +0.000 A 
ATOM     30  C   UNL     1       6.127   3.954  16.122  0.00  0.00    +0.000 A 
ATOM     31  N   UNL     1       5.835   3.183  15.031  0.00  0.00    +0.000 N 
ATOM     32  C   UNL     1       6.377   3.740  13.898  0.00  0.00    +0.000 A 
ATOM     33  C   UNL     1       6.345   3.298  12.571  0.00  0.00    +0.000 A 
ATOM     34  C   UNL     1       7.034   4.057  11.620  0.00  0.00    +0.000 A 
ATOM     35  C   UNL     1       7.719   5.213  11.979  0.00  0.00    +0.000 A 
ATOM     36  C   UNL     1       7.712   5.659  13.307  0.00  0.00    +0.000 A 
ATOM     37  C   UNL     1       7.024   4.913  14.285  0.00  0.00    +0.000 A 
ATOM     38  H   UNL     1       5.308   2.320  15.050  0.00  0.00    +0.000 HD
ENDBRANCH  28  29
ENDBRANCH  27  28
ENDBRANCH   3  27
TORSDOF 5
ENDMDL
MODEL 8
REMARK VINA RESULT:      -9.2      3.526      6.784
REMARK  Name = 
REMARK  7 active torsions:
REMARK  status: ('A' for Active; 'I' for Inactive)
REMARK    1  A    between atoms: C_1  and  C_2
REMARK    2  A    between atoms: C_4  and  C_5
REMARK    3  A    between atoms: C_7  and  N_8
REMARK    4  A    between atoms: N_10  and  C_11
REMARK    5  A    between atoms: C_11  and  C_12
REMARK    6  A    between atoms: C_12  and  C_13
REMARK    7  A    between atoms: N_25  and  C_26
REMARK                            x       y       z     vdW  Elec       q    Type
REMARK                         _______ _______ _______ _____ _____    ______ ____
ROOT
ATOM      1  N   UNL     1      -1.124  11.555  18.898  0.00  0.00    +0.000 NA
ATOM      2  C   UNL     1       0.019  10.971  18.915  0.00  0.00    +0.000 C 
ATOM      3  N   UNL     1       0.466   9.880  18.211  0.00  0.00    +0.000 N 
ATOM      4  N   UNL     1       0.960  11.545  19.761  0.00  0.00    +0.000 N 
ATOM      5  C   UNL     1       0.866  12.518  20.732  0.00  0.00    +0.000 C 
ATOM      6  O   UNL     1       1.912  13.006  21.156  0.00  0.00    +0.000 OA
ATOM      7  N   UNL     1      -0.400  12.763  21.202  0.00  0.00    +0.000 N 
ATOM      8  H   UNL     1      -0.303   9.399  17.732  0.00  0.00    +0.000 HD
ATOM      9  H   UNL     1       1.919  11.325  19.552  0.00  0.00    +0.000 HD
ATOM     10  H   UNL     1      -1.129  12.229  20.729  0.00  0.00    +0.000 HD
ENDROOT
BRANCH   1  17
ATOM     11  C   UNL     1      -5.713  12.132  18.233  0.00  0.00    +0.000 C 
ATOM     12  C   UNL     1      -4.417  11.600  17.701  0.00  0.00    +0.000 A 
ATOM     13  C   UNL     1      -4.316  11.093  16.424  0.00  0.00    +0.000 A 
ATOM     14  C   UNL     1      -3.057  10.689  16.011  0.00  0.00    +0.000 A 
ATOM     15  C   UNL     1      -2.896  10.054  14.660  0.00  0.00    +0.000 C 
ATOM     16  N   UNL     1      -1.954  10.793  16.793  0.00  0.00    +0.000 NA
ATOM     17  C   UNL     1      -2.160  11.311  18.012  0.00  0.00    +0.000 A 
ATOM     18  N   UNL     1      -3.347  11.704  18.505  0.00  0.00    +0.000 NA
ENDBRANCH   1  17
BRANCH   7  19
ATOM     19  C   UNL     1      -0.754  13.570  22.295  0.00  0.00    +0.000 A 
ATOM     20  C   UNL     1      -1.713  13.188  23.234  0.00  0.00    +0.000 A 
ATOM     21  C   UNL     1      -2.084  14.052  24.267  0.00  0.00    +0.000 A 
ATOM     22  C   UNL     1      -1.505  15.316  24.364  0.00  0.00    +0.000 A 
ATOM     23 CL   UNL     1      -2.052  16.354  25.631  0.00  0.00    +0.000 Cl
ATOM     24  C   UNL     1      -0.523  15.698  23.443  0.00  0.00    +0.000 A 
ATOM     25 CL   UNL     1       0.229  17.254  23.495  0.00  0.00    +0.000 Cl
ATOM     26  C   UNL     1      -0.135  14.818  22.423  0.00  0.00    +0.000 A 
ENDBRANCH   7  19
BRANCH   3  27
ATOM     27  C   UNL     1       1.508   8.995  18.752  0.00  0.00    +0.000 C 
BRANCH  27  28
ATOM     28  C   UNL     1       2.475   8.442  17.705  0.00  0.00    +0.000 C 
BRANCH  28  29
ATOM     29  C   UNL     1       2.982   7.073  18.033  0.00  0.00    +0.000 A 
ATOM     30  C   UNL     1       2.584   6.269  19.085  0.00  0.00    +0.000 A 
ATOM     31  N   UNL     1       3.206   5.057  18.957  0.00  0.00    +0.000 N 
ATOM     32  C   UNL     1       4.073   5.080  17.890  0.00  0.00    +0.000 A 
ATOM     33  C   UNL     1       4.921   4.083  17.396  0.00  0.00    +0.000 A 
ATOM     34  C   UNL     1       5.735   4.410  16.308  0.00  0.00    +0.000 A 
ATOM     35  C   UNL     1       5.697   5.676  15.733  0.00  0.00    +0.000 A 
ATOM     36  C   UNL     1       4.817   6.650  16.220  0.00  0.00    +0.000 A 
ATOM     37  C   UNL     1       3.984   6.348  17.316  0.00  0.00    +0.000 A 
ATOM     38  H   UNL     1       3.064   4.261  19.563  0.00  0.00    +0.000 HD
ENDBRANCH  28  29
ENDBRANCH  27  28
ENDBRANCH   3  27
TORSDOF 5
ENDMDL
MODEL 9
REMARK VINA RESULT:      -9.2      4.876      9.391
REMARK  Name = 
REMARK  7 active torsions:
REMARK  status: ('A' for Active; 'I' for Inactive)
REMARK    1  A    between atoms: C_1  and  C_2
REMARK    2  A    between atoms: C_4  and  C_5
REMARK    3  A    between atoms: C_7  and  N_8
REMARK    4  A    between atoms: N_10  and  C_11
REMARK    5  A    between atoms: C_11  and  C_12
REMARK    6  A    between atoms: C_12  and  C_13
REMARK    7  A    between atoms: N_25  and  C_26
REMARK                            x       y       z     vdW  Elec       q    Type
REMARK                         _______ _______ _______ _____ _____    ______ ____
ROOT
ATOM      1  N   UNL     1      -1.288  11.029  19.014  0.00  0.00    +0.000 NA
ATOM      2  C   UNL     1      -0.833  11.908  19.831  0.00  0.00    +0.000 C 
ATOM      3  N   UNL     1      -1.176  13.228  19.993  0.00  0.00    +0.000 N 
ATOM      4  N   UNL     1       0.144  11.448  20.705  0.00  0.00    +0.000 N 
ATOM      5  C   UNL     1       0.863  10.274  20.760  0.00  0.00    +0.000 C 
ATOM      6  O   UNL     1       1.491  10.035  21.791  0.00  0.00    +0.000 OA
ATOM      7  N   UNL     1       0.887   9.540  19.601  0.00  0.00    +0.000 N 
ATOM      8  H   UNL     1      -1.772  13.560  19.228  0.00  0.00    +0.000 HD
ATOM      9  H   UNL     1       0.272  11.996  21.539  0.00  0.00    +0.000 HD
ATOM     10  H   UNL     1       0.316   9.931  18.851  0.00  0.00    +0.000 HD
ENDROOT
BRANCH   1  17
ATOM     11  C   UNL     1      -2.895  10.110  14.724  0.00  0.00    +0.000 C 
ATOM     12  C   UNL     1      -3.162  10.712  16.070  0.00  0.00    +0.000 A 
ATOM     13  C   UNL     1      -4.410  11.180  16.415  0.00  0.00    +0.000 A 
ATOM     14  C   UNL     1      -4.562  11.656  17.708  0.00  0.00    +0.000 A 
ATOM     15  C   UNL     1      -5.877  12.253  18.120  0.00  0.00    +0.000 C 
ATOM     16  N   UNL     1      -3.558  11.657  18.617  0.00  0.00    +0.000 NA
ATOM     17  C   UNL     1      -2.387  11.170  18.183  0.00  0.00    +0.000 A 
ATOM     18  N   UNL     1      -2.142  10.712  16.943  0.00  0.00    +0.000 NA
ENDBRANCH   1  17
BRANCH   7  19
ATOM     19  C   UNL     1       1.671   8.407  19.333  0.00  0.00    +0.000 A 
ATOM     20  C   UNL     1       2.466   8.293  18.192  0.00  0.00    +0.000 A 
ATOM     21  C   UNL     1       3.176   7.118  17.932  0.00  0.00    +0.000 A 
ATOM     22  C   UNL     1       3.089   6.039  18.809  0.00  0.00    +0.000 A 
ATOM     23 CL   UNL     1       3.948   4.599  18.396  0.00  0.00    +0.000 Cl
ATOM     24  C   UNL     1       2.315   6.153  19.970  0.00  0.00    +0.000 A 
ATOM     25 CL   UNL     1       2.151   4.850  21.095  0.00  0.00    +0.000 Cl
ATOM     26  C   UNL     1       1.624   7.342  20.240  0.00  0.00    +0.000 A 
ENDBRANCH   7  19
BRANCH   3  27
ATOM     27  C   UNL     1      -0.207  14.214  20.493  0.00  0.00    +0.000 C 
BRANCH  27  28
ATOM     28  C   UNL     1       0.395  15.114  19.413  0.00  0.00    +0.000 C 
BRANCH  28  29
ATOM     29  C   UNL     1       1.699  14.607  18.882  0.00  0.00    +0.000 A 
ATOM     30  C   UNL     1       1.922  13.408  18.231  0.00  0.00    +0.000 A 
ATOM     31  N   UNL     1       3.223  13.386  17.809  0.00  0.00    +0.000 N 
ATOM     32  C   UNL     1       3.883  14.510  18.246  0.00  0.00    +0.000 A 
ATOM     33  C   UNL     1       5.214  14.902  18.067  0.00  0.00    +0.000 A 
ATOM     34  C   UNL     1       5.623  16.093  18.672  0.00  0.00    +0.000 A 
ATOM     35  C   UNL     1       4.738  16.864  19.419  0.00  0.00    +0.000 A 
ATOM     36  C   UNL     1       3.400  16.473  19.559  0.00  0.00    +0.000 A 
ATOM     37  C   UNL     1       2.960  15.277  18.958  0.00  0.00    +0.000 A 
ATOM     38  H   UNL     1       3.649  12.646  17.267  0.00  0.00    +0.000 HD
ENDBRANCH  28  29
ENDBRANCH  27  28
ENDBRANCH   3  27
TORSDOF 5
ENDMDL
