MODEL 1
REMARK VINA RESULT:      -8.9      0.000      0.000
REMARK  Name = 
REMARK  7 active torsions:
REMARK  status: ('A' for Active; 'I' for Inactive)
REMARK    1  A    between atoms: C_1  and  C_2
REMARK    2  A    between atoms: C_2  and  N_3
REMARK    3  A    between atoms: C_2  and  C_23
REMARK    4  A    between atoms: C_4  and  C_6
REMARK    5  A    between atoms: C_6  and  C_7
REMARK    6  A    between atoms: C_6  and  N_8
REMARK    7  A    between atoms: C_12  and  C_13
REMARK                            x       y       z     vdW  Elec       q    Type
REMARK                         _______ _______ _______ _____ _____    ______ ____
ROOT
ATOM      1  C   UNL     1       4.267   3.222  19.176  0.00  0.00    +0.000 C 
ATOM      2  C   UNL     1       4.680   2.428  20.420  0.00  0.00    +0.000 C 
ENDROOT
BRANCH   1   3
ATOM      3  N   UNL     1       3.030   4.016  19.442  0.00  0.00    +0.000 NA
ATOM      4  C   UNL     1       1.858   3.176  19.728  0.00  0.00    +0.000 C 
ATOM      5  C   UNL     1       1.164   2.986  18.400  0.00  0.00    +0.000 C 
ATOM      6  C   UNL     1       1.389   4.300  17.684  0.00  0.00    +0.000 C 
ATOM      7  C   UNL     1       2.629   4.935  18.349  0.00  0.00    +0.000 C 
BRANCH   7   8
ATOM      8  C   UNL     1       2.298   6.361  18.789  0.00  0.00    +0.000 A 
ATOM      9  C   UNL     1       2.293   7.372  17.806  0.00  0.00    +0.000 A 
ATOM     10  C   UNL     1       1.917   8.680  18.113  0.00  0.00    +0.000 A 
ATOM     11  C   UNL     1       1.553   9.005  19.413  0.00  0.00    +0.000 A 
ATOM     12  C   UNL     1       1.560   8.020  20.406  0.00  0.00    +0.000 A 
ATOM     13  C   UNL     1       1.952   6.711  20.103  0.00  0.00    +0.000 A 
ATOM     14  O   UNL     1       1.182   8.267  21.703  0.00  0.00    +0.000 OA
ATOM     15  C   UNL     1       0.426   9.481  21.795  0.00  0.00    +0.000 C 
ATOM     16  C   UNL     1       1.115  10.602  21.034  0.00  0.00    +0.000 C 
ATOM     17  O   UNL     1       1.178  10.305  19.637  0.00  0.00    +0.000 OA
ENDBRANCH   7   8
ENDBRANCH   1   3
BRANCH   1  19
ATOM     18  N   UNL     1       5.666   4.096  17.313  0.00  0.00    +0.000 N 
ATOM     19  C   UNL     1       5.468   4.067  18.682  0.00  0.00    +0.000 C 
ATOM     20  O   UNL     1       6.201   4.697  19.449  0.00  0.00    +0.000 OA
ATOM     21  H   UNL     1       5.121   3.499  16.708  0.00  0.00    +0.000 HD
BRANCH  18  23
ATOM     22  C   UNL     1       6.428   6.435  16.992  0.00  0.00    +0.000 C 
ATOM     23  C   UNL     1       6.692   4.949  16.728  0.00  0.00    +0.000 C 
BRANCH  23  24
ATOM     24  C   UNL     1       6.861   4.692  15.242  0.00  0.00    +0.000 A 
ATOM     25  C   UNL     1       7.807   5.444  14.521  0.00  0.00    +0.000 A 
ATOM     26  C   UNL     1       7.916   5.311  13.138  0.00  0.00    +0.000 A 
ATOM     27  C   UNL     1       7.089   4.419  12.469  0.00  0.00    +0.000 A 
ATOM     28  F   UNL     1       7.175   4.310  11.137  0.00  0.00    +0.000 F 
ATOM     29  C   UNL     1       6.164   3.647  13.161  0.00  0.00    +0.000 A 
ATOM     30  C   UNL     1       6.054   3.775  14.548  0.00  0.00    +0.000 A 
ENDBRANCH  23  24
ENDBRANCH  18  23
ENDBRANCH   1  19
TORSDOF 5
ENDMDL
MODEL 2
REMARK VINA RESULT:      -8.7      0.771      1.521
REMARK  Name = 
REMARK  7 active torsions:
REMARK  status: ('A' for Active; 'I' for Inactive)
REMARK    1  A    between atoms: C_1  and  C_2
REMARK    2  A    between atoms: C_2  and  N_3
REMARK    3  A    between atoms: C_2  and  C_23
REMARK    4  A    between atoms: C_4  and  C_6
REMARK    5  A    between atoms: C_6  and  C_7
REMARK    6  A    between atoms: C_6  and  N_8
REMARK    7  A    between atoms: C_12  and  C_13
REMARK                            x       y       z     vdW  Elec       q    Type
REMARK                         _______ _______ _______ _____ _____    ______ ____
ROOT
ATOM      1  C   UNL     1       4.259   3.021  19.184  0.00  0.00    +0.000 C 
ATOM      2  C   UNL     1       4.754   2.246  20.410  0.00  0.00    +0.000 C 
ENDROOT
BRANCH   1   3
ATOM      3  N   UNL     1       3.009   3.773  19.503  0.00  0.00    +0.000 NA
ATOM      4  C   UNL     1       1.894   2.897  19.890  0.00  0.00    +0.000 C 
ATOM      5  C   UNL     1       1.126   2.633  18.616  0.00  0.00    +0.000 C 
ATOM      6  C   UNL     1       1.250   3.929  17.845  0.00  0.00    +0.000 C 
ATOM      7  C   UNL     1       2.501   4.636  18.408  0.00  0.00    +0.000 C 
BRANCH   7   8
ATOM      8  C   UNL     1       2.138   6.062  18.822  0.00  0.00    +0.000 A 
ATOM      9  C   UNL     1       1.860   6.304  20.184  0.00  0.00    +0.000 A 
ATOM     10  C   UNL     1       1.606   7.593  20.654  0.00  0.00    +0.000 A 
ATOM     11  C   UNL     1       1.611   8.662  19.768  0.00  0.00    +0.000 A 
ATOM     12  C   UNL     1       1.875   8.444  18.412  0.00  0.00    +0.000 A 
ATOM     13  C   UNL     1       2.114   7.150  17.937  0.00  0.00    +0.000 A 
ATOM     14  O   UNL     1       1.925   9.461  17.490  0.00  0.00    +0.000 OA
ATOM     15  C   UNL     1       2.083  10.731  18.134  0.00  0.00    +0.000 C 
ATOM     16  C   UNL     1       1.104  10.872  19.288  0.00  0.00    +0.000 C 
ATOM     17  O   UNL     1       1.371   9.902  20.304  0.00  0.00    +0.000 OA
ENDBRANCH   7   8
ENDBRANCH   1   3
BRANCH   1  19
ATOM     18  N   UNL     1       5.403   4.127  17.271  0.00  0.00    +0.000 N 
ATOM     19  C   UNL     1       5.408   3.905  18.636  0.00  0.00    +0.000 C 
ATOM     20  O   UNL     1       6.270   4.404  19.363  0.00  0.00    +0.000 OA
ATOM     21  H   UNL     1       4.751   3.633  16.678  0.00  0.00    +0.000 HD
BRANCH  18  23
ATOM     22  C   UNL     1       5.950   6.502  16.810  0.00  0.00    +0.000 C 
ATOM     23  C   UNL     1       6.366   5.035  16.661  0.00  0.00    +0.000 C 
BRANCH  23  24
ATOM     24  C   UNL     1       6.618   4.696  15.204  0.00  0.00    +0.000 A 
ATOM     25  C   UNL     1       7.642   5.370  14.513  0.00  0.00    +0.000 A 
ATOM     26  C   UNL     1       7.835   5.162  13.148  0.00  0.00    +0.000 A 
ATOM     27  C   UNL     1       7.012   4.275  12.468  0.00  0.00    +0.000 A 
ATOM     28  F   UNL     1       7.179   4.095  11.152  0.00  0.00    +0.000 F 
ATOM     29  C   UNL     1       6.009   3.579  13.133  0.00  0.00    +0.000 A 
ATOM     30  C   UNL     1       5.816   3.781  14.501  0.00  0.00    +0.000 A 
ENDBRANCH  23  24
ENDBRANCH  18  23
ENDBRANCH   1  19
TORSDOF 5
ENDMDL
MODEL 3
REMARK VINA RESULT:      -8.5      3.255      7.848
REMARK  Name = 
REMARK  7 active torsions:
REMARK  status: ('A' for Active; 'I' for Inactive)
REMARK    1  A    between atoms: C_1  and  C_2
REMARK    2  A    between atoms: C_2  and  N_3
REMARK    3  A    between atoms: C_2  and  C_23
REMARK    4  A    between atoms: C_4  and  C_6
REMARK    5  A    between atoms: C_6  and  C_7
REMARK    6  A    between atoms: C_6  and  N_8
REMARK    7  A    between atoms: C_12  and  C_13
REMARK                            x       y       z     vdW  Elec       q    Type
REMARK                         _______ _______ _______ _____ _____    ______ ____
ROOT
ATOM      1  C   UNL     1       2.212   5.019  20.077  0.00  0.00    +0.000 C 
ATOM      2  C   UNL     1       0.755   4.623  20.342  0.00  0.00    +0.000 C 
ENDROOT
BRANCH   1   3
ATOM      3  N   UNL     1       2.722   4.360  18.838  0.00  0.00    +0.000 NA
ATOM      4  C   UNL     1       1.885   3.235  18.400  0.00  0.00    +0.000 C 
ATOM      5  C   UNL     1       2.502   2.005  19.023  0.00  0.00    +0.000 C 
ATOM      6  C   UNL     1       3.985   2.302  19.013  0.00  0.00    +0.000 C 
ATOM      7  C   UNL     1       4.107   3.838  18.933  0.00  0.00    +0.000 C 
BRANCH   7   8
ATOM      8  C   UNL     1       5.024   4.218  17.770  0.00  0.00    +0.000 A 
ATOM      9  C   UNL     1       6.279   4.785  18.075  0.00  0.00    +0.000 A 
ATOM     10  C   UNL     1       7.205   5.078  17.074  0.00  0.00    +0.000 A 
ATOM     11  C   UNL     1       6.888   4.822  15.746  0.00  0.00    +0.000 A 
ATOM     12  C   UNL     1       5.645   4.269  15.420  0.00  0.00    +0.000 A 
ATOM     13  C   UNL     1       4.709   3.989  16.421  0.00  0.00    +0.000 A 
ATOM     14  O   UNL     1       5.281   3.963  14.131  0.00  0.00    +0.000 OA
ATOM     15  C   UNL     1       6.429   3.896  13.276  0.00  0.00    +0.000 C 
ATOM     16  C   UNL     1       7.328   5.103  13.488  0.00  0.00    +0.000 C 
ATOM     17  O   UNL     1       7.853   5.119  14.818  0.00  0.00    +0.000 OA
ENDBRANCH   7   8
ENDBRANCH   1   3
BRANCH   1  19
ATOM     18  N   UNL     1       1.448   7.245  20.888  0.00  0.00    +0.000 N 
ATOM     19  C   UNL     1       2.330   6.565  20.068  0.00  0.00    +0.000 C 
ATOM     20  O   UNL     1       3.169   7.165  19.392  0.00  0.00    +0.000 OA
ATOM     21  H   UNL     1       0.705   6.747  21.358  0.00  0.00    +0.000 HD
BRANCH  18  23
ATOM     22  C   UNL     1       1.334   9.126  22.502  0.00  0.00    +0.000 C 
ATOM     23  C   UNL     1       1.544   8.690  21.048  0.00  0.00    +0.000 C 
BRANCH  23  24
ATOM     24  C   UNL     1       0.589   9.425  20.126  0.00  0.00    +0.000 A 
ATOM     25  C   UNL     1       0.763   9.317  18.734  0.00  0.00    +0.000 A 
ATOM     26  C   UNL     1      -0.026  10.061  17.858  0.00  0.00    +0.000 A 
ATOM     27  C   UNL     1      -0.999  10.910  18.368  0.00  0.00    +0.000 A 
ATOM     28  F   UNL     1      -1.740  11.644  17.528  0.00  0.00    +0.000 F 
ATOM     29  C   UNL     1      -1.207  11.016  19.738  0.00  0.00    +0.000 A 
ATOM     30  C   UNL     1      -0.420  10.270  20.618  0.00  0.00    +0.000 A 
ENDBRANCH  23  24
ENDBRANCH  18  23
ENDBRANCH   1  19
TORSDOF 5
ENDMDL
MODEL 4
REMARK VINA RESULT:      -8.5      1.035      1.953
REMARK  Name = 
REMARK  7 active torsions:
REMARK  status: ('A' for Active; 'I' for Inactive)
REMARK    1  A    between atoms: C_1  and  C_2
REMARK    2  A    between atoms: C_2  and  N_3
REMARK    3  A    between atoms: C_2  and  C_23
REMARK    4  A    between atoms: C_4  and  C_6
REMARK    5  A    between atoms: C_6  and  C_7
REMARK    6  A    between atoms: C_6  and  N_8
REMARK    7  A    between atoms: C_12  and  C_13
REMARK                            x       y       z     vdW  Elec       q    Type
REMARK                         _______ _______ _______ _____ _____    ______ ____
ROOT
ATOM      1  C   UNL     1       4.190   3.286  19.272  0.00  0.00    +0.000 C 
ATOM      2  C   UNL     1       4.794   2.209  20.179  0.00  0.00    +0.000 C 
ENDROOT
BRANCH   1   3
ATOM      3  N   UNL     1       3.219   4.131  20.029  0.00  0.00    +0.000 NA
ATOM      4  C   UNL     1       2.625   3.434  21.179  0.00  0.00    +0.000 C 
ATOM      5  C   UNL     1       1.338   2.832  20.667  0.00  0.00    +0.000 C 
ATOM      6  C   UNL     1       0.842   3.845  19.658  0.00  0.00    +0.000 C 
ATOM      7  C   UNL     1       2.085   4.652  19.227  0.00  0.00    +0.000 C 
BRANCH   7   8
ATOM      8  C   UNL     1       1.806   6.146  19.393  0.00  0.00    +0.000 A 
ATOM      9  C   UNL     1       1.415   6.607  20.667  0.00  0.00    +0.000 A 
ATOM     10  C   UNL     1       1.226   7.966  20.920  0.00  0.00    +0.000 A 
ATOM     11  C   UNL     1       1.413   8.889  19.899  0.00  0.00    +0.000 A 
ATOM     12  C   UNL     1       1.792   8.453  18.625  0.00  0.00    +0.000 A 
ATOM     13  C   UNL     1       1.965   7.089  18.366  0.00  0.00    +0.000 A 
ATOM     14  O   UNL     1       2.022   9.314  17.580  0.00  0.00    +0.000 OA
ATOM     15  C   UNL     1       2.223  10.652  18.053  0.00  0.00    +0.000 C 
ATOM     16  C   UNL     1       1.149  11.032  19.059  0.00  0.00    +0.000 C 
ATOM     17  O   UNL     1       1.228  10.208  20.224  0.00  0.00    +0.000 OA
ENDBRANCH   7   8
ENDBRANCH   1   3
BRANCH   1  19
ATOM     18  N   UNL     1       5.053   4.585  17.333  0.00  0.00    +0.000 N 
ATOM     19  C   UNL     1       5.330   4.085  18.592  0.00  0.00    +0.000 C 
ATOM     20  O   UNL     1       6.418   4.290  19.137  0.00  0.00    +0.000 OA
ATOM     21  H   UNL     1       4.197   4.327  16.861  0.00  0.00    +0.000 HD
BRANCH  18  23
ATOM     22  C   UNL     1       5.584   6.921  16.688  0.00  0.00    +0.000 C 
ATOM     23  C   UNL     1       6.006   5.448  16.648  0.00  0.00    +0.000 C 
BRANCH  23  24
ATOM     24  C   UNL     1       6.249   5.000  15.219  0.00  0.00    +0.000 A 
ATOM     25  C   UNL     1       5.342   4.108  14.619  0.00  0.00    +0.000 A 
ATOM     26  C   UNL     1       5.589   3.592  13.347  0.00  0.00    +0.000 A 
ATOM     27  C   UNL     1       6.737   3.972  12.666  0.00  0.00    +0.000 A 
ATOM     28  F   UNL     1       6.987   3.456  11.455  0.00  0.00    +0.000 F 
ATOM     29  C   UNL     1       7.636   4.871  13.226  0.00  0.00    +0.000 A 
ATOM     30  C   UNL     1       7.390   5.392  14.499  0.00  0.00    +0.000 A 
ENDBRANCH  23  24
ENDBRANCH  18  23
ENDBRANCH   1  19
TORSDOF 5
ENDMDL
MODEL 5
REMARK VINA RESULT:      -8.2      4.016      8.455
REMARK  Name = 
REMARK  7 active torsions:
REMARK  status: ('A' for Active; 'I' for Inactive)
REMARK    1  A    between atoms: C_1  and  C_2
REMARK    2  A    between atoms: C_2  and  N_3
REMARK    3  A    between atoms: C_2  and  C_23
REMARK    4  A    between atoms: C_4  and  C_6
REMARK    5  A    between atoms: C_6  and  C_7
REMARK    6  A    between atoms: C_6  and  N_8
REMARK    7  A    between atoms: C_12  and  C_13
REMARK                            x       y       z     vdW  Elec       q    Type
REMARK                         _______ _______ _______ _____ _____    ______ ____
ROOT
ATOM      1  C   UNL     1       2.265   7.339  19.688  0.00  0.00    +0.000 C 
ATOM      2  C   UNL     1       1.072   6.867  20.528  0.00  0.00    +0.000 C 
ENDROOT
BRANCH   1   3
ATOM      3  N   UNL     1       2.747   6.245  18.793  0.00  0.00    +0.000 NA
ATOM      4  C   UNL     1       1.888   5.053  18.829  0.00  0.00    +0.000 C 
ATOM      5  C   UNL     1       2.499   4.146  19.871  0.00  0.00    +0.000 C 
ATOM      6  C   UNL     1       3.986   4.389  19.733  0.00  0.00    +0.000 C 
ATOM      7  C   UNL     1       4.126   5.774  19.068  0.00  0.00    +0.000 C 
BRANCH   7   8
ATOM      8  C   UNL     1       5.029   5.661  17.839  0.00  0.00    +0.000 A 
ATOM      9  C   UNL     1       6.357   6.124  17.950  0.00  0.00    +0.000 A 
ATOM     10  C   UNL     1       7.266   5.977  16.901  0.00  0.00    +0.000 A 
ATOM     11  C   UNL     1       6.859   5.376  15.717  0.00  0.00    +0.000 A 
ATOM     12  C   UNL     1       5.545   4.918  15.582  0.00  0.00    +0.000 A 
ATOM     13  C   UNL     1       4.628   5.080  16.626  0.00  0.00    +0.000 A 
ATOM     14  O   UNL     1       5.088   4.288  14.450  0.00  0.00    +0.000 OA
ATOM     15  C   UNL     1       6.178   3.816  13.650  0.00  0.00    +0.000 C 
ATOM     16  C   UNL     1       7.228   4.902  13.479  0.00  0.00    +0.000 C 
ATOM     17  O   UNL     1       7.811   5.249  14.737  0.00  0.00    +0.000 OA
ENDBRANCH   7   8
ENDBRANCH   1   3
BRANCH   1  19
ATOM     18  N   UNL     1       0.916   9.426  19.548  0.00  0.00    +0.000 N 
ATOM     19  C   UNL     1       1.886   8.646  18.946  0.00  0.00    +0.000 C 
ATOM     20  O   UNL     1       2.423   8.993  17.891  0.00  0.00    +0.000 OA
ATOM     21  H   UNL     1       0.418   9.081  20.357  0.00  0.00    +0.000 HD
BRANCH  18  23
ATOM     22  C   UNL     1       0.812  11.862  20.004  0.00  0.00    +0.000 C 
ATOM     23  C   UNL     1       0.565  10.730  19.002  0.00  0.00    +0.000 C 
BRANCH  23  24
ATOM     24  C   UNL     1      -0.866  10.764  18.498  0.00  0.00    +0.000 A 
ATOM     25  C   UNL     1      -1.768  11.685  19.063  0.00  0.00    +0.000 A 
ATOM     26  C   UNL     1      -3.114  11.675  18.702  0.00  0.00    +0.000 A 
ATOM     27  C   UNL     1      -3.565  10.752  17.769  0.00  0.00    +0.000 A 
ATOM     28  F   UNL     1      -4.863  10.724  17.441  0.00  0.00    +0.000 F 
ATOM     29  C   UNL     1      -2.690   9.848  17.178  0.00  0.00    +0.000 A 
ATOM     30  C   UNL     1      -1.340   9.858  17.535  0.00  0.00    +0.000 A 
ENDBRANCH  23  24
ENDBRANCH  18  23
ENDBRANCH   1  19
TORSDOF 5
ENDMDL
MODEL 6
REMARK VINA RESULT:      -8.2      3.731      8.244
REMARK  Name = 
REMARK  7 active torsions:
REMARK  status: ('A' for Active; 'I' for Inactive)
REMARK    1  A    between atoms: C_1  and  C_2
REMARK    2  A    between atoms: C_2  and  N_3
REMARK    3  A    between atoms: C_2  and  C_23
REMARK    4  A    between atoms: C_4  and  C_6
REMARK    5  A    between atoms: C_6  and  C_7
REMARK    6  A    between atoms: C_6  and  N_8
REMARK    7  A    between atoms: C_12  and  C_13
REMARK                            x       y       z     vdW  Elec       q    Type
REMARK                         _______ _______ _______ _____ _____    ______ ____
ROOT
ATOM      1  C   UNL     1       2.264   6.692  19.920  0.00  0.00    +0.000 C 
ATOM      2  C   UNL     1       0.978   6.173  20.574  0.00  0.00    +0.000 C 
ENDROOT
BRANCH   1   3
ATOM      3  N   UNL     1       2.779   5.713  18.918  0.00  0.00    +0.000 NA
ATOM      4  C   UNL     1       1.966   4.491  18.838  0.00  0.00    +0.000 C 
ATOM      5  C   UNL     1       2.620   3.508  19.780  0.00  0.00    +0.000 C 
ATOM      6  C   UNL     1       4.095   3.821  19.661  0.00  0.00    +0.000 C 
ATOM      7  C   UNL     1       4.178   5.270  19.138  0.00  0.00    +0.000 C 
BRANCH   7   8
ATOM      8  C   UNL     1       5.074   5.315  17.900  0.00  0.00    +0.000 A 
ATOM      9  C   UNL     1       6.356   5.889  18.032  0.00  0.00    +0.000 A 
ATOM     10  C   UNL     1       7.263   5.890  16.972  0.00  0.00    +0.000 A 
ATOM     11  C   UNL     1       6.900   5.328  15.755  0.00  0.00    +0.000 A 
ATOM     12  C   UNL     1       5.631   4.762  15.598  0.00  0.00    +0.000 A 
ATOM     13  C   UNL     1       4.714   4.775  16.655  0.00  0.00    +0.000 A 
ATOM     14  O   UNL     1       5.221   4.163  14.432  0.00  0.00    +0.000 OA
ATOM     15  C   UNL     1       6.341   3.842  13.598  0.00  0.00    +0.000 C 
ATOM     16  C   UNL     1       7.287   5.027  13.490  0.00  0.00    +0.000 C 
ATOM     17  O   UNL     1       7.849   5.348  14.765  0.00  0.00    +0.000 OA
ENDBRANCH   7   8
ENDBRANCH   1   3
BRANCH   1  19
ATOM     18  N   UNL     1       1.123   8.899  20.055  0.00  0.00    +0.000 N 
ATOM     19  C   UNL     1       2.014   8.111  19.350  0.00  0.00    +0.000 C 
ATOM     20  O   UNL     1       2.583   8.534  18.340  0.00  0.00    +0.000 OA
ATOM     21  H   UNL     1       0.593   8.507  20.820  0.00  0.00    +0.000 HD
BRANCH  18  23
ATOM     22  C   UNL     1       1.057  11.242  20.867  0.00  0.00    +0.000 C 
ATOM     23  C   UNL     1       0.900  10.289  19.679  0.00  0.00    +0.000 C 
BRANCH  23  24
ATOM     24  C   UNL     1      -0.449  10.484  19.012  0.00  0.00    +0.000 A 
ATOM     25  C   UNL     1      -0.721   9.807  17.809  0.00  0.00    +0.000 A 
ATOM     26  C   UNL     1      -1.906  10.043  17.112  0.00  0.00    +0.000 A 
ATOM     27  C   UNL     1      -2.829  10.948  17.619  0.00  0.00    +0.000 A 
ATOM     28  F   UNL     1      -3.955  11.194  16.937  0.00  0.00    +0.000 F 
ATOM     29  C   UNL     1      -2.595  11.611  18.818  0.00  0.00    +0.000 A 
ATOM     30  C   UNL     1      -1.410  11.374  19.520  0.00  0.00    +0.000 A 
ENDBRANCH  23  24
ENDBRANCH  18  23
ENDBRANCH   1  19
TORSDOF 5
ENDMDL
MODEL 7
REMARK VINA RESULT:      -7.8      4.524      7.681
REMARK  Name = 
REMARK  7 active torsions:
REMARK  status: ('A' for Active; 'I' for Inactive)
REMARK    1  A    between atoms: C_1  and  C_2
REMARK    2  A    between atoms: C_2  and  N_3
REMARK    3  A    between atoms: C_2  and  C_23
REMARK    4  A    between atoms: C_4  and  C_6
REMARK    5  A    between atoms: C_6  and  C_7
REMARK    6  A    between atoms: C_6  and  N_8
REMARK    7  A    between atoms: C_12  and  C_13
REMARK                            x       y       z     vdW  Elec       q    Type
REMARK                         _______ _______ _______ _____ _____    ______ ____
ROOT
ATOM      1  C   UNL     1      -0.215   9.898  21.718  0.00  0.00    +0.000 C 
ATOM      2  C   UNL     1      -0.570   9.583  23.176  0.00  0.00    +0.000 C 
ENDROOT
BRANCH   1   3
ATOM      3  N   UNL     1      -0.072  11.370  21.515  0.00  0.00    +0.000 NA
ATOM      4  C   UNL     1      -0.920  12.160  22.419  0.00  0.00    +0.000 C 
ATOM      5  C   UNL     1      -2.196  12.419  21.653  0.00  0.00    +0.000 C 
ATOM      6  C   UNL     1      -1.732  12.566  20.220  0.00  0.00    +0.000 C 
ATOM      7  C   UNL     1      -0.371  11.844  20.141  0.00  0.00    +0.000 C 
BRANCH   7   8
ATOM      8  C   UNL     1       0.673  12.786  19.540  0.00  0.00    +0.000 A 
ATOM      9  C   UNL     1       1.756  12.212  18.840  0.00  0.00    +0.000 A 
ATOM     10  C   UNL     1       2.701  13.006  18.190  0.00  0.00    +0.000 A 
ATOM     11  C   UNL     1       2.589  14.389  18.239  0.00  0.00    +0.000 A 
ATOM     12  C   UNL     1       1.528  14.979  18.934  0.00  0.00    +0.000 A 
ATOM     13  C   UNL     1       0.589  14.185  19.600  0.00  0.00    +0.000 A 
ATOM     14  O   UNL     1       1.342  16.339  18.995  0.00  0.00    +0.000 OA
ATOM     15  C   UNL     1       2.085  17.005  17.967  0.00  0.00    +0.000 C 
ATOM     16  C   UNL     1       3.514  16.489  17.917  0.00  0.00    +0.000 C 
ATOM     17  O   UNL     1       3.543  15.105  17.562  0.00  0.00    +0.000 OA
ENDBRANCH   7   8
ENDBRANCH   1   3
BRANCH   1  19
ATOM     18  N   UNL     1       1.019   8.561  20.020  0.00  0.00    +0.000 N 
ATOM     19  C   UNL     1       1.032   9.076  21.304  0.00  0.00    +0.000 C 
ATOM     20  O   UNL     1       1.994   8.899  22.055  0.00  0.00    +0.000 OA
ATOM     21  H   UNL     1       0.186   8.631  19.453  0.00  0.00    +0.000 HD
BRANCH  18  23
ATOM     22  C   UNL     1       2.564   8.378  18.087  0.00  0.00    +0.000 C 
ATOM     23  C   UNL     1       2.186   7.873  19.483  0.00  0.00    +0.000 C 
BRANCH  23  24
ATOM     24  C   UNL     1       1.998   6.367  19.474  0.00  0.00    +0.000 A 
ATOM     25  C   UNL     1       2.147   5.667  18.263  0.00  0.00    +0.000 A 
ATOM     26  C   UNL     1       1.879   4.300  18.193  0.00  0.00    +0.000 A 
ATOM     27  C   UNL     1       1.470   3.625  19.335  0.00  0.00    +0.000 A 
ATOM     28  F   UNL     1       1.186   2.318  19.262  0.00  0.00    +0.000 F 
ATOM     29  C   UNL     1       1.338   4.288  20.548  0.00  0.00    +0.000 A 
ATOM     30  C   UNL     1       1.609   5.657  20.622  0.00  0.00    +0.000 A 
ENDBRANCH  23  24
ENDBRANCH  18  23
ENDBRANCH   1  19
TORSDOF 5
ENDMDL
MODEL 8
REMARK VINA RESULT:      -7.7      1.506      2.101
REMARK  Name = 
REMARK  7 active torsions:
REMARK  status: ('A' for Active; 'I' for Inactive)
REMARK    1  A    between atoms: C_1  and  C_2
REMARK    2  A    between atoms: C_2  and  N_3
REMARK    3  A    between atoms: C_2  and  C_23
REMARK    4  A    between atoms: C_4  and  C_6
REMARK    5  A    between atoms: C_6  and  C_7
REMARK    6  A    between atoms: C_6  and  N_8
REMARK    7  A    between atoms: C_12  and  C_13
REMARK                            x       y       z     vdW  Elec       q    Type
REMARK                         _______ _______ _______ _____ _____    ______ ____
ROOT
ATOM      1  C   UNL     1       2.710   4.810  17.541  0.00  0.00    +0.000 C 
ATOM      2  C   UNL     1       1.589   3.852  17.957  0.00  0.00    +0.000 C 
ENDROOT
BRANCH   1   3
ATOM      3  N   UNL     1       2.942   5.842  18.595  0.00  0.00    +0.000 NA
ATOM      4  C   UNL     1       3.824   5.375  19.673  0.00  0.00    +0.000 C 
ATOM      5  C   UNL     1       2.905   4.833  20.742  0.00  0.00    +0.000 C 
ATOM      6  C   UNL     1       1.693   5.736  20.667  0.00  0.00    +0.000 C 
ATOM      7  C   UNL     1       1.713   6.351  19.253  0.00  0.00    +0.000 C 
BRANCH   7   8
ATOM      8  C   UNL     1       1.617   7.874  19.356  0.00  0.00    +0.000 A 
ATOM      9  C   UNL     1       1.849   8.632  18.189  0.00  0.00    +0.000 A 
ATOM     10  C   UNL     1       1.695  10.018  18.182  0.00  0.00    +0.000 A 
ATOM     11  C   UNL     1       1.320  10.675  19.347  0.00  0.00    +0.000 A 
ATOM     12  C   UNL     1       1.093   9.944  20.518  0.00  0.00    +0.000 A 
ATOM     13  C   UNL     1       1.263   8.556  20.530  0.00  0.00    +0.000 A 
ATOM     14  O   UNL     1       0.690  10.528  21.694  0.00  0.00    +0.000 OA
ATOM     15  C   UNL     1       0.159  11.838  21.461  0.00  0.00    +0.000 C 
ATOM     16  C   UNL     1       1.080  12.638  20.555  0.00  0.00    +0.000 C 
ATOM     17  O   UNL     1       1.170  12.036  19.261  0.00  0.00    +0.000 OA
ENDBRANCH   7   8
ENDBRANCH   1   3
BRANCH   1  19
ATOM     18  N   UNL     1       4.945   4.672  16.456  0.00  0.00    +0.000 N 
ATOM     19  C   UNL     1       3.972   3.993  17.167  0.00  0.00    +0.000 C 
ATOM     20  O   UNL     1       4.124   2.813  17.492  0.00  0.00    +0.000 OA
ATOM     21  H   UNL     1       4.765   5.605  16.113  0.00  0.00    +0.000 HD
BRANCH  18  23
ATOM     22  C   UNL     1       7.350   4.547  17.055  0.00  0.00    +0.000 C 
ATOM     23  C   UNL     1       6.222   4.039  16.151  0.00  0.00    +0.000 C 
BRANCH  23  24
ATOM     24  C   UNL     1       6.596   4.199  14.689  0.00  0.00    +0.000 A 
ATOM     25  C   UNL     1       7.576   5.144  14.334  0.00  0.00    +0.000 A 
ATOM     26  C   UNL     1       7.871   5.394  12.994  0.00  0.00    +0.000 A 
ATOM     27  C   UNL     1       7.195   4.694  12.003  0.00  0.00    +0.000 A 
ATOM     28  F   UNL     1       7.458   4.953  10.716  0.00  0.00    +0.000 F 
ATOM     29  C   UNL     1       6.240   3.739  12.329  0.00  0.00    +0.000 A 
ATOM     30  C   UNL     1       5.945   3.483  13.670  0.00  0.00    +0.000 A 
ENDBRANCH  23  24
ENDBRANCH  18  23
ENDBRANCH   1  19
TORSDOF 5
ENDMDL
MODEL 9
REMARK VINA RESULT:      -7.7      7.411     11.355
REMARK  Name = 
REMARK  7 active torsions:
REMARK  status: ('A' for Active; 'I' for Inactive)
REMARK    1  A    between atoms: C_1  and  C_2
REMARK    2  A    between atoms: C_2  and  N_3
REMARK    3  A    between atoms: C_2  and  C_23
REMARK    4  A    between atoms: C_4  and  C_6
REMARK    5  A    between atoms: C_6  and  C_7
REMARK    6  A    between atoms: C_6  and  N_8
REMARK    7  A    between atoms: C_12  and  C_13
REMARK                            x       y       z     vdW  Elec       q    Type
REMARK                         _______ _______ _______ _____ _____    ______ ____
ROOT
ATOM      1  C   UNL     1      -5.977  13.090  22.620  0.00  0.00    +0.000 C 
ATOM      2  C   UNL     1      -7.020  12.680  23.665  0.00  0.00    +0.000 C 
ENDROOT
BRANCH   1   3
ATOM      3  N   UNL     1      -4.631  12.552  22.977  0.00  0.00    +0.000 NA
ATOM      4  C   UNL     1      -4.369  12.572  24.423  0.00  0.00    +0.000 C 
ATOM      5  C   UNL     1      -3.654  13.877  24.686  0.00  0.00    +0.000 C 
ATOM      6  C   UNL     1      -2.815  14.085  23.444  0.00  0.00    +0.000 C 
ATOM      7  C   UNL     1      -3.488  13.248  22.336  0.00  0.00    +0.000 C 
BRANCH   7   8
ATOM      8  C   UNL     1      -2.451  12.330  21.688  0.00  0.00    +0.000 A 
ATOM      9  C   UNL     1      -2.224  12.464  20.302  0.00  0.00    +0.000 A 
ATOM     10  C   UNL     1      -1.234  11.724  19.655  0.00  0.00    +0.000 A 
ATOM     11  C   UNL     1      -0.462  10.825  20.379  0.00  0.00    +0.000 A 
ATOM     12  C   UNL     1      -0.676  10.670  21.752  0.00  0.00    +0.000 A 
ATOM     13  C   UNL     1      -1.679  11.400  22.400  0.00  0.00    +0.000 A 
ATOM     14  O   UNL     1       0.073   9.822  22.532  0.00  0.00    +0.000 OA
ATOM     15  C   UNL     1       1.294   9.465  21.874  0.00  0.00    +0.000 C 
ATOM     16  C   UNL     1       1.028   9.052  20.436  0.00  0.00    +0.000 C 
ATOM     17  O   UNL     1       0.504  10.147  19.680  0.00  0.00    +0.000 OA
ENDBRANCH   7   8
ENDBRANCH   1   3
BRANCH   1  19
ATOM     18  N   UNL     1      -5.878  11.552  20.666  0.00  0.00    +0.000 N 
ATOM     19  C   UNL     1      -6.471  12.677  21.210  0.00  0.00    +0.000 C 
ATOM     20  O   UNL     1      -7.353  13.292  20.606  0.00  0.00    +0.000 OA
ATOM     21  H   UNL     1      -5.091  11.119  21.128  0.00  0.00    +0.000 HD
BRANCH  18  23
ATOM     22  C   UNL     1      -7.045   9.654  19.576  0.00  0.00    +0.000 C 
ATOM     23  C   UNL     1      -6.345  11.004  19.399  0.00  0.00    +0.000 C 
BRANCH  23  24
ATOM     24  C   UNL     1      -5.223  10.895  18.383  0.00  0.00    +0.000 A 
ATOM     25  C   UNL     1      -5.181  11.806  17.311  0.00  0.00    +0.000 A 
ATOM     26  C   UNL     1      -4.228  11.672  16.301  0.00  0.00    +0.000 A 
ATOM     27  C   UNL     1      -3.309  10.634  16.362  0.00  0.00    +0.000 A 
ATOM     28  F   UNL     1      -2.411  10.489  15.379  0.00  0.00    +0.000 F 
ATOM     29  C   UNL     1      -3.314   9.736  17.422  0.00  0.00    +0.000 A 
ATOM     30  C   UNL     1      -4.264   9.870  18.438  0.00  0.00    +0.000 A 
ENDBRANCH  23  24
ENDBRANCH  18  23
ENDBRANCH   1  19
TORSDOF 5
ENDMDL
