MODEL 1
REMARK VINA RESULT:      -7.9      0.000      0.000
REMARK  Name = 
REMARK  8 active torsions:
REMARK  status: ('A' for Active; 'I' for Inactive)
REMARK    1  A    between atoms: C_1  and  C_2
REMARK    2  A    between atoms: C_2  and  C_4
REMARK    3  A    between atoms: C_4  and  C_5
REMARK    4  A    between atoms: C_10  and  C_12
REMARK    5  A    between atoms: C_15  and  C_16
REMARK    6  A    between atoms: C_16  and  O_17
REMARK    7  A    between atoms: O_17  and  C_18
REMARK    8  A    between atoms: C_22  and  C_23
REMARK                            x       y       z     vdW  Elec       q    Type
REMARK                         _______ _______ _______ _____ _____    ______ ____
ROOT
ATOM      1  C   UNL     1       1.615   8.582  19.429  0.00  0.00    +0.000 A 
ATOM      2  C   UNL     1       1.266   8.500  20.765  0.00  0.00    +0.000 A 
ATOM      3  C   UNL     1       0.457   9.627  21.051  0.00  0.00    +0.000 A 
ATOM      4  C   UNL     1       0.348  10.337  19.873  0.00  0.00    +0.000 A 
ATOM      5  O   UNL     1       1.046   9.705  18.879  0.00  0.00    +0.000 OA
ENDROOT
BRANCH   1  11
ATOM      6  C   UNL     1       4.620   4.281  17.206  0.00  0.00    +0.000 A 
ATOM      7  N   UNL     1       4.144   3.247  17.906  0.00  0.00    +0.000 NA
ATOM      8  S   UNL     1       3.117   3.888  19.064  0.00  0.00    +0.000 S 
ATOM      9  C   UNL     1       3.339   5.492  18.514  0.00  0.00    +0.000 A 
ATOM     10  N   UNL     1       2.620   6.463  19.148  0.00  0.00    +0.000 N 
ATOM     11  C   UNL     1       2.445   7.715  18.604  0.00  0.00    +0.000 C 
ATOM     12  O   UNL     1       2.890   8.086  17.521  0.00  0.00    +0.000 OA
ATOM     13  N   UNL     1       4.190   5.571  17.521  0.00  0.00    +0.000 NA
ATOM     14  H   UNL     1       2.096   6.220  19.978  0.00  0.00    +0.000 HD
BRANCH   6  15
ATOM     15  C   UNL     1       5.632   4.083  16.135  0.00  0.00    +0.000 C 
BRANCH  15  17
ATOM     16  C   UNL     1       7.651   4.629  17.654  0.00  0.00    +0.000 C 
ATOM     17  C   UNL     1       6.886   4.884  16.380  0.00  0.00    +0.000 C 
ATOM     18  O   UNL     1       7.333   5.653  15.525  0.00  0.00    +0.000 OA
ENDBRANCH  15  17
ENDBRANCH   6  15
ENDBRANCH   1  11
BRANCH   4  19
ATOM     19  C   UNL     1      -0.368  11.590  19.506  0.00  0.00    +0.000 C 
BRANCH  19  20
ATOM     20  O   UNL     1      -1.766  11.308  19.579  0.00  0.00    +0.000 OA
BRANCH  20  21
ATOM     21  C   UNL     1      -2.433  11.146  18.395  0.00  0.00    +0.000 A 
ATOM     22  C   UNL     1      -1.952  10.471  17.270  0.00  0.00    +0.000 A 
ATOM     23  C   UNL     1      -2.744  10.371  16.120  0.00  0.00    +0.000 A 
ATOM     24  C   UNL     1      -4.010  10.943  16.086  0.00  0.00    +0.000 A 
ATOM     25  C   UNL     1      -4.508  11.629  17.199  0.00  0.00    +0.000 A 
ATOM     26  C   UNL     1      -5.874  12.248  17.171  0.00  0.00    +0.000 C 
ATOM     27  C   UNL     1      -3.707  11.724  18.347  0.00  0.00    +0.000 A 
ENDBRANCH  20  21
ENDBRANCH  19  20
ENDBRANCH   4  19
TORSDOF 6
ENDMDL
MODEL 2
REMARK VINA RESULT:      -7.8      0.495      1.318
REMARK  Name = 
REMARK  8 active torsions:
REMARK  status: ('A' for Active; 'I' for Inactive)
REMARK    1  A    between atoms: C_1  and  C_2
REMARK    2  A    between atoms: C_2  and  C_4
REMARK    3  A    between atoms: C_4  and  C_5
REMARK    4  A    between atoms: C_10  and  C_12
REMARK    5  A    between atoms: C_15  and  C_16
REMARK    6  A    between atoms: C_16  and  O_17
REMARK    7  A    between atoms: O_17  and  C_18
REMARK    8  A    between atoms: C_22  and  C_23
REMARK                            x       y       z     vdW  Elec       q    Type
REMARK                         _______ _______ _______ _____ _____    ______ ____
ROOT
ATOM      1  C   UNL     1       1.633   8.557  19.214  0.00  0.00    +0.000 A 
ATOM      2  C   UNL     1       1.214   8.453  20.527  0.00  0.00    +0.000 A 
ATOM      3  C   UNL     1       0.381   9.570  20.784  0.00  0.00    +0.000 A 
ATOM      4  C   UNL     1       0.329  10.295  19.612  0.00  0.00    +0.000 A 
ATOM      5  O   UNL     1       1.086   9.683  18.648  0.00  0.00    +0.000 OA
ENDROOT
BRANCH   1  11
ATOM      6  C   UNL     1       4.576   4.245  16.929  0.00  0.00    +0.000 A 
ATOM      7  N   UNL     1       3.887   3.194  17.385  0.00  0.00    +0.000 NA
ATOM      8  S   UNL     1       2.732   3.802  18.436  0.00  0.00    +0.000 S 
ATOM      9  C   UNL     1       3.199   5.424  18.166  0.00  0.00    +0.000 A 
ATOM     10  N   UNL     1       2.470   6.387  18.804  0.00  0.00    +0.000 N 
ATOM     11  C   UNL     1       2.515   7.708  18.422  0.00  0.00    +0.000 C 
ATOM     12  O   UNL     1       3.181   8.156  17.493  0.00  0.00    +0.000 OA
ATOM     13  N   UNL     1       4.219   5.527  17.349  0.00  0.00    +0.000 NA
ATOM     14  H   UNL     1       1.786   6.106  19.491  0.00  0.00    +0.000 HD
BRANCH   6  15
ATOM     15  C   UNL     1       5.742   4.065  16.025  0.00  0.00    +0.000 C 
BRANCH  15  17
ATOM     16  C   UNL     1       7.655   4.601  17.678  0.00  0.00    +0.000 C 
ATOM     17  C   UNL     1       6.907   4.939  16.414  0.00  0.00    +0.000 C 
ATOM     18  O   UNL     1       7.304   5.845  15.676  0.00  0.00    +0.000 OA
ENDBRANCH  15  17
ENDBRANCH   6  15
ENDBRANCH   1  11
BRANCH   4  19
ATOM     19  C   UNL     1      -0.377  11.547  19.224  0.00  0.00    +0.000 C 
BRANCH  19  20
ATOM     20  O   UNL     1      -1.722  11.430  19.690  0.00  0.00    +0.000 OA
BRANCH  20  21
ATOM     21  C   UNL     1      -2.713  11.457  18.747  0.00  0.00    +0.000 A 
ATOM     22  C   UNL     1      -4.012  11.934  18.938  0.00  0.00    +0.000 A 
ATOM     23  C   UNL     1      -4.931  11.913  17.881  0.00  0.00    +0.000 A 
ATOM     24  C   UNL     1      -4.560  11.416  16.638  0.00  0.00    +0.000 A 
ATOM     25  C   UNL     1      -3.266  10.928  16.426  0.00  0.00    +0.000 A 
ATOM     26  C   UNL     1      -2.857  10.392  15.086  0.00  0.00    +0.000 C 
ATOM     27  C   UNL     1      -2.353  10.953  17.491  0.00  0.00    +0.000 A 
ENDBRANCH  20  21
ENDBRANCH  19  20
ENDBRANCH   4  19
TORSDOF 6
ENDMDL
MODEL 3
REMARK VINA RESULT:      -7.7      3.843      8.869
REMARK  Name = 
REMARK  8 active torsions:
REMARK  status: ('A' for Active; 'I' for Inactive)
REMARK    1  A    between atoms: C_1  and  C_2
REMARK    2  A    between atoms: C_2  and  C_4
REMARK    3  A    between atoms: C_4  and  C_5
REMARK    4  A    between atoms: C_10  and  C_12
REMARK    5  A    between atoms: C_15  and  C_16
REMARK    6  A    between atoms: C_16  and  O_17
REMARK    7  A    between atoms: O_17  and  C_18
REMARK    8  A    between atoms: C_22  and  C_23
REMARK                            x       y       z     vdW  Elec       q    Type
REMARK                         _______ _______ _______ _____ _____    ______ ____
ROOT
ATOM      1  C   UNL     1       2.289   5.703  20.144  0.00  0.00    +0.000 A 
ATOM      2  C   UNL     1       1.595   4.693  20.786  0.00  0.00    +0.000 A 
ATOM      3  C   UNL     1       2.314   3.493  20.564  0.00  0.00    +0.000 A 
ATOM      4  C   UNL     1       3.414   3.832  19.804  0.00  0.00    +0.000 A 
ATOM      5  O   UNL     1       3.409   5.178  19.548  0.00  0.00    +0.000 OA
ENDROOT
BRANCH   1  11
ATOM      6  C   UNL     1       0.540  11.080  20.860  0.00  0.00    +0.000 A 
ATOM      7  N   UNL     1       0.241  11.080  22.162  0.00  0.00    +0.000 NA
ATOM      8  S   UNL     1       0.416   9.501  22.692  0.00  0.00    +0.000 S 
ATOM      9  C   UNL     1       0.929   8.940  21.161  0.00  0.00    +0.000 A 
ATOM     10  N   UNL     1       1.272   7.622  21.074  0.00  0.00    +0.000 N 
ATOM     11  C   UNL     1       2.006   7.127  20.020  0.00  0.00    +0.000 C 
ATOM     12  O   UNL     1       2.430   7.790  19.077  0.00  0.00    +0.000 OA
ATOM     13  N   UNL     1       0.933   9.885  20.253  0.00  0.00    +0.000 NA
ATOM     14  H   UNL     1       1.092   7.017  21.862  0.00  0.00    +0.000 HD
BRANCH   6  15
ATOM     15  C   UNL     1       0.414  12.314  20.041  0.00  0.00    +0.000 C 
BRANCH  15  17
ATOM     16  C   UNL     1       2.589  13.557  20.677  0.00  0.00    +0.000 C 
ATOM     17  C   UNL     1       1.755  12.865  19.629  0.00  0.00    +0.000 C 
ATOM     18  O   UNL     1       2.207  12.671  18.497  0.00  0.00    +0.000 OA
ENDBRANCH  15  17
ENDBRANCH   6  15
ENDBRANCH   1  11
BRANCH   4  19
ATOM     19  C   UNL     1       4.552   3.043  19.257  0.00  0.00    +0.000 C 
BRANCH  19  20
ATOM     20  O   UNL     1       5.715   3.866  19.356  0.00  0.00    +0.000 OA
BRANCH  20  21
ATOM     21  C   UNL     1       6.094   4.548  18.232  0.00  0.00    +0.000 A 
ATOM     22  C   UNL     1       5.901   4.127  16.914  0.00  0.00    +0.000 A 
ATOM     23  C   UNL     1       6.331   4.930  15.850  0.00  0.00    +0.000 A 
ATOM     24  C   UNL     1       6.955   6.146  16.096  0.00  0.00    +0.000 A 
ATOM     25  C   UNL     1       7.164   6.584  17.407  0.00  0.00    +0.000 A 
ATOM     26  C   UNL     1       7.835   7.898  17.681  0.00  0.00    +0.000 C 
ATOM     27  C   UNL     1       6.730   5.773  18.467  0.00  0.00    +0.000 A 
ENDBRANCH  20  21
ENDBRANCH  19  20
ENDBRANCH   4  19
TORSDOF 6
ENDMDL
MODEL 4
REMARK VINA RESULT:      -7.7      1.696      2.295
REMARK  Name = 
REMARK  8 active torsions:
REMARK  status: ('A' for Active; 'I' for Inactive)
REMARK    1  A    between atoms: C_1  and  C_2
REMARK    2  A    between atoms: C_2  and  C_4
REMARK    3  A    between atoms: C_4  and  C_5
REMARK    4  A    between atoms: C_10  and  C_12
REMARK    5  A    between atoms: C_15  and  C_16
REMARK    6  A    between atoms: C_16  and  O_17
REMARK    7  A    between atoms: O_17  and  C_18
REMARK    8  A    between atoms: C_22  and  C_23
REMARK                            x       y       z     vdW  Elec       q    Type
REMARK                         _______ _______ _______ _____ _____    ______ ____
ROOT
ATOM      1  C   UNL     1       0.841   8.840  20.839  0.00  0.00    +0.000 A 
ATOM      2  C   UNL     1       0.422   8.983  22.150  0.00  0.00    +0.000 A 
ATOM      3  C   UNL     1      -0.370  10.155  22.204  0.00  0.00    +0.000 A 
ATOM      4  C   UNL     1      -0.400  10.666  20.923  0.00  0.00    +0.000 A 
ATOM      5  O   UNL     1       0.332   9.868  20.084  0.00  0.00    +0.000 OA
ENDROOT
BRANCH   1  11
ATOM      6  C   UNL     1       3.774   4.150  19.467  0.00  0.00    +0.000 A 
ATOM      7  N   UNL     1       3.175   3.239  20.239  0.00  0.00    +0.000 NA
ATOM      8  S   UNL     1       2.087   4.071  21.203  0.00  0.00    +0.000 S 
ATOM      9  C   UNL     1       2.454   5.579  20.485  0.00  0.00    +0.000 A 
ATOM     10  N   UNL     1       1.739   6.657  20.921  0.00  0.00    +0.000 N 
ATOM     11  C   UNL     1       1.690   7.835  20.212  0.00  0.00    +0.000 C 
ATOM     12  O   UNL     1       2.254   8.042  19.140  0.00  0.00    +0.000 OA
ATOM     13  N   UNL     1       3.395   5.489  19.577  0.00  0.00    +0.000 NA
ATOM     14  H   UNL     1       1.129   6.548  21.719  0.00  0.00    +0.000 HD
BRANCH   6  15
ATOM     15  C   UNL     1       4.866   3.768  18.533  0.00  0.00    +0.000 C 
BRANCH  15  17
ATOM     16  C   UNL     1       5.458   4.065  16.035  0.00  0.00    +0.000 C 
ATOM     17  C   UNL     1       4.420   3.794  17.093  0.00  0.00    +0.000 C 
ATOM     18  O   UNL     1       3.263   3.504  16.775  0.00  0.00    +0.000 OA
ENDBRANCH  15  17
ENDBRANCH   6  15
ENDBRANCH   1  11
BRANCH   4  19
ATOM     19  C   UNL     1      -1.062  11.854  20.319  0.00  0.00    +0.000 C 
BRANCH  19  20
ATOM     20  O   UNL     1      -1.035  11.672  18.902  0.00  0.00    +0.000 OA
BRANCH  20  21
ATOM     21  C   UNL     1      -2.240  11.540  18.267  0.00  0.00    +0.000 A 
ATOM     22  C   UNL     1      -3.490  11.848  18.809  0.00  0.00    +0.000 A 
ATOM     23  C   UNL     1      -4.650  11.674  18.044  0.00  0.00    +0.000 A 
ATOM     24  C   UNL     1      -4.567  11.190  16.744  0.00  0.00    +0.000 A 
ATOM     25  C   UNL     1      -3.327  10.869  16.184  0.00  0.00    +0.000 A 
ATOM     26  C   UNL     1      -3.230  10.347  14.781  0.00  0.00    +0.000 C 
ATOM     27  C   UNL     1      -2.171  11.047  16.958  0.00  0.00    +0.000 A 
ENDBRANCH  20  21
ENDBRANCH  19  20
ENDBRANCH   4  19
TORSDOF 6
ENDMDL
MODEL 5
REMARK VINA RESULT:      -7.7      3.202      9.155
REMARK  Name = 
REMARK  8 active torsions:
REMARK  status: ('A' for Active; 'I' for Inactive)
REMARK    1  A    between atoms: C_1  and  C_2
REMARK    2  A    between atoms: C_2  and  C_4
REMARK    3  A    between atoms: C_4  and  C_5
REMARK    4  A    between atoms: C_10  and  C_12
REMARK    5  A    between atoms: C_15  and  C_16
REMARK    6  A    between atoms: C_16  and  O_17
REMARK    7  A    between atoms: O_17  and  C_18
REMARK    8  A    between atoms: C_22  and  C_23
REMARK                            x       y       z     vdW  Elec       q    Type
REMARK                         _______ _______ _______ _____ _____    ______ ____
ROOT
ATOM      1  C   UNL     1       2.293   5.792  20.191  0.00  0.00    +0.000 A 
ATOM      2  C   UNL     1       1.693   4.783  20.922  0.00  0.00    +0.000 A 
ATOM      3  C   UNL     1       2.403   3.590  20.639  0.00  0.00    +0.000 A 
ATOM      4  C   UNL     1       3.404   3.933  19.754  0.00  0.00    +0.000 A 
ATOM      5  O   UNL     1       3.347   5.274  19.479  0.00  0.00    +0.000 OA
ENDROOT
BRANCH   1  11
ATOM      6  C   UNL     1       0.412  11.117  20.952  0.00  0.00    +0.000 A 
ATOM      7  N   UNL     1       0.120  11.102  22.256  0.00  0.00    +0.000 NA
ATOM      8  S   UNL     1       0.338   9.524  22.774  0.00  0.00    +0.000 S 
ATOM      9  C   UNL     1       0.857   8.987  21.236  0.00  0.00    +0.000 A 
ATOM     10  N   UNL     1       1.232   7.678  21.138  0.00  0.00    +0.000 N 
ATOM     11  C   UNL     1       1.973   7.209  20.077  0.00  0.00    +0.000 C 
ATOM     12  O   UNL     1       2.375   7.889  19.137  0.00  0.00    +0.000 OA
ATOM     13  N   UNL     1       0.832   9.938  20.335  0.00  0.00    +0.000 NA
ATOM     14  H   UNL     1       1.072   7.064  21.924  0.00  0.00    +0.000 HD
BRANCH   6  15
ATOM     15  C   UNL     1       0.250  12.354  20.142  0.00  0.00    +0.000 C 
BRANCH  15  17
ATOM     16  C   UNL     1      -2.333  12.366  20.063  0.00  0.00    +0.000 C 
ATOM     17  C   UNL     1      -1.018  12.340  19.327  0.00  0.00    +0.000 C 
ATOM     18  O   UNL     1      -0.989  12.407  18.095  0.00  0.00    +0.000 OA
ENDBRANCH  15  17
ENDBRANCH   6  15
ENDBRANCH   1  11
BRANCH   4  19
ATOM     19  C   UNL     1       4.486   3.152  19.093  0.00  0.00    +0.000 C 
BRANCH  19  20
ATOM     20  O   UNL     1       5.698   3.886  19.272  0.00  0.00    +0.000 OA
BRANCH  20  21
ATOM     21  C   UNL     1       6.160   4.598  18.199  0.00  0.00    +0.000 A 
ATOM     22  C   UNL     1       6.061   4.217  16.859  0.00  0.00    +0.000 A 
ATOM     23  C   UNL     1       6.571   5.047  15.853  0.00  0.00    +0.000 A 
ATOM     24  C   UNL     1       7.180   6.252  16.178  0.00  0.00    +0.000 A 
ATOM     25  C   UNL     1       7.296   6.651  17.514  0.00  0.00    +0.000 A 
ATOM     26  C   UNL     1       7.951   7.951  17.873  0.00  0.00    +0.000 C 
ATOM     27  C   UNL     1       6.783   5.812  18.515  0.00  0.00    +0.000 A 
ENDBRANCH  20  21
ENDBRANCH  19  20
ENDBRANCH   4  19
TORSDOF 6
ENDMDL
MODEL 6
REMARK VINA RESULT:      -7.6      3.371      9.129
REMARK  Name = 
REMARK  8 active torsions:
REMARK  status: ('A' for Active; 'I' for Inactive)
REMARK    1  A    between atoms: C_1  and  C_2
REMARK    2  A    between atoms: C_2  and  C_4
REMARK    3  A    between atoms: C_4  and  C_5
REMARK    4  A    between atoms: C_10  and  C_12
REMARK    5  A    between atoms: C_15  and  C_16
REMARK    6  A    between atoms: C_16  and  O_17
REMARK    7  A    between atoms: O_17  and  C_18
REMARK    8  A    between atoms: C_22  and  C_23
REMARK                            x       y       z     vdW  Elec       q    Type
REMARK                         _______ _______ _______ _____ _____    ______ ____
ROOT
ATOM      1  C   UNL     1       2.113   5.775  20.189  0.00  0.00    +0.000 A 
ATOM      2  C   UNL     1       1.396   4.740  20.762  0.00  0.00    +0.000 A 
ATOM      3  C   UNL     1       2.083   3.541  20.450  0.00  0.00    +0.000 A 
ATOM      4  C   UNL     1       3.186   3.905  19.707  0.00  0.00    +0.000 A 
ATOM      5  O   UNL     1       3.215   5.266  19.548  0.00  0.00    +0.000 OA
ENDROOT
BRANCH   1  11
ATOM      6  C   UNL     1       0.462  11.121  21.273  0.00  0.00    +0.000 A 
ATOM      7  N   UNL     1       0.123  11.027  22.563  0.00  0.00    +0.000 NA
ATOM      8  S   UNL     1       0.245   9.407  22.972  0.00  0.00    +0.000 S 
ATOM      9  C   UNL     1       0.794   8.956  21.417  0.00  0.00    +0.000 A 
ATOM     10  N   UNL     1       1.109   7.640  21.236  0.00  0.00    +0.000 N 
ATOM     11  C   UNL     1       1.865   7.211  20.169  0.00  0.00    +0.000 C 
ATOM     12  O   UNL     1       2.334   7.935  19.294  0.00  0.00    +0.000 OA
ATOM     13  N   UNL     1       0.847   9.968  20.586  0.00  0.00    +0.000 NA
ATOM     14  H   UNL     1       0.891   6.980  21.969  0.00  0.00    +0.000 HD
BRANCH   6  15
ATOM     15  C   UNL     1       0.390  12.418  20.552  0.00  0.00    +0.000 C 
BRANCH  15  17
ATOM     16  C   UNL     1      -0.530  13.156  18.252  0.00  0.00    +0.000 C 
ATOM     17  C   UNL     1      -0.754  12.462  19.571  0.00  0.00    +0.000 C 
ATOM     18  O   UNL     1      -1.812  11.865  19.792  0.00  0.00    +0.000 OA
ENDBRANCH  15  17
ENDBRANCH   6  15
ENDBRANCH   1  11
BRANCH   4  19
ATOM     19  C   UNL     1       4.300   3.129  19.096  0.00  0.00    +0.000 C 
BRANCH  19  20
ATOM     20  O   UNL     1       5.511   3.815  19.415  0.00  0.00    +0.000 OA
BRANCH  20  21
ATOM     21  C   UNL     1       6.051   4.614  18.443  0.00  0.00    +0.000 A 
ATOM     22  C   UNL     1       6.898   5.704  18.656  0.00  0.00    +0.000 A 
ATOM     23  C   UNL     1       7.389   6.435  17.567  0.00  0.00    +0.000 A 
ATOM     24  C   UNL     1       7.035   6.085  16.270  0.00  0.00    +0.000 A 
ATOM     25  C   UNL     1       6.184   5.001  16.035  0.00  0.00    +0.000 A 
ATOM     26  C   UNL     1       5.799   4.615  14.637  0.00  0.00    +0.000 C 
ATOM     27  C   UNL     1       5.697   4.275  17.132  0.00  0.00    +0.000 A 
ENDBRANCH  20  21
ENDBRANCH  19  20
ENDBRANCH   4  19
TORSDOF 6
ENDMDL
MODEL 7
REMARK VINA RESULT:      -7.5      3.088      8.611
REMARK  Name = 
REMARK  8 active torsions:
REMARK  status: ('A' for Active; 'I' for Inactive)
REMARK    1  A    between atoms: C_1  and  C_2
REMARK    2  A    between atoms: C_2  and  C_4
REMARK    3  A    between atoms: C_4  and  C_5
REMARK    4  A    between atoms: C_10  and  C_12
REMARK    5  A    between atoms: C_15  and  C_16
REMARK    6  A    between atoms: C_16  and  O_17
REMARK    7  A    between atoms: O_17  and  C_18
REMARK    8  A    between atoms: C_22  and  C_23
REMARK                            x       y       z     vdW  Elec       q    Type
REMARK                         _______ _______ _______ _____ _____    ______ ____
ROOT
ATOM      1  C   UNL     1       3.571   7.308  17.759  0.00  0.00    +0.000 A 
ATOM      2  C   UNL     1       4.343   7.151  16.621  0.00  0.00    +0.000 A 
ATOM      3  C   UNL     1       5.192   6.041  16.849  0.00  0.00    +0.000 A 
ATOM      4  C   UNL     1       4.891   5.572  18.111  0.00  0.00    +0.000 A 
ATOM      5  O   UNL     1       3.901   6.336  18.671  0.00  0.00    +0.000 OA
ENDROOT
BRANCH   1  11
ATOM      6  C   UNL     1      -0.422  10.505  20.272  0.00  0.00    +0.000 A 
ATOM      7  N   UNL     1      -0.224  10.198  21.557  0.00  0.00    +0.000 NA
ATOM      8  S   UNL     1       0.930   8.983  21.585  0.00  0.00    +0.000 S 
ATOM      9  C   UNL     1       1.122   8.993  19.886  0.00  0.00    +0.000 A 
ATOM     10  N   UNL     1       2.063   8.149  19.371  0.00  0.00    +0.000 N 
ATOM     11  C   UNL     1       2.550   8.293  18.092  0.00  0.00    +0.000 C 
ATOM     12  O   UNL     1       2.214   9.170  17.299  0.00  0.00    +0.000 OA
ATOM     13  N   UNL     1       0.320   9.843  19.293  0.00  0.00    +0.000 NA
ATOM     14  H   UNL     1       2.506   7.479  19.983  0.00  0.00    +0.000 HD
BRANCH   6  15
ATOM     15  C   UNL     1      -1.449  11.501  19.869  0.00  0.00    +0.000 C 
BRANCH  15  17
ATOM     16  C   UNL     1      -0.431  13.284  18.300  0.00  0.00    +0.000 C 
ATOM     17  C   UNL     1      -0.867  12.879  19.685  0.00  0.00    +0.000 C 
ATOM     18  O   UNL     1      -0.837  13.692  20.613  0.00  0.00    +0.000 OA
ENDBRANCH  15  17
ENDBRANCH   6  15
ENDBRANCH   1  11
BRANCH   4  19
ATOM     19  C   UNL     1       5.411   4.437  18.923  0.00  0.00    +0.000 C 
BRANCH  19  20
ATOM     20  O   UNL     1       4.758   3.257  18.455  0.00  0.00    +0.000 OA
BRANCH  20  21
ATOM     21  C   UNL     1       3.428   3.120  18.750  0.00  0.00    +0.000 A 
ATOM     22  C   UNL     1       2.379   3.130  17.828  0.00  0.00    +0.000 A 
ATOM     23  C   UNL     1       1.058   2.970  18.265  0.00  0.00    +0.000 A 
ATOM     24  C   UNL     1       0.781   2.805  19.617  0.00  0.00    +0.000 A 
ATOM     25  C   UNL     1       1.816   2.798  20.557  0.00  0.00    +0.000 A 
ATOM     26  C   UNL     1       1.525   2.618  22.018  0.00  0.00    +0.000 C 
ATOM     27  C   UNL     1       3.136   2.959  20.110  0.00  0.00    +0.000 A 
ENDBRANCH  20  21
ENDBRANCH  19  20
ENDBRANCH   4  19
TORSDOF 6
ENDMDL
MODEL 8
REMARK VINA RESULT:      -7.5      2.122      2.727
REMARK  Name = 
REMARK  8 active torsions:
REMARK  status: ('A' for Active; 'I' for Inactive)
REMARK    1  A    between atoms: C_1  and  C_2
REMARK    2  A    between atoms: C_2  and  C_4
REMARK    3  A    between atoms: C_4  and  C_5
REMARK    4  A    between atoms: C_10  and  C_12
REMARK    5  A    between atoms: C_15  and  C_16
REMARK    6  A    between atoms: C_16  and  O_17
REMARK    7  A    between atoms: O_17  and  C_18
REMARK    8  A    between atoms: C_22  and  C_23
REMARK                            x       y       z     vdW  Elec       q    Type
REMARK                         _______ _______ _______ _____ _____    ______ ____
ROOT
ATOM      1  C   UNL     1       1.036   8.583  20.778  0.00  0.00    +0.000 A 
ATOM      2  C   UNL     1       0.853   9.002  22.083  0.00  0.00    +0.000 A 
ATOM      3  C   UNL     1       0.180  10.247  22.026  0.00  0.00    +0.000 A 
ATOM      4  C   UNL     1      -0.019  10.522  20.689  0.00  0.00    +0.000 A 
ATOM      5  O   UNL     1       0.496   9.510  19.921  0.00  0.00    +0.000 OA
ENDROOT
BRANCH   1  11
ATOM      6  C   UNL     1       3.955   4.799  17.672  0.00  0.00    +0.000 A 
ATOM      7  N   UNL     1       4.681   5.610  16.896  0.00  0.00    +0.000 NA
ATOM      8  S   UNL     1       4.159   7.170  17.217  0.00  0.00    +0.000 S 
ATOM      9  C   UNL     1       3.042   6.656  18.406  0.00  0.00    +0.000 A 
ATOM     10  N   UNL     1       2.346   7.633  19.056  0.00  0.00    +0.000 N 
ATOM     11  C   UNL     1       1.683   7.393  20.238  0.00  0.00    +0.000 C 
ATOM     12  O   UNL     1       1.652   6.317  20.828  0.00  0.00    +0.000 OA
ATOM     13  N   UNL     1       3.014   5.353  18.541  0.00  0.00    +0.000 NA
ATOM     14  H   UNL     1       2.421   8.586  18.730  0.00  0.00    +0.000 HD
BRANCH   6  15
ATOM     15  C   UNL     1       4.102   3.322  17.589  0.00  0.00    +0.000 C 
BRANCH  15  17
ATOM     16  C   UNL     1       2.622   1.873  19.135  0.00  0.00    +0.000 C 
ATOM     17  C   UNL     1       3.895   2.653  18.923  0.00  0.00    +0.000 C 
ATOM     18  O   UNL     1       4.779   2.653  19.785  0.00  0.00    +0.000 OA
ENDBRANCH  15  17
ENDBRANCH   6  15
ENDBRANCH   1  11
BRANCH   4  19
ATOM     19  C   UNL     1      -0.671  11.651  19.970  0.00  0.00    +0.000 C 
BRANCH  19  20
ATOM     20  O   UNL     1      -0.742  11.283  18.592  0.00  0.00    +0.000 OA
BRANCH  20  21
ATOM     21  C   UNL     1      -1.984  11.248  18.019  0.00  0.00    +0.000 A 
ATOM     22  C   UNL     1      -3.176  11.654  18.622  0.00  0.00    +0.000 A 
ATOM     23  C   UNL     1      -4.384  11.573  17.917  0.00  0.00    +0.000 A 
ATOM     24  C   UNL     1      -4.406  11.085  16.617  0.00  0.00    +0.000 A 
ATOM     25  C   UNL     1      -3.225  10.666  15.996  0.00  0.00    +0.000 A 
ATOM     26  C   UNL     1      -3.241  10.139  14.591  0.00  0.00    +0.000 C 
ATOM     27  C   UNL     1      -2.020  10.751  16.710  0.00  0.00    +0.000 A 
ENDBRANCH  20  21
ENDBRANCH  19  20
ENDBRANCH   4  19
TORSDOF 6
ENDMDL
MODEL 9
REMARK VINA RESULT:      -7.5      4.071      9.016
REMARK  Name = 
REMARK  8 active torsions:
REMARK  status: ('A' for Active; 'I' for Inactive)
REMARK    1  A    between atoms: C_1  and  C_2
REMARK    2  A    between atoms: C_2  and  C_4
REMARK    3  A    between atoms: C_4  and  C_5
REMARK    4  A    between atoms: C_10  and  C_12
REMARK    5  A    between atoms: C_15  and  C_16
REMARK    6  A    between atoms: C_16  and  O_17
REMARK    7  A    between atoms: O_17  and  C_18
REMARK    8  A    between atoms: C_22  and  C_23
REMARK                            x       y       z     vdW  Elec       q    Type
REMARK                         _______ _______ _______ _____ _____    ______ ____
ROOT
ATOM      1  C   UNL     1       2.041   6.104  19.923  0.00  0.00    +0.000 A 
ATOM      2  C   UNL     1       2.107   5.119  20.892  0.00  0.00    +0.000 A 
ATOM      3  C   UNL     1       2.385   3.901  20.225  0.00  0.00    +0.000 A 
ATOM      4  C   UNL     1       2.482   4.205  18.883  0.00  0.00    +0.000 A 
ATOM      5  O   UNL     1       2.279   5.546  18.691  0.00  0.00    +0.000 OA
ENDROOT
BRANCH   1  11
ATOM      6  C   UNL     1       0.260  11.296  21.454  0.00  0.00    +0.000 A 
ATOM      7  N   UNL     1      -0.107  11.078  22.720  0.00  0.00    +0.000 NA
ATOM      8  S   UNL     1       0.038   9.430  22.981  0.00  0.00    +0.000 S 
ATOM      9  C   UNL     1       0.631   9.133  21.405  0.00  0.00    +0.000 A 
ATOM     10  N   UNL     1       0.977   7.846  21.112  0.00  0.00    +0.000 N 
ATOM     11  C   UNL     1       1.766   7.531  20.029  0.00  0.00    +0.000 C 
ATOM     12  O   UNL     1       2.240   8.341  19.236  0.00  0.00    +0.000 OA
ATOM     13  N   UNL     1       0.683  10.219  20.673  0.00  0.00    +0.000 NA
ATOM     14  H   UNL     1       0.756   7.117  21.776  0.00  0.00    +0.000 HD
BRANCH   6  15
ATOM     15  C   UNL     1       0.177  12.653  20.852  0.00  0.00    +0.000 C 
BRANCH  15  17
ATOM     16  C   UNL     1       2.155  13.335  19.334  0.00  0.00    +0.000 C 
ATOM     17  C   UNL     1       1.533  13.296  20.707  0.00  0.00    +0.000 C 
ATOM     18  O   UNL     1       2.079  13.864  21.657  0.00  0.00    +0.000 OA
ENDBRANCH  15  17
ENDBRANCH   6  15
ENDBRANCH   1  11
BRANCH   4  19
ATOM     19  C   UNL     1       2.769   3.385  17.674  0.00  0.00    +0.000 C 
BRANCH  19  20
ATOM     20  O   UNL     1       4.154   3.037  17.724  0.00  0.00    +0.000 OA
BRANCH  20  21
ATOM     21  C   UNL     1       5.048   3.971  17.274  0.00  0.00    +0.000 A 
ATOM     22  C   UNL     1       5.140   4.453  15.967  0.00  0.00    +0.000 A 
ATOM     23  C   UNL     1       6.099   5.419  15.640  0.00  0.00    +0.000 A 
ATOM     24  C   UNL     1       6.967   5.903  16.611  0.00  0.00    +0.000 A 
ATOM     25  C   UNL     1       6.896   5.430  17.925  0.00  0.00    +0.000 A 
ATOM     26  C   UNL     1       7.829   5.949  18.979  0.00  0.00    +0.000 C 
ATOM     27  C   UNL     1       5.932   4.462  18.242  0.00  0.00    +0.000 A 
ENDBRANCH  20  21
ENDBRANCH  19  20
ENDBRANCH   4  19
TORSDOF 6
ENDMDL
