MODEL 1
REMARK VINA RESULT:      -6.1      0.000      0.000
REMARK  Name = 
REMARK  3 active torsions:
REMARK  status: ('A' for Active; 'I' for Inactive)
REMARK    1  A    between atoms: N_1  and  C_2
REMARK    2  A    between atoms: C_5  and  S_6
REMARK    3  A    between atoms: S_6  and  C_7
REMARK                            x       y       z     vdW  Elec       q    Type
REMARK                         _______ _______ _______ _____ _____    ______ ____
ROOT
ATOM      1  C   UNL     1       5.967   5.397  16.503  0.00  0.00    +0.000 A 
ATOM      2  C   UNL     1       5.481   4.093  16.425  0.00  0.00    +0.000 A 
ATOM      3  C   UNL     1       4.238   3.755  16.973  0.00  0.00    +0.000 A 
ATOM      4  C   UNL     1       3.430   4.723  17.581  0.00  0.00    +0.000 A 
ATOM      5  C   UNL     1       3.899   6.038  17.640  0.00  0.00    +0.000 A 
ATOM      6  C   UNL     1       5.151   6.370  17.089  0.00  0.00    +0.000 A 
ENDROOT
BRANCH   1   7
ATOM      7  N   UNL     1       7.108   5.759  15.781  0.00  0.00    +0.000 N 
ATOM      8  H   UNL     1       7.073   5.522  14.794  0.00  0.00    +0.000 HD
ATOM      9  H   UNL     1       7.987   5.497  16.212  0.00  0.00    +0.000 HD
ENDBRANCH   1   7
BRANCH   4  10
ATOM     10  S   UNL     1       1.757   4.250  17.969  0.00  0.00    +0.000 S 
BRANCH  10  11
ATOM     11  C   UNL     1       1.653   4.471  19.758  0.00  0.00    +0.000 C 
ATOM     12  C   UNL     1       2.749   3.786  20.597  0.00  0.00    +0.000 C 
ATOM     13  C   UNL     1       1.573   3.061  21.268  0.00  0.00    +0.000 C 
ATOM     14  O   UNL     1       1.342   2.464  22.286  0.00  0.00    +0.000 OA
ATOM     15  N   UNL     1       0.740   3.433  20.259  0.00  0.00    +0.000 N 
ATOM     16  H   UNL     1      -0.257   3.470  20.417  0.00  0.00    +0.000 HD
ENDBRANCH  10  11
ENDBRANCH   4  10
TORSDOF 3
ENDMDL
MODEL 2
REMARK VINA RESULT:      -6.1      3.025      5.598
REMARK  Name = 
REMARK  3 active torsions:
REMARK  status: ('A' for Active; 'I' for Inactive)
REMARK    1  A    between atoms: N_1  and  C_2
REMARK    2  A    between atoms: C_5  and  S_6
REMARK    3  A    between atoms: S_6  and  C_7
REMARK                            x       y       z     vdW  Elec       q    Type
REMARK                         _______ _______ _______ _____ _____    ______ ____
ROOT
ATOM      1  C   UNL     1       1.859   3.253  21.030  0.00  0.00    +0.000 A 
ATOM      2  C   UNL     1       2.204   2.593  19.851  0.00  0.00    +0.000 A 
ATOM      3  C   UNL     1       2.757   3.294  18.772  0.00  0.00    +0.000 A 
ATOM      4  C   UNL     1       3.014   4.666  18.858  0.00  0.00    +0.000 A 
ATOM      5  C   UNL     1       2.694   5.329  20.045  0.00  0.00    +0.000 A 
ATOM      6  C   UNL     1       2.136   4.619  21.126  0.00  0.00    +0.000 A 
ENDROOT
BRANCH   1   7
ATOM      7  N   UNL     1       1.498   2.513  22.161  0.00  0.00    +0.000 N 
ATOM      8  H   UNL     1       1.646   1.512  22.072  0.00  0.00    +0.000 HD
ATOM      9  H   UNL     1       0.588   2.738  22.546  0.00  0.00    +0.000 HD
ENDBRANCH   1   7
BRANCH   4  10
ATOM     10  S   UNL     1       3.987   5.388  17.553  0.00  0.00    +0.000 S 
BRANCH  10  11
ATOM     11  C   UNL     1       5.633   5.546  18.282  0.00  0.00    +0.000 C 
ATOM     12  C   UNL     1       6.771   5.940  17.322  0.00  0.00    +0.000 C 
ATOM     13  C   UNL     1       7.406   4.616  17.770  0.00  0.00    +0.000 C 
ATOM     14  O   UNL     1       8.490   4.094  17.789  0.00  0.00    +0.000 OA
ATOM     15  N   UNL     1       6.221   4.198  18.291  0.00  0.00    +0.000 N 
ATOM     16  H   UNL     1       6.209   3.493  19.013  0.00  0.00    +0.000 HD
ENDBRANCH  10  11
ENDBRANCH   4  10
TORSDOF 3
ENDMDL
MODEL 3
REMARK VINA RESULT:      -6.0      3.188      5.871
REMARK  Name = 
REMARK  3 active torsions:
REMARK  status: ('A' for Active; 'I' for Inactive)
REMARK    1  A    between atoms: N_1  and  C_2
REMARK    2  A    between atoms: C_5  and  S_6
REMARK    3  A    between atoms: S_6  and  C_7
REMARK                            x       y       z     vdW  Elec       q    Type
REMARK                         _______ _______ _______ _____ _____    ______ ____
ROOT
ATOM      1  C   UNL     1       1.217   3.996  19.915  0.00  0.00    +0.000 A 
ATOM      2  C   UNL     1       1.596   3.704  18.606  0.00  0.00    +0.000 A 
ATOM      3  C   UNL     1       2.378   4.601  17.869  0.00  0.00    +0.000 A 
ATOM      4  C   UNL     1       2.835   5.796  18.436  0.00  0.00    +0.000 A 
ATOM      5  C   UNL     1       2.480   6.083  19.756  0.00  0.00    +0.000 A 
ATOM      6  C   UNL     1       1.691   5.178  20.491  0.00  0.00    +0.000 A 
ENDROOT
BRANCH   1   7
ATOM      7  N   UNL     1       0.610   3.009  20.699  0.00  0.00    +0.000 N 
ATOM      8  H   UNL     1       0.917   2.063  20.495  0.00  0.00    +0.000 HD
ATOM      9  H   UNL     1      -0.398   3.083  20.774  0.00  0.00    +0.000 HD
ENDBRANCH   1   7
BRANCH   4  10
ATOM     10  S   UNL     1       4.061   6.708  17.520  0.00  0.00    +0.000 S 
BRANCH  10  11
ATOM     11  C   UNL     1       4.807   5.462  16.446  0.00  0.00    +0.000 C 
ATOM     12  C   UNL     1       6.130   4.841  16.935  0.00  0.00    +0.000 C 
ATOM     13  C   UNL     1       6.700   5.386  15.617  0.00  0.00    +0.000 C 
ATOM     14  O   UNL     1       7.643   5.199  14.894  0.00  0.00    +0.000 OA
ATOM     15  N   UNL     1       5.614   6.190  15.454  0.00  0.00    +0.000 N 
ATOM     16  H   UNL     1       5.364   6.518  14.533  0.00  0.00    +0.000 HD
ENDBRANCH  10  11
ENDBRANCH   4  10
TORSDOF 3
ENDMDL
MODEL 4
REMARK VINA RESULT:      -6.0      1.027      1.099
REMARK  Name = 
REMARK  3 active torsions:
REMARK  status: ('A' for Active; 'I' for Inactive)
REMARK    1  A    between atoms: N_1  and  C_2
REMARK    2  A    between atoms: C_5  and  S_6
REMARK    3  A    between atoms: S_6  and  C_7
REMARK                            x       y       z     vdW  Elec       q    Type
REMARK                         _______ _______ _______ _____ _____    ______ ____
ROOT
ATOM      1  C   UNL     1       6.401   5.224  16.049  0.00  0.00    +0.000 A 
ATOM      2  C   UNL     1       5.648   4.052  16.004  0.00  0.00    +0.000 A 
ATOM      3  C   UNL     1       4.431   3.954  16.688  0.00  0.00    +0.000 A 
ATOM      4  C   UNL     1       3.916   5.040  17.404  0.00  0.00    +0.000 A 
ATOM      5  C   UNL     1       4.653   6.227  17.433  0.00  0.00    +0.000 A 
ATOM      6  C   UNL     1       5.878   6.318  16.745  0.00  0.00    +0.000 A 
ENDROOT
BRANCH   1   7
ATOM      7  N   UNL     1       7.506   5.374  15.204  0.00  0.00    +0.000 N 
ATOM      8  H   UNL     1       7.377   4.992  14.273  0.00  0.00    +0.000 HD
ATOM      9  H   UNL     1       8.395   5.109  15.613  0.00  0.00    +0.000 HD
ENDBRANCH   1   7
BRANCH   4  10
ATOM     10  S   UNL     1       2.234   4.905  17.977  0.00  0.00    +0.000 S 
BRANCH  10  11
ATOM     11  C   UNL     1       2.273   3.484  19.091  0.00  0.00    +0.000 C 
ATOM     12  C   UNL     1       1.033   3.281  19.983  0.00  0.00    +0.000 C 
ATOM     13  C   UNL     1       2.032   3.400  21.143  0.00  0.00    +0.000 C 
ATOM     14  O   UNL     1       2.104   3.109  22.308  0.00  0.00    +0.000 OA
ATOM     15  N   UNL     1       2.972   3.923  20.309  0.00  0.00    +0.000 N 
ATOM     16  H   UNL     1       3.950   3.861  20.550  0.00  0.00    +0.000 HD
ENDBRANCH  10  11
ENDBRANCH   4  10
TORSDOF 3
ENDMDL
MODEL 5
REMARK VINA RESULT:      -5.9      2.021      2.188
REMARK  Name = 
REMARK  3 active torsions:
REMARK  status: ('A' for Active; 'I' for Inactive)
REMARK    1  A    between atoms: N_1  and  C_2
REMARK    2  A    between atoms: C_5  and  S_6
REMARK    3  A    between atoms: S_6  and  C_7
REMARK                            x       y       z     vdW  Elec       q    Type
REMARK                         _______ _______ _______ _____ _____    ______ ____
ROOT
ATOM      1  C   UNL     1       6.684   5.406  15.813  0.00  0.00    +0.000 A 
ATOM      2  C   UNL     1       7.027   4.673  16.949  0.00  0.00    +0.000 A 
ATOM      3  C   UNL     1       6.187   4.650  18.069  0.00  0.00    +0.000 A 
ATOM      4  C   UNL     1       4.963   5.328  18.068  0.00  0.00    +0.000 A 
ATOM      5  C   UNL     1       4.601   6.044  16.924  0.00  0.00    +0.000 A 
ATOM      6  C   UNL     1       5.451   6.065  15.802  0.00  0.00    +0.000 A 
ENDROOT
BRANCH   1   7
ATOM      7  N   UNL     1       7.429   5.258  14.639  0.00  0.00    +0.000 N 
ATOM      8  H   UNL     1       8.254   5.848  14.588  0.00  0.00    +0.000 HD
ATOM      9  H   UNL     1       6.885   5.276  13.783  0.00  0.00    +0.000 HD
ENDBRANCH   1   7
BRANCH   4  10
ATOM     10  S   UNL     1       3.850   4.985  19.415  0.00  0.00    +0.000 S 
BRANCH  10  11
ATOM     11  C   UNL     1       3.202   3.344  19.029  0.00  0.00    +0.000 C 
ATOM     12  C   UNL     1       2.441   3.205  17.696  0.00  0.00    +0.000 C 
ATOM     13  C   UNL     1       1.273   2.749  18.582  0.00  0.00    +0.000 C 
ATOM     14  O   UNL     1       0.244   2.135  18.477  0.00  0.00    +0.000 OA
ATOM     15  N   UNL     1       1.892   3.241  19.690  0.00  0.00    +0.000 N 
ATOM     16  H   UNL     1       1.656   2.880  20.602  0.00  0.00    +0.000 HD
ENDBRANCH  10  11
ENDBRANCH   4  10
TORSDOF 3
ENDMDL
MODEL 6
REMARK VINA RESULT:      -5.9      3.121      6.093
REMARK  Name = 
REMARK  3 active torsions:
REMARK  status: ('A' for Active; 'I' for Inactive)
REMARK    1  A    between atoms: N_1  and  C_2
REMARK    2  A    between atoms: C_5  and  S_6
REMARK    3  A    between atoms: S_6  and  C_7
REMARK                            x       y       z     vdW  Elec       q    Type
REMARK                         _______ _______ _______ _____ _____    ______ ____
ROOT
ATOM      1  C   UNL     1       1.870   2.974  21.187  0.00  0.00    +0.000 A 
ATOM      2  C   UNL     1       1.123   3.557  20.165  0.00  0.00    +0.000 A 
ATOM      3  C   UNL     1       1.711   3.866  18.933  0.00  0.00    +0.000 A 
ATOM      4  C   UNL     1       3.053   3.563  18.677  0.00  0.00    +0.000 A 
ATOM      5  C   UNL     1       3.801   2.955  19.688  0.00  0.00    +0.000 A 
ATOM      6  C   UNL     1       3.204   2.650  20.926  0.00  0.00    +0.000 A 
ENDROOT
BRANCH   1   7
ATOM      7  N   UNL     1       1.226   2.491  22.331  0.00  0.00    +0.000 N 
ATOM      8  H   UNL     1       1.843   2.055  23.008  0.00  0.00    +0.000 HD
ATOM      9  H   UNL     1       0.394   1.940  22.152  0.00  0.00    +0.000 HD
ENDBRANCH   1   7
BRANCH   4  10
ATOM     10  S   UNL     1       3.609   3.720  16.992  0.00  0.00    +0.000 S 
BRANCH  10  11
ATOM     11  C   UNL     1       5.123   4.696  17.129  0.00  0.00    +0.000 C 
ATOM     12  C   UNL     1       5.303   5.827  16.099  0.00  0.00    +0.000 C 
ATOM     13  C   UNL     1       6.588   5.078  15.721  0.00  0.00    +0.000 C 
ATOM     14  O   UNL     1       7.631   5.296  15.162  0.00  0.00    +0.000 OA
ATOM     15  N   UNL     1       6.162   3.969  16.385  0.00  0.00    +0.000 N 
ATOM     16  H   UNL     1       6.833   3.287  16.710  0.00  0.00    +0.000 HD
ENDBRANCH  10  11
ENDBRANCH   4  10
TORSDOF 3
ENDMDL
MODEL 7
REMARK VINA RESULT:      -5.9      3.529      6.231
REMARK  Name = 
REMARK  3 active torsions:
REMARK  status: ('A' for Active; 'I' for Inactive)
REMARK    1  A    between atoms: N_1  and  C_2
REMARK    2  A    between atoms: C_5  and  S_6
REMARK    3  A    between atoms: S_6  and  C_7
REMARK                            x       y       z     vdW  Elec       q    Type
REMARK                         _______ _______ _______ _____ _____    ______ ____
ROOT
ATOM      1  C   UNL     1       1.847   3.590  19.398  0.00  0.00    +0.000 A 
ATOM      2  C   UNL     1       3.009   3.159  20.035  0.00  0.00    +0.000 A 
ATOM      3  C   UNL     1       4.268   3.397  19.471  0.00  0.00    +0.000 A 
ATOM      4  C   UNL     1       4.399   4.108  18.273  0.00  0.00    +0.000 A 
ATOM      5  C   UNL     1       3.240   4.566  17.641  0.00  0.00    +0.000 A 
ATOM      6  C   UNL     1       1.977   4.320  18.213  0.00  0.00    +0.000 A 
ENDROOT
BRANCH   1   7
ATOM      7  N   UNL     1       0.621   3.523  20.067  0.00  0.00    +0.000 N 
ATOM      8  H   UNL     1       0.608   3.990  20.969  0.00  0.00    +0.000 HD
ATOM      9  H   UNL     1       0.204   2.599  20.103  0.00  0.00    +0.000 HD
ENDBRANCH   1   7
BRANCH   4  10
ATOM     10  S   UNL     1       6.044   4.611  17.809  0.00  0.00    +0.000 S 
BRANCH  10  11
ATOM     11  C   UNL     1       5.834   5.277  16.142  0.00  0.00    +0.000 C 
ATOM     12  C   UNL     1       5.861   4.255  14.989  0.00  0.00    +0.000 C 
ATOM     13  C   UNL     1       7.043   5.089  14.476  0.00  0.00    +0.000 C 
ATOM     14  O   UNL     1       7.638   5.277  13.447  0.00  0.00    +0.000 OA
ATOM     15  N   UNL     1       7.167   5.699  15.686  0.00  0.00    +0.000 N 
ATOM     16  H   UNL     1       7.618   6.600  15.753  0.00  0.00    +0.000 HD
ENDBRANCH  10  11
ENDBRANCH   4  10
TORSDOF 3
ENDMDL
MODEL 8
REMARK VINA RESULT:      -5.8      1.076      1.725
REMARK  Name = 
REMARK  3 active torsions:
REMARK  status: ('A' for Active; 'I' for Inactive)
REMARK    1  A    between atoms: N_1  and  C_2
REMARK    2  A    between atoms: C_5  and  S_6
REMARK    3  A    between atoms: S_6  and  C_7
REMARK                            x       y       z     vdW  Elec       q    Type
REMARK                         _______ _______ _______ _____ _____    ______ ____
ROOT
ATOM      1  C   UNL     1       6.442   4.851  16.531  0.00  0.00    +0.000 A 
ATOM      2  C   UNL     1       6.119   5.996  17.258  0.00  0.00    +0.000 A 
ATOM      3  C   UNL     1       4.812   6.212  17.713  0.00  0.00    +0.000 A 
ATOM      4  C   UNL     1       3.803   5.269  17.486  0.00  0.00    +0.000 A 
ATOM      5  C   UNL     1       4.126   4.107  16.780  0.00  0.00    +0.000 A 
ATOM      6  C   UNL     1       5.441   3.897  16.323  0.00  0.00    +0.000 A 
ENDROOT
BRANCH   1   7
ATOM      7  N   UNL     1       7.782   4.555  16.260  0.00  0.00    +0.000 N 
ATOM      8  H   UNL     1       8.030   4.598  15.276  0.00  0.00    +0.000 HD
ATOM      9  H   UNL     1       8.135   3.720  16.714  0.00  0.00    +0.000 HD
ENDBRANCH   1   7
BRANCH   4  10
ATOM     10  S   UNL     1       2.270   5.502  18.361  0.00  0.00    +0.000 S 
BRANCH  10  11
ATOM     11  C   UNL     1       2.005   3.918  19.190  0.00  0.00    +0.000 C 
ATOM     12  C   UNL     1       0.892   3.882  20.255  0.00  0.00    +0.000 C 
ATOM     13  C   UNL     1       2.020   3.456  21.205  0.00  0.00    +0.000 C 
ATOM     14  O   UNL     1       2.149   2.909  22.269  0.00  0.00    +0.000 OA
ATOM     15  N   UNL     1       2.959   3.863  20.308  0.00  0.00    +0.000 N 
ATOM     16  H   UNL     1       3.891   3.477  20.344  0.00  0.00    +0.000 HD
ENDBRANCH  10  11
ENDBRANCH   4  10
TORSDOF 3
ENDMDL
MODEL 9
REMARK VINA RESULT:      -5.8      1.226      1.825
REMARK  Name = 
REMARK  3 active torsions:
REMARK  status: ('A' for Active; 'I' for Inactive)
REMARK    1  A    between atoms: N_1  and  C_2
REMARK    2  A    between atoms: C_5  and  S_6
REMARK    3  A    between atoms: S_6  and  C_7
REMARK                            x       y       z     vdW  Elec       q    Type
REMARK                         _______ _______ _______ _____ _____    ______ ____
ROOT
ATOM      1  C   UNL     1       5.709   5.195  15.446  0.00  0.00    +0.000 A 
ATOM      2  C   UNL     1       5.219   6.415  15.911  0.00  0.00    +0.000 A 
ATOM      3  C   UNL     1       4.406   6.475  17.049  0.00  0.00    +0.000 A 
ATOM      4  C   UNL     1       4.095   5.321  17.776  0.00  0.00    +0.000 A 
ATOM      5  C   UNL     1       4.604   4.098  17.332  0.00  0.00    +0.000 A 
ATOM      6  C   UNL     1       5.418   4.044  16.184  0.00  0.00    +0.000 A 
ENDROOT
BRANCH   1   7
ATOM      7  N   UNL     1       6.675   5.174  14.435  0.00  0.00    +0.000 N 
ATOM      8  H   UNL     1       7.434   4.519  14.594  0.00  0.00    +0.000 HD
ATOM      9  H   UNL     1       7.004   6.086  14.140  0.00  0.00    +0.000 HD
ENDBRANCH   1   7
BRANCH   4  10
ATOM     10  S   UNL     1       3.315   5.551  19.361  0.00  0.00    +0.000 S 
BRANCH  10  11
ATOM     11  C   UNL     1       2.388   4.020  19.609  0.00  0.00    +0.000 C 
ATOM     12  C   UNL     1       1.080   4.136  20.414  0.00  0.00    +0.000 C 
ATOM     13  C   UNL     1       1.746   3.126  21.358  0.00  0.00    +0.000 C 
ATOM     14  O   UNL     1       1.427   2.336  22.208  0.00  0.00    +0.000 OA
ATOM     15  N   UNL     1       2.961   3.368  20.796  0.00  0.00    +0.000 N 
ATOM     16  H   UNL     1       3.694   2.677  20.862  0.00  0.00    +0.000 HD
ENDBRANCH  10  11
ENDBRANCH   4  10
TORSDOF 3
ENDMDL
