MODEL 1
REMARK VINA RESULT:      -8.3      0.000      0.000
REMARK  Name = 
REMARK  5 active torsions:
REMARK  status: ('A' for Active; 'I' for Inactive)
REMARK    1  A    between atoms: C_1  and  O_2
REMARK    2  A    between atoms: O_2  and  C_3
REMARK    3  A    between atoms: N_5  and  C_6
REMARK    4  A    between atoms: C_14  and  N_15
REMARK    5  A    between atoms: N_15  and  C_16
REMARK                            x       y       z     vdW  Elec       q    Type
REMARK                         _______ _______ _______ _____ _____    ______ ____
ROOT
ATOM      1  C   UNL     1       7.132   4.918  16.056  0.00  0.00    +0.000 A 
ATOM      2  O   UNL     1       7.797   5.317  14.937  0.00  0.00    +0.000 OA
ATOM      3  C   UNL     1       7.201   4.736  13.870  0.00  0.00    +0.000 A 
ATOM      4  C   UNL     1       7.590   4.869  12.550  0.00  0.00    +0.000 A 
ATOM      5  N   UNL     1       6.885   4.204  11.594  0.00  0.00    +0.000 NA
ATOM      6  C   UNL     1       5.840   3.433  11.979  0.00  0.00    +0.000 A 
ATOM      7  C   UNL     1       5.412   3.261  13.291  0.00  0.00    +0.000 A 
ATOM      8  C   UNL     1       6.126   3.957  14.279  0.00  0.00    +0.000 A 
ATOM      9  C   UNL     1       6.084   4.082  15.703  0.00  0.00    +0.000 A 
ENDROOT
BRANCH   1  12
ATOM     10  C   UNL     1       7.503   6.711  17.611  0.00  0.00    +0.000 C 
ATOM     11  O   UNL     1       7.029   7.630  16.957  0.00  0.00    +0.000 OA
ATOM     12  N   UNL     1       7.574   5.386  17.269  0.00  0.00    +0.000 N 
ATOM     13  H   UNL     1       7.861   4.743  17.988  0.00  0.00    +0.000 HD
BRANCH  10  15
ATOM     14  C   UNL     1       7.870   5.716  19.693  0.00  0.00    +0.000 C 
ATOM     15  O   UNL     1       8.015   6.876  18.863  0.00  0.00    +0.000 OA
ENDBRANCH  10  15
ENDBRANCH   1  12
BRANCH   9  16
ATOM     16  N   UNL     1       5.210   3.470  16.549  0.00  0.00    +0.000 N 
ATOM     17  H   UNL     1       5.223   2.456  16.617  0.00  0.00    +0.000 HD
BRANCH  16  18
ATOM     18  C   UNL     1       4.383   4.055  17.539  0.00  0.00    +0.000 A 
ATOM     19  C   UNL     1       3.818   5.333  17.392  0.00  0.00    +0.000 A 
ATOM     20  C   UNL     1       2.949   5.856  18.355  0.00  0.00    +0.000 A 
ATOM     21  C   UNL     1       2.630   5.099  19.475  0.00  0.00    +0.000 A 
ATOM     22  F   UNL     1       1.791   5.614  20.387  0.00  0.00    +0.000 F 
ATOM     23  C   UNL     1       3.169   3.827  19.637  0.00  0.00    +0.000 A 
ATOM     24 CL   UNL     1       2.766   2.875  21.014  0.00  0.00    +0.000 Cl
ATOM     25  C   UNL     1       4.038   3.304  18.673  0.00  0.00    +0.000 A 
ENDBRANCH  16  18
ENDBRANCH   9  16
TORSDOF 4
ENDMDL
MODEL 2
REMARK VINA RESULT:      -8.2      3.427      5.866
REMARK  Name = 
REMARK  5 active torsions:
REMARK  status: ('A' for Active; 'I' for Inactive)
REMARK    1  A    between atoms: C_1  and  O_2
REMARK    2  A    between atoms: O_2  and  C_3
REMARK    3  A    between atoms: N_5  and  C_6
REMARK    4  A    between atoms: C_14  and  N_15
REMARK    5  A    between atoms: N_15  and  C_16
REMARK                            x       y       z     vdW  Elec       q    Type
REMARK                         _______ _______ _______ _____ _____    ______ ____
ROOT
ATOM      1  C   UNL     1       5.134   5.402  18.244  0.00  0.00    +0.000 A 
ATOM      2  O   UNL     1       4.026   5.664  18.989  0.00  0.00    +0.000 OA
ATOM      3  C   UNL     1       3.161   4.636  18.823  0.00  0.00    +0.000 A 
ATOM      4  C   UNL     1       1.905   4.529  19.394  0.00  0.00    +0.000 A 
ATOM      5  N   UNL     1       1.155   3.430  19.112  0.00  0.00    +0.000 NA
ATOM      6  C   UNL     1       1.665   2.494  18.277  0.00  0.00    +0.000 A 
ATOM      7  C   UNL     1       2.917   2.555  17.674  0.00  0.00    +0.000 A 
ATOM      8  C   UNL     1       3.701   3.679  17.973  0.00  0.00    +0.000 A 
ATOM      9  C   UNL     1       4.988   4.182  17.602  0.00  0.00    +0.000 A 
ENDROOT
BRANCH   1  12
ATOM     10  C   UNL     1       7.429   5.997  18.630  0.00  0.00    +0.000 C 
ATOM     11  O   UNL     1       7.859   4.898  18.950  0.00  0.00    +0.000 OA
ATOM     12  N   UNL     1       6.152   6.325  18.258  0.00  0.00    +0.000 N 
ATOM     13  H   UNL     1       6.006   7.247  17.883  0.00  0.00    +0.000 HD
BRANCH  10  15
ATOM     14  C   UNL     1       7.768   8.048  17.562  0.00  0.00    +0.000 C 
ATOM     15  O   UNL     1       8.214   7.108  18.548  0.00  0.00    +0.000 OA
ENDBRANCH  10  15
ENDBRANCH   1  12
BRANCH   9  16
ATOM     16  N   UNL     1       5.878   3.596  16.755  0.00  0.00    +0.000 N 
ATOM     17  H   UNL     1       6.252   2.682  16.995  0.00  0.00    +0.000 HD
BRANCH  16  18
ATOM     18  C   UNL     1       6.232   3.982  15.439  0.00  0.00    +0.000 A 
ATOM     19  C   UNL     1       7.297   4.858  15.171  0.00  0.00    +0.000 A 
ATOM     20  C   UNL     1       7.668   5.167  13.859  0.00  0.00    +0.000 A 
ATOM     21  C   UNL     1       6.979   4.594  12.798  0.00  0.00    +0.000 A 
ATOM     22  F   UNL     1       7.351   4.898  11.545  0.00  0.00    +0.000 F 
ATOM     23  C   UNL     1       5.927   3.716  13.039  0.00  0.00    +0.000 A 
ATOM     24 CL   UNL     1       5.078   2.989  11.729  0.00  0.00    +0.000 Cl
ATOM     25  C   UNL     1       5.556   3.408  14.352  0.00  0.00    +0.000 A 
ENDBRANCH  16  18
ENDBRANCH   9  16
TORSDOF 4
ENDMDL
MODEL 3
REMARK VINA RESULT:      -8.2      1.187      1.554
REMARK  Name = 
REMARK  5 active torsions:
REMARK  status: ('A' for Active; 'I' for Inactive)
REMARK    1  A    between atoms: C_1  and  O_2
REMARK    2  A    between atoms: O_2  and  C_3
REMARK    3  A    between atoms: N_5  and  C_6
REMARK    4  A    between atoms: C_14  and  N_15
REMARK    5  A    between atoms: N_15  and  C_16
REMARK                            x       y       z     vdW  Elec       q    Type
REMARK                         _______ _______ _______ _____ _____    ______ ____
ROOT
ATOM      1  C   UNL     1       7.126   4.910  16.050  0.00  0.00    +0.000 A 
ATOM      2  O   UNL     1       7.800   5.292  14.932  0.00  0.00    +0.000 OA
ATOM      3  C   UNL     1       7.196   4.718  13.866  0.00  0.00    +0.000 A 
ATOM      4  C   UNL     1       7.590   4.838  12.545  0.00  0.00    +0.000 A 
ATOM      5  N   UNL     1       6.875   4.182  11.591  0.00  0.00    +0.000 NA
ATOM      6  C   UNL     1       5.816   3.431  11.977  0.00  0.00    +0.000 A 
ATOM      7  C   UNL     1       5.382   3.273  13.288  0.00  0.00    +0.000 A 
ATOM      8  C   UNL     1       6.106   3.960  14.275  0.00  0.00    +0.000 A 
ATOM      9  C   UNL     1       6.063   4.092  15.698  0.00  0.00    +0.000 A 
ENDROOT
BRANCH   1  12
ATOM     10  C   UNL     1       7.514   6.701  17.603  0.00  0.00    +0.000 C 
ATOM     11  O   UNL     1       7.047   7.624  16.949  0.00  0.00    +0.000 OA
ATOM     12  N   UNL     1       7.574   5.375  17.262  0.00  0.00    +0.000 N 
ATOM     13  H   UNL     1       7.856   4.730  17.981  0.00  0.00    +0.000 HD
BRANCH  10  15
ATOM     14  C   UNL     1       7.913   5.690  19.671  0.00  0.00    +0.000 C 
ATOM     15  O   UNL     1       8.029   6.862  18.855  0.00  0.00    +0.000 OA
ENDBRANCH  10  15
ENDBRANCH   1  12
BRANCH   9  16
ATOM     16  N   UNL     1       5.176   3.499  16.545  0.00  0.00    +0.000 N 
ATOM     17  H   UNL     1       5.163   2.485  16.608  0.00  0.00    +0.000 HD
BRANCH  16  18
ATOM     18  C   UNL     1       4.369   4.101  17.541  0.00  0.00    +0.000 A 
ATOM     19  C   UNL     1       4.121   3.491  18.782  0.00  0.00    +0.000 A 
ATOM     20  C   UNL     1       3.377   4.139  19.772  0.00  0.00    +0.000 A 
ATOM     21  C   UNL     1       2.879   5.413  19.532  0.00  0.00    +0.000 A 
ATOM     22  F   UNL     1       2.171   6.024  20.495  0.00  0.00    +0.000 F 
ATOM     23  C   UNL     1       3.119   6.042  18.315  0.00  0.00    +0.000 A 
ATOM     24 CL   UNL     1       2.518   7.628  18.015  0.00  0.00    +0.000 Cl
ATOM     25  C   UNL     1       3.863   5.392  17.324  0.00  0.00    +0.000 A 
ENDBRANCH  16  18
ENDBRANCH   9  16
TORSDOF 4
ENDMDL
MODEL 4
REMARK VINA RESULT:      -8.1      3.906      5.247
REMARK  Name = 
REMARK  5 active torsions:
REMARK  status: ('A' for Active; 'I' for Inactive)
REMARK    1  A    between atoms: C_1  and  O_2
REMARK    2  A    between atoms: O_2  and  C_3
REMARK    3  A    between atoms: N_5  and  C_6
REMARK    4  A    between atoms: C_14  and  N_15
REMARK    5  A    between atoms: N_15  and  C_16
REMARK                            x       y       z     vdW  Elec       q    Type
REMARK                         _______ _______ _______ _____ _____    ______ ____
ROOT
ATOM      1  C   UNL     1       5.011   5.309  18.075  0.00  0.00    +0.000 A 
ATOM      2  O   UNL     1       5.121   3.966  18.266  0.00  0.00    +0.000 OA
ATOM      3  C   UNL     1       3.870   3.454  18.339  0.00  0.00    +0.000 A 
ATOM      4  C   UNL     1       3.547   2.125  18.551  0.00  0.00    +0.000 A 
ATOM      5  N   UNL     1       2.233   1.777  18.609  0.00  0.00    +0.000 NA
ATOM      6  C   UNL     1       1.299   2.748  18.469  0.00  0.00    +0.000 A 
ATOM      7  C   UNL     1       1.570   4.096  18.260  0.00  0.00    +0.000 A 
ATOM      8  C   UNL     1       2.923   4.458  18.184  0.00  0.00    +0.000 A 
ATOM      9  C   UNL     1       3.672   5.664  18.009  0.00  0.00    +0.000 A 
ENDROOT
BRANCH   1  12
ATOM     10  C   UNL     1       7.136   6.013  18.947  0.00  0.00    +0.000 C 
ATOM     11  O   UNL     1       7.151   5.345  19.972  0.00  0.00    +0.000 OA
ATOM     12  N   UNL     1       6.169   6.042  17.977  0.00  0.00    +0.000 N 
ATOM     13  H   UNL     1       6.386   6.537  17.128  0.00  0.00    +0.000 HD
BRANCH  10  15
ATOM     14  C   UNL     1       7.766   7.847  17.643  0.00  0.00    +0.000 C 
ATOM     15  O   UNL     1       8.159   6.836  18.580  0.00  0.00    +0.000 OA
ENDBRANCH  10  15
ENDBRANCH   1  12
BRANCH   9  16
ATOM     16  N   UNL     1       3.169   6.918  17.846  0.00  0.00    +0.000 N 
ATOM     17  H   UNL     1       3.244   7.361  16.934  0.00  0.00    +0.000 HD
BRANCH  16  18
ATOM     18  C   UNL     1       2.347   7.661  18.728  0.00  0.00    +0.000 A 
ATOM     19  C   UNL     1       2.135   7.281  20.064  0.00  0.00    +0.000 A 
ATOM     20  C   UNL     1       1.374   8.071  20.930  0.00  0.00    +0.000 A 
ATOM     21  C   UNL     1       0.822   9.259  20.469  0.00  0.00    +0.000 A 
ATOM     22  F   UNL     1       0.098  10.008  21.315  0.00  0.00    +0.000 F 
ATOM     23  C   UNL     1       1.025   9.662  19.153  0.00  0.00    +0.000 A 
ATOM     24 CL   UNL     1       0.357  11.141  18.577  0.00  0.00    +0.000 Cl
ATOM     25  C   UNL     1       1.787   8.870  18.286  0.00  0.00    +0.000 A 
ENDBRANCH  16  18
ENDBRANCH   9  16
TORSDOF 4
ENDMDL
MODEL 5
REMARK VINA RESULT:      -8.0      3.484      5.254
REMARK  Name = 
REMARK  5 active torsions:
REMARK  status: ('A' for Active; 'I' for Inactive)
REMARK    1  A    between atoms: C_1  and  O_2
REMARK    2  A    between atoms: O_2  and  C_3
REMARK    3  A    between atoms: N_5  and  C_6
REMARK    4  A    between atoms: C_14  and  N_15
REMARK    5  A    between atoms: N_15  and  C_16
REMARK                            x       y       z     vdW  Elec       q    Type
REMARK                         _______ _______ _______ _____ _____    ______ ____
ROOT
ATOM      1  C   UNL     1       4.938   5.341  17.919  0.00  0.00    +0.000 A 
ATOM      2  O   UNL     1       5.054   4.000  18.119  0.00  0.00    +0.000 OA
ATOM      3  C   UNL     1       3.808   3.494  18.272  0.00  0.00    +0.000 A 
ATOM      4  C   UNL     1       3.493   2.169  18.518  0.00  0.00    +0.000 A 
ATOM      5  N   UNL     1       2.184   1.828  18.659  0.00  0.00    +0.000 NA
ATOM      6  C   UNL     1       1.247   2.801  18.563  0.00  0.00    +0.000 A 
ATOM      7  C   UNL     1       1.509   4.145  18.323  0.00  0.00    +0.000 A 
ATOM      8  C   UNL     1       2.857   4.500  18.162  0.00  0.00    +0.000 A 
ATOM      9  C   UNL     1       3.599   5.701  17.929  0.00  0.00    +0.000 A 
ENDROOT
BRANCH   1  12
ATOM     10  C   UNL     1       6.663   6.243  16.511  0.00  0.00    +0.000 C 
ATOM     11  O   UNL     1       6.252   5.845  15.430  0.00  0.00    +0.000 OA
ATOM     12  N   UNL     1       6.090   6.068  17.743  0.00  0.00    +0.000 N 
ATOM     13  H   UNL     1       6.484   6.589  18.510  0.00  0.00    +0.000 HD
BRANCH  10  15
ATOM     14  C   UNL     1       7.794   7.800  17.835  0.00  0.00    +0.000 C 
ATOM     15  O   UNL     1       7.788   6.999  16.647  0.00  0.00    +0.000 OA
ENDBRANCH  10  15
ENDBRANCH   1  12
BRANCH   9  16
ATOM     16  N   UNL     1       3.092   6.956  17.782  0.00  0.00    +0.000 N 
ATOM     17  H   UNL     1       3.142   7.400  16.869  0.00  0.00    +0.000 HD
BRANCH  16  18
ATOM     18  C   UNL     1       2.294   7.698  18.686  0.00  0.00    +0.000 A 
ATOM     19  C   UNL     1       2.129   7.322  20.030  0.00  0.00    +0.000 A 
ATOM     20  C   UNL     1       1.391   8.111  20.918  0.00  0.00    +0.000 A 
ATOM     21  C   UNL     1       0.816   9.294  20.470  0.00  0.00    +0.000 A 
ATOM     22  F   UNL     1       0.116  10.042  21.336  0.00  0.00    +0.000 F 
ATOM     23  C   UNL     1       0.974   9.691  19.146  0.00  0.00    +0.000 A 
ATOM     24 CL   UNL     1       0.278  11.164  18.586  0.00  0.00    +0.000 Cl
ATOM     25  C   UNL     1       1.712   8.900  18.258  0.00  0.00    +0.000 A 
ENDBRANCH  16  18
ENDBRANCH   9  16
TORSDOF 4
ENDMDL
MODEL 6
REMARK VINA RESULT:      -8.0      3.748      5.636
REMARK  Name = 
REMARK  5 active torsions:
REMARK  status: ('A' for Active; 'I' for Inactive)
REMARK    1  A    between atoms: C_1  and  O_2
REMARK    2  A    between atoms: O_2  and  C_3
REMARK    3  A    between atoms: N_5  and  C_6
REMARK    4  A    between atoms: C_14  and  N_15
REMARK    5  A    between atoms: N_15  and  C_16
REMARK                            x       y       z     vdW  Elec       q    Type
REMARK                         _______ _______ _______ _____ _____    ______ ____
ROOT
ATOM      1  C   UNL     1       4.345   5.211  18.508  0.00  0.00    +0.000 A 
ATOM      2  O   UNL     1       4.252   3.965  17.970  0.00  0.00    +0.000 OA
ATOM      3  C   UNL     1       3.087   3.419  18.388  0.00  0.00    +0.000 A 
ATOM      4  C   UNL     1       2.627   2.151  18.081  0.00  0.00    +0.000 A 
ATOM      5  N   UNL     1       1.433   1.749  18.595  0.00  0.00    +0.000 NA
ATOM      6  C   UNL     1       0.752   2.605  19.394  0.00  0.00    +0.000 A 
ATOM      7  C   UNL     1       1.171   3.885  19.739  0.00  0.00    +0.000 A 
ATOM      8  C   UNL     1       2.395   4.310  19.198  0.00  0.00    +0.000 A 
ATOM      9  C   UNL     1       3.218   5.477  19.270  0.00  0.00    +0.000 A 
ENDROOT
BRANCH   1  12
ATOM     10  C   UNL     1       5.618   6.609  17.025  0.00  0.00    +0.000 C 
ATOM     11  O   UNL     1       4.825   6.670  16.095  0.00  0.00    +0.000 OA
ATOM     12  N   UNL     1       5.463   5.956  18.219  0.00  0.00    +0.000 N 
ATOM     13  H   UNL     1       6.153   6.132  18.930  0.00  0.00    +0.000 HD
BRANCH  10  15
ATOM     14  C   UNL     1       7.701   6.816  18.061  0.00  0.00    +0.000 C 
ATOM     15  O   UNL     1       6.817   7.256  17.023  0.00  0.00    +0.000 OA
ENDBRANCH  10  15
ENDBRANCH   1  12
BRANCH   9  16
ATOM     16  N   UNL     1       2.962   6.612  19.978  0.00  0.00    +0.000 N 
ATOM     17  H   UNL     1       3.466   6.771  20.845  0.00  0.00    +0.000 HD
BRANCH  16  18
ATOM     18  C   UNL     1       2.217   7.750  19.583  0.00  0.00    +0.000 A 
ATOM     19  C   UNL     1       2.179   8.203  18.254  0.00  0.00    +0.000 A 
ATOM     20  C   UNL     1       1.380   9.288  17.881  0.00  0.00    +0.000 A 
ATOM     21  C   UNL     1       0.601   9.928  18.837  0.00  0.00    +0.000 A 
ATOM     22  F   UNL     1      -0.164  10.964  18.461  0.00  0.00    +0.000 F 
ATOM     23  C   UNL     1       0.614   9.490  20.157  0.00  0.00    +0.000 A 
ATOM     24 CL   UNL     1      -0.361  10.267  21.346  0.00  0.00    +0.000 Cl
ATOM     25  C   UNL     1       1.415   8.405  20.530  0.00  0.00    +0.000 A 
ENDBRANCH  16  18
ENDBRANCH   9  16
TORSDOF 4
ENDMDL
MODEL 7
REMARK VINA RESULT:      -8.0      3.384      5.079
REMARK  Name = 
REMARK  5 active torsions:
REMARK  status: ('A' for Active; 'I' for Inactive)
REMARK    1  A    between atoms: C_1  and  O_2
REMARK    2  A    between atoms: O_2  and  C_3
REMARK    3  A    between atoms: N_5  and  C_6
REMARK    4  A    between atoms: C_14  and  N_15
REMARK    5  A    between atoms: N_15  and  C_16
REMARK                            x       y       z     vdW  Elec       q    Type
REMARK                         _______ _______ _______ _____ _____    ______ ____
ROOT
ATOM      1  C   UNL     1       5.026   5.246  18.218  0.00  0.00    +0.000 A 
ATOM      2  O   UNL     1       5.058   3.962  18.668  0.00  0.00    +0.000 OA
ATOM      3  C   UNL     1       3.785   3.508  18.721  0.00  0.00    +0.000 A 
ATOM      4  C   UNL     1       3.385   2.254  19.148  0.00  0.00    +0.000 A 
ATOM      5  N   UNL     1       2.057   1.961  19.150  0.00  0.00    +0.000 NA
ATOM      6  C   UNL     1       1.183   2.912  18.743  0.00  0.00    +0.000 A 
ATOM      7  C   UNL     1       1.530   4.187  18.310  0.00  0.00    +0.000 A 
ATOM      8  C   UNL     1       2.900   4.490  18.292  0.00  0.00    +0.000 A 
ATOM      9  C   UNL     1       3.715   5.618  17.962  0.00  0.00    +0.000 A 
ENDROOT
BRANCH   1  12
ATOM     10  C   UNL     1       6.613   6.487  16.910  0.00  0.00    +0.000 C 
ATOM     11  O   UNL     1       5.994   6.535  15.856  0.00  0.00    +0.000 OA
ATOM     12  N   UNL     1       6.219   5.914  18.090  0.00  0.00    +0.000 N 
ATOM     13  H   UNL     1       6.788   6.096  18.900  0.00  0.00    +0.000 HD
BRANCH  10  15
ATOM     14  C   UNL     1       7.756   8.382  17.659  0.00  0.00    +0.000 C 
ATOM     15  O   UNL     1       7.831   7.072  17.084  0.00  0.00    +0.000 OA
ENDBRANCH  10  15
ENDBRANCH   1  12
BRANCH   9  16
ATOM     16  N   UNL     1       3.284   6.832  17.520  0.00  0.00    +0.000 N 
ATOM     17  H   UNL     1       3.378   7.054  16.533  0.00  0.00    +0.000 HD
BRANCH  16  18
ATOM     18  C   UNL     1       2.514   7.800  18.209  0.00  0.00    +0.000 A 
ATOM     19  C   UNL     1       1.935   8.904  17.560  0.00  0.00    +0.000 A 
ATOM     20  C   UNL     1       1.122   9.806  18.252  0.00  0.00    +0.000 A 
ATOM     21  C   UNL     1       0.871   9.607  19.604  0.00  0.00    +0.000 A 
ATOM     22  F   UNL     1       0.084  10.479  20.252  0.00  0.00    +0.000 F 
ATOM     23  C   UNL     1       1.424   8.515  20.265  0.00  0.00    +0.000 A 
ATOM     24 CL   UNL     1       1.105   8.251  21.937  0.00  0.00    +0.000 Cl
ATOM     25  C   UNL     1       2.239   7.613  19.572  0.00  0.00    +0.000 A 
ENDBRANCH  16  18
ENDBRANCH   9  16
TORSDOF 4
ENDMDL
MODEL 8
REMARK VINA RESULT:      -7.9      1.287      1.287
REMARK  Name = 
REMARK  5 active torsions:
REMARK  status: ('A' for Active; 'I' for Inactive)
REMARK    1  A    between atoms: C_1  and  O_2
REMARK    2  A    between atoms: O_2  and  C_3
REMARK    3  A    between atoms: N_5  and  C_6
REMARK    4  A    between atoms: C_14  and  N_15
REMARK    5  A    between atoms: N_15  and  C_16
REMARK                            x       y       z     vdW  Elec       q    Type
REMARK                         _______ _______ _______ _____ _____    ______ ____
ROOT
ATOM      1  C   UNL     1       6.863   4.372  16.680  0.00  0.00    +0.000 A 
ATOM      2  O   UNL     1       7.648   5.006  15.768  0.00  0.00    +0.000 OA
ATOM      3  C   UNL     1       7.199   4.678  14.534  0.00  0.00    +0.000 A 
ATOM      4  C   UNL     1       7.741   5.099  13.333  0.00  0.00    +0.000 A 
ATOM      5  N   UNL     1       7.174   4.665  12.175  0.00  0.00    +0.000 NA
ATOM      6  C   UNL     1       6.109   3.830  12.249  0.00  0.00    +0.000 A 
ATOM      7  C   UNL     1       5.530   3.373  13.428  0.00  0.00    +0.000 A 
ATOM      8  C   UNL     1       6.102   3.831  14.625  0.00  0.00    +0.000 A 
ATOM      9  C   UNL     1       5.886   3.637  16.026  0.00  0.00    +0.000 A 
ENDROOT
BRANCH   1  12
ATOM     10  C   UNL     1       6.430   5.428  18.794  0.00  0.00    +0.000 C 
ATOM     11  O   UNL     1       5.465   6.107  18.472  0.00  0.00    +0.000 OA
ATOM     12  N   UNL     1       7.144   4.558  18.012  0.00  0.00    +0.000 N 
ATOM     13  H   UNL     1       7.815   3.970  18.476  0.00  0.00    +0.000 HD
BRANCH  10  15
ATOM     14  C   UNL     1       8.361   5.523  20.105  0.00  0.00    +0.000 C 
ATOM     15  O   UNL     1       6.934   5.404  20.060  0.00  0.00    +0.000 OA
ENDBRANCH  10  15
ENDBRANCH   1  12
BRANCH   9  16
ATOM     16  N   UNL     1       4.931   2.856  16.601  0.00  0.00    +0.000 N 
ATOM     17  H   UNL     1       5.039   1.846  16.565  0.00  0.00    +0.000 HD
BRANCH  16  18
ATOM     18  C   UNL     1       3.867   3.244  17.451  0.00  0.00    +0.000 A 
ATOM     19  C   UNL     1       2.746   3.951  16.983  0.00  0.00    +0.000 A 
ATOM     20  C   UNL     1       1.678   4.259  17.831  0.00  0.00    +0.000 A 
ATOM     21  C   UNL     1       1.718   3.855  19.160  0.00  0.00    +0.000 A 
ATOM     22  F   UNL     1       0.683   4.155  19.959  0.00  0.00    +0.000 F 
ATOM     23  C   UNL     1       2.812   3.145  19.644  0.00  0.00    +0.000 A 
ATOM     24 CL   UNL     1       2.862   2.626  21.285  0.00  0.00    +0.000 Cl
ATOM     25  C   UNL     1       3.880   2.837  18.794  0.00  0.00    +0.000 A 
ENDBRANCH  16  18
ENDBRANCH   9  16
TORSDOF 4
ENDMDL
MODEL 9
REMARK VINA RESULT:      -7.9      3.859      5.787
REMARK  Name = 
REMARK  5 active torsions:
REMARK  status: ('A' for Active; 'I' for Inactive)
REMARK    1  A    between atoms: C_1  and  O_2
REMARK    2  A    between atoms: O_2  and  C_3
REMARK    3  A    between atoms: N_5  and  C_6
REMARK    4  A    between atoms: C_14  and  N_15
REMARK    5  A    between atoms: N_15  and  C_16
REMARK                            x       y       z     vdW  Elec       q    Type
REMARK                         _______ _______ _______ _____ _____    ______ ____
ROOT
ATOM      1  C   UNL     1       4.257   5.197  18.661  0.00  0.00    +0.000 A 
ATOM      2  O   UNL     1       4.164   3.942  18.145  0.00  0.00    +0.000 OA
ATOM      3  C   UNL     1       2.993   3.407  18.565  0.00  0.00    +0.000 A 
ATOM      4  C   UNL     1       2.532   2.135  18.279  0.00  0.00    +0.000 A 
ATOM      5  N   UNL     1       1.333   1.747  18.792  0.00  0.00    +0.000 NA
ATOM      6  C   UNL     1       0.649   2.620  19.571  0.00  0.00    +0.000 A 
ATOM      7  C   UNL     1       1.070   3.905  19.894  0.00  0.00    +0.000 A 
ATOM      8  C   UNL     1       2.299   4.316  19.354  0.00  0.00    +0.000 A 
ATOM      9  C   UNL     1       3.126   5.481  19.409  0.00  0.00    +0.000 A 
ENDROOT
BRANCH   1  12
ATOM     10  C   UNL     1       6.570   5.740  19.016  0.00  0.00    +0.000 C 
ATOM     11  O   UNL     1       6.829   4.913  19.880  0.00  0.00    +0.000 OA
ATOM     12  N   UNL     1       5.380   5.932  18.366  0.00  0.00    +0.000 N 
ATOM     13  H   UNL     1       5.384   6.559  17.578  0.00  0.00    +0.000 HD
BRANCH  10  15
ATOM     14  C   UNL     1       7.389   6.798  17.101  0.00  0.00    +0.000 C 
ATOM     15  O   UNL     1       7.495   6.608  18.517  0.00  0.00    +0.000 OA
ENDBRANCH  10  15
ENDBRANCH   1  12
BRANCH   9  16
ATOM     16  N   UNL     1       2.869   6.630  20.094  0.00  0.00    +0.000 N 
ATOM     17  H   UNL     1       3.355   6.796  20.971  0.00  0.00    +0.000 HD
BRANCH  16  18
ATOM     18  C   UNL     1       2.149   7.772  19.665  0.00  0.00    +0.000 A 
ATOM     19  C   UNL     1       2.144   8.202  18.328  0.00  0.00    +0.000 A 
ATOM     20  C   UNL     1       1.369   9.292  17.920  0.00  0.00    +0.000 A 
ATOM     21  C   UNL     1       0.581   9.959  18.849  0.00  0.00    +0.000 A 
ATOM     22  F   UNL     1      -0.161  11.000  18.441  0.00  0.00    +0.000 F 
ATOM     23  C   UNL     1       0.561   9.545  20.177  0.00  0.00    +0.000 A 
ATOM     24 CL   UNL     1      -0.425  10.356  21.332  0.00  0.00    +0.000 Cl
ATOM     25  C   UNL     1       1.338   8.455  20.584  0.00  0.00    +0.000 A 
ENDBRANCH  16  18
ENDBRANCH   9  16
TORSDOF 4
ENDMDL
