MODEL 1
REMARK VINA RESULT:      -6.4      0.000      0.000
REMARK  Name = 
REMARK  6 active torsions:
REMARK  status: ('A' for Active; 'I' for Inactive)
REMARK    1  A    between atoms: N_1  and  C_2
REMARK    2  A    between atoms: C_2  and  C_3
REMARK    3  A    between atoms: C_4  and  C_6
REMARK    4  A    between atoms: C_6  and  O_7
REMARK    5  A    between atoms: O_7  and  C_8
REMARK    6  A    between atoms: C_11  and  C_12
REMARK                            x       y       z     vdW  Elec       q    Type
REMARK                         _______ _______ _______ _____ _____    ______ ____
ROOT
ATOM      1  C   UNL     1       4.046   3.022  18.250  0.00  0.00    +0.000 A 
ATOM      2  C   UNL     1       4.021   3.285  16.878  0.00  0.00    +0.000 A 
ATOM      3  C   UNL     1       4.848   4.259  16.318  0.00  0.00    +0.000 A 
ATOM      4  C   UNL     1       5.707   5.006  17.127  0.00  0.00    +0.000 A 
ATOM      5  C   UNL     1       5.714   4.763  18.510  0.00  0.00    +0.000 A 
ATOM      6  C   UNL     1       4.883   3.781  19.069  0.00  0.00    +0.000 A 
ENDROOT
BRANCH   4   7
ATOM      7  C   UNL     1       6.613   6.054  16.575  0.00  0.00    +0.000 C 
ATOM      8  N   UNL     1       7.532   5.688  15.624  0.00  0.00    +0.000 N 
ATOM      9  O   UNL     1       6.549   7.220  16.951  0.00  0.00    +0.000 OA
ATOM     10  H   UNL     1       7.652   4.764  15.247  0.00  0.00    +0.000 HD
ATOM     11  H   UNL     1       8.125   6.425  15.269  0.00  0.00    +0.000 HD
ENDBRANCH   4   7
BRANCH   1  12
ATOM     12  O   UNL     1       3.274   2.068  18.871  0.00  0.00    +0.000 OA
BRANCH  12  13
ATOM     13  C   UNL     1       1.874   2.231  18.622  0.00  0.00    +0.000 C 
BRANCH  13  15
ATOM     14  C   UNL     1       1.077   3.773  20.411  0.00  0.00    +0.000 C 
ATOM     15  C   UNL     1       1.337   3.543  19.111  0.00  0.00    +0.000 C 
ATOM     16  F   UNL     1       1.077   4.534  18.228  0.00  0.00    +0.000 F 
BRANCH  14  17
ATOM     17  C   UNL     1       1.255   2.774  21.510  0.00  0.00    +0.000 C 
BRANCH  17  18
ATOM     18  N   UNL     1       2.642   2.753  21.937  0.00  0.00    +0.000 NA
ATOM     19  H   UNL     1       2.817   3.530  22.573  0.00  0.00    +0.000 HD
ATOM     20  H   UNL     1       3.247   2.907  21.132  0.00  0.00    +0.000 HD
ENDBRANCH  17  18
ENDBRANCH  14  17
ENDBRANCH  13  15
ENDBRANCH  12  13
ENDBRANCH   1  12
TORSDOF 6
ENDMDL
MODEL 2
REMARK VINA RESULT:      -6.4      2.296      2.633
REMARK  Name = 
REMARK  6 active torsions:
REMARK  status: ('A' for Active; 'I' for Inactive)
REMARK    1  A    between atoms: N_1  and  C_2
REMARK    2  A    between atoms: C_2  and  C_3
REMARK    3  A    between atoms: C_4  and  C_6
REMARK    4  A    between atoms: C_6  and  O_7
REMARK    5  A    between atoms: O_7  and  C_8
REMARK    6  A    between atoms: C_11  and  C_12
REMARK                            x       y       z     vdW  Elec       q    Type
REMARK                         _______ _______ _______ _____ _____    ______ ____
ROOT
ATOM      1  C   UNL     1       3.853   5.629  17.826  0.00  0.00    +0.000 A 
ATOM      2  C   UNL     1       3.908   4.330  17.313  0.00  0.00    +0.000 A 
ATOM      3  C   UNL     1       4.792   4.000  16.285  0.00  0.00    +0.000 A 
ATOM      4  C   UNL     1       5.629   4.973  15.735  0.00  0.00    +0.000 A 
ATOM      5  C   UNL     1       5.556   6.285  16.229  0.00  0.00    +0.000 A 
ATOM      6  C   UNL     1       4.669   6.613  17.264  0.00  0.00    +0.000 A 
ENDROOT
BRANCH   4   7
ATOM      7  C   UNL     1       6.593   4.668  14.639  0.00  0.00    +0.000 C 
ATOM      8  N   UNL     1       6.346   3.584  13.834  0.00  0.00    +0.000 N 
ATOM      9  O   UNL     1       7.587   5.361  14.448  0.00  0.00    +0.000 OA
ATOM     10  H   UNL     1       5.556   2.966  13.905  0.00  0.00    +0.000 HD
ATOM     11  H   UNL     1       7.017   3.412  13.098  0.00  0.00    +0.000 HD
ENDBRANCH   4   7
BRANCH   1  12
ATOM     12  O   UNL     1       3.022   6.025  18.847  0.00  0.00    +0.000 OA
BRANCH  12  13
ATOM     13  C   UNL     1       3.022   5.117  19.953  0.00  0.00    +0.000 C 
BRANCH  13  15
ATOM     14  C   UNL     1       1.161   3.517  20.394  0.00  0.00    +0.000 C 
ATOM     15  C   UNL     1       1.643   4.773  20.433  0.00  0.00    +0.000 C 
ATOM     16  F   UNL     1       0.832   5.748  20.903  0.00  0.00    +0.000 F 
BRANCH  14  17
ATOM     17  C   UNL     1       1.902   2.332  19.858  0.00  0.00    +0.000 C 
BRANCH  17  18
ATOM     18  N   UNL     1       1.282   1.880  18.626  0.00  0.00    +0.000 NA
ATOM     19  H   UNL     1       0.272   1.835  18.747  0.00  0.00    +0.000 HD
ATOM     20  H   UNL     1       1.584   0.928  18.424  0.00  0.00    +0.000 HD
ENDBRANCH  17  18
ENDBRANCH  14  17
ENDBRANCH  13  15
ENDBRANCH  12  13
ENDBRANCH   1  12
TORSDOF 6
ENDMDL
MODEL 3
REMARK VINA RESULT:      -6.3      2.359      2.732
REMARK  Name = 
REMARK  6 active torsions:
REMARK  status: ('A' for Active; 'I' for Inactive)
REMARK    1  A    between atoms: N_1  and  C_2
REMARK    2  A    between atoms: C_2  and  C_3
REMARK    3  A    between atoms: C_4  and  C_6
REMARK    4  A    between atoms: C_6  and  O_7
REMARK    5  A    between atoms: O_7  and  C_8
REMARK    6  A    between atoms: C_11  and  C_12
REMARK                            x       y       z     vdW  Elec       q    Type
REMARK                         _______ _______ _______ _____ _____    ______ ____
ROOT
ATOM      1  C   UNL     1       3.806   5.791  17.685  0.00  0.00    +0.000 A 
ATOM      2  C   UNL     1       4.404   6.775  16.892  0.00  0.00    +0.000 A 
ATOM      3  C   UNL     1       5.313   6.434  15.890  0.00  0.00    +0.000 A 
ATOM      4  C   UNL     1       5.658   5.099  15.675  0.00  0.00    +0.000 A 
ATOM      5  C   UNL     1       5.081   4.111  16.488  0.00  0.00    +0.000 A 
ATOM      6  C   UNL     1       4.165   4.456  17.493  0.00  0.00    +0.000 A 
ENDROOT
BRANCH   4   7
ATOM      7  C   UNL     1       6.622   4.685  14.614  0.00  0.00    +0.000 C 
ATOM      8  N   UNL     1       6.331   3.571  13.866  0.00  0.00    +0.000 N 
ATOM      9  O   UNL     1       7.652   5.316  14.401  0.00  0.00    +0.000 OA
ATOM     10  H   UNL     1       5.510   2.998  13.959  0.00  0.00    +0.000 HD
ATOM     11  H   UNL     1       7.003   3.324  13.153  0.00  0.00    +0.000 HD
ENDBRANCH   4   7
BRANCH   1  12
ATOM     12  O   UNL     1       2.889   6.047  18.678  0.00  0.00    +0.000 OA
BRANCH  12  13
ATOM     13  C   UNL     1       3.014   5.163  19.796  0.00  0.00    +0.000 C 
BRANCH  13  15
ATOM     14  C   UNL     1       1.234   3.514  20.370  0.00  0.00    +0.000 C 
ATOM     15  C   UNL     1       1.693   4.779  20.394  0.00  0.00    +0.000 C 
ATOM     16  F   UNL     1       0.911   5.726  20.961  0.00  0.00    +0.000 F 
BRANCH  14  17
ATOM     17  C   UNL     1       1.943   2.358  19.739  0.00  0.00    +0.000 C 
BRANCH  17  18
ATOM     18  N   UNL     1       1.165   1.852  18.622  0.00  0.00    +0.000 NA
ATOM     19  H   UNL     1       0.402   1.274  18.971  0.00  0.00    +0.000 HD
ATOM     20  H   UNL     1       1.747   1.236  18.055  0.00  0.00    +0.000 HD
ENDBRANCH  17  18
ENDBRANCH  14  17
ENDBRANCH  13  15
ENDBRANCH  12  13
ENDBRANCH   1  12
TORSDOF 6
ENDMDL
MODEL 4
REMARK VINA RESULT:      -6.3      1.845      2.008
REMARK  Name = 
REMARK  6 active torsions:
REMARK  status: ('A' for Active; 'I' for Inactive)
REMARK    1  A    between atoms: N_1  and  C_2
REMARK    2  A    between atoms: C_2  and  C_3
REMARK    3  A    between atoms: C_4  and  C_6
REMARK    4  A    between atoms: C_6  and  O_7
REMARK    5  A    between atoms: O_7  and  C_8
REMARK    6  A    between atoms: C_11  and  C_12
REMARK                            x       y       z     vdW  Elec       q    Type
REMARK                         _______ _______ _______ _____ _____    ______ ____
ROOT
ATOM      1  C   UNL     1       2.895   4.658  17.568  0.00  0.00    +0.000 A 
ATOM      2  C   UNL     1       3.619   3.742  16.800  0.00  0.00    +0.000 A 
ATOM      3  C   UNL     1       4.978   3.932  16.547  0.00  0.00    +0.000 A 
ATOM      4  C   UNL     1       5.637   5.059  17.043  0.00  0.00    +0.000 A 
ATOM      5  C   UNL     1       4.905   5.996  17.790  0.00  0.00    +0.000 A 
ATOM      6  C   UNL     1       3.540   5.800  18.045  0.00  0.00    +0.000 A 
ENDROOT
BRANCH   4   7
ATOM      7  C   UNL     1       7.088   5.304  16.803  0.00  0.00    +0.000 C 
ATOM      8  N   UNL     1       7.987   4.344  17.198  0.00  0.00    +0.000 N 
ATOM      9  O   UNL     1       7.485   6.332  16.265  0.00  0.00    +0.000 OA
ATOM     10  H   UNL     1       7.757   3.468  17.634  0.00  0.00    +0.000 HD
ATOM     11  H   UNL     1       8.961   4.542  17.014  0.00  0.00    +0.000 HD
ENDBRANCH   4   7
BRANCH   1  12
ATOM     12  O   UNL     1       1.560   4.531  17.873  0.00  0.00    +0.000 OA
BRANCH  12  13
ATOM     13  C   UNL     1       1.273   3.366  18.654  0.00  0.00    +0.000 C 
BRANCH  13  15
ATOM     14  C   UNL     1       2.730   2.894  20.621  0.00  0.00    +0.000 C 
ATOM     15  C   UNL     1       1.657   3.513  20.096  0.00  0.00    +0.000 C 
ATOM     16  F   UNL     1       0.898   4.272  20.919  0.00  0.00    +0.000 F 
BRANCH  14  17
ATOM     17  C   UNL     1       3.644   1.979  19.869  0.00  0.00    +0.000 C 
BRANCH  17  18
ATOM     18  N   UNL     1       4.999   2.498  19.903  0.00  0.00    +0.000 NA
ATOM     19  H   UNL     1       5.566   1.934  20.533  0.00  0.00    +0.000 HD
ATOM     20  H   UNL     1       4.992   3.438  20.296  0.00  0.00    +0.000 HD
ENDBRANCH  17  18
ENDBRANCH  14  17
ENDBRANCH  13  15
ENDBRANCH  12  13
ENDBRANCH   1  12
TORSDOF 6
ENDMDL
MODEL 5
REMARK VINA RESULT:      -6.3      2.015      2.371
REMARK  Name = 
REMARK  6 active torsions:
REMARK  status: ('A' for Active; 'I' for Inactive)
REMARK    1  A    between atoms: N_1  and  C_2
REMARK    2  A    between atoms: C_2  and  C_3
REMARK    3  A    between atoms: C_4  and  C_6
REMARK    4  A    between atoms: C_6  and  O_7
REMARK    5  A    between atoms: O_7  and  C_8
REMARK    6  A    between atoms: C_11  and  C_12
REMARK                            x       y       z     vdW  Elec       q    Type
REMARK                         _______ _______ _______ _____ _____    ______ ____
ROOT
ATOM      1  C   UNL     1       4.675   5.533  18.162  0.00  0.00    +0.000 A 
ATOM      2  C   UNL     1       4.607   6.454  17.113  0.00  0.00    +0.000 A 
ATOM      3  C   UNL     1       5.267   6.217  15.906  0.00  0.00    +0.000 A 
ATOM      4  C   UNL     1       6.027   5.059  15.733  0.00  0.00    +0.000 A 
ATOM      5  C   UNL     1       6.120   4.146  16.796  0.00  0.00    +0.000 A 
ATOM      6  C   UNL     1       5.453   4.385  18.006  0.00  0.00    +0.000 A 
ENDROOT
BRANCH   4   7
ATOM      7  C   UNL     1       6.746   4.760  14.461  0.00  0.00    +0.000 C 
ATOM      8  N   UNL     1       6.376   3.647  13.747  0.00  0.00    +0.000 N 
ATOM      9  O   UNL     1       7.648   5.482  14.050  0.00  0.00    +0.000 OA
ATOM     10  H   UNL     1       5.645   3.005  13.998  0.00  0.00    +0.000 HD
ATOM     11  H   UNL     1       6.881   3.480  12.888  0.00  0.00    +0.000 HD
ENDBRANCH   4   7
BRANCH   1  12
ATOM     12  O   UNL     1       4.039   5.688  19.372  0.00  0.00    +0.000 OA
BRANCH  12  13
ATOM     13  C   UNL     1       2.630   5.900  19.241  0.00  0.00    +0.000 C 
BRANCH  13  15
ATOM     14  C   UNL     1       1.568   3.743  19.902  0.00  0.00    +0.000 C 
ATOM     15  C   UNL     1       1.869   4.641  18.947  0.00  0.00    +0.000 C 
ATOM     16  F   UNL     1       1.484   4.371  17.679  0.00  0.00    +0.000 F 
BRANCH  14  17
ATOM     17  C   UNL     1       1.963   3.859  21.341  0.00  0.00    +0.000 C 
BRANCH  17  18
ATOM     18  N   UNL     1       1.733   2.596  22.018  0.00  0.00    +0.000 NA
ATOM     19  H   UNL     1       1.868   1.827  21.364  0.00  0.00    +0.000 HD
ATOM     20  H   UNL     1       0.760   2.543  22.318  0.00  0.00    +0.000 HD
ENDBRANCH  17  18
ENDBRANCH  14  17
ENDBRANCH  13  15
ENDBRANCH  12  13
ENDBRANCH   1  12
TORSDOF 6
ENDMDL
MODEL 6
REMARK VINA RESULT:      -6.3      1.554      1.616
REMARK  Name = 
REMARK  6 active torsions:
REMARK  status: ('A' for Active; 'I' for Inactive)
REMARK    1  A    between atoms: N_1  and  C_2
REMARK    2  A    between atoms: C_2  and  C_3
REMARK    3  A    between atoms: C_4  and  C_6
REMARK    4  A    between atoms: C_6  and  O_7
REMARK    5  A    between atoms: O_7  and  C_8
REMARK    6  A    between atoms: C_11  and  C_12
REMARK                            x       y       z     vdW  Elec       q    Type
REMARK                         _______ _______ _______ _____ _____    ______ ____
ROOT
ATOM      1  C   UNL     1       4.258   3.620  17.667  0.00  0.00    +0.000 A 
ATOM      2  C   UNL     1       4.644   4.316  16.519  0.00  0.00    +0.000 A 
ATOM      3  C   UNL     1       5.648   5.283  16.568  0.00  0.00    +0.000 A 
ATOM      4  C   UNL     1       6.276   5.587  17.778  0.00  0.00    +0.000 A 
ATOM      5  C   UNL     1       5.871   4.909  18.939  0.00  0.00    +0.000 A 
ATOM      6  C   UNL     1       4.863   3.935  18.885  0.00  0.00    +0.000 A 
ENDROOT
BRANCH   4   7
ATOM      7  C   UNL     1       7.357   6.609  17.881  0.00  0.00    +0.000 C 
ATOM      8  N   UNL     1       8.169   6.593  18.988  0.00  0.00    +0.000 N 
ATOM      9  O   UNL     1       7.530   7.450  17.005  0.00  0.00    +0.000 OA
ATOM     10  H   UNL     1       8.111   5.939  19.749  0.00  0.00    +0.000 HD
ATOM     11  H   UNL     1       8.894   7.296  19.020  0.00  0.00    +0.000 HD
ENDBRANCH   4   7
BRANCH   1  12
ATOM     12  O   UNL     1       3.290   2.643  17.694  0.00  0.00    +0.000 OA
BRANCH  12  13
ATOM     13  C   UNL     1       2.913   2.264  19.021  0.00  0.00    +0.000 C 
BRANCH  13  15
ATOM     14  C   UNL     1       1.137   3.347  20.395  0.00  0.00    +0.000 C 
ATOM     15  C   UNL     1       1.484   2.584  19.342  0.00  0.00    +0.000 C 
ATOM     16  F   UNL     1       0.493   2.079  18.573  0.00  0.00    +0.000 F 
BRANCH  14  17
ATOM     17  C   UNL     1       2.098   3.941  21.376  0.00  0.00    +0.000 C 
BRANCH  17  18
ATOM     18  N   UNL     1       2.361   5.326  21.033  0.00  0.00    +0.000 NA
ATOM     19  H   UNL     1       3.008   5.729  21.708  0.00  0.00    +0.000 HD
ATOM     20  H   UNL     1       1.500   5.865  21.112  0.00  0.00    +0.000 HD
ENDBRANCH  17  18
ENDBRANCH  14  17
ENDBRANCH  13  15
ENDBRANCH  12  13
ENDBRANCH   1  12
TORSDOF 6
ENDMDL
MODEL 7
REMARK VINA RESULT:      -6.3      0.740      1.407
REMARK  Name = 
REMARK  6 active torsions:
REMARK  status: ('A' for Active; 'I' for Inactive)
REMARK    1  A    between atoms: N_1  and  C_2
REMARK    2  A    between atoms: C_2  and  C_3
REMARK    3  A    between atoms: C_4  and  C_6
REMARK    4  A    between atoms: C_6  and  O_7
REMARK    5  A    between atoms: O_7  and  C_8
REMARK    6  A    between atoms: C_11  and  C_12
REMARK                            x       y       z     vdW  Elec       q    Type
REMARK                         _______ _______ _______ _____ _____    ______ ____
ROOT
ATOM      1  C   UNL     1       4.098   2.995  18.529  0.00  0.00    +0.000 A 
ATOM      2  C   UNL     1       4.910   3.917  19.196  0.00  0.00    +0.000 A 
ATOM      3  C   UNL     1       5.594   4.910  18.494  0.00  0.00    +0.000 A 
ATOM      4  C   UNL     1       5.493   4.988  17.104  0.00  0.00    +0.000 A 
ATOM      5  C   UNL     1       4.701   4.046  16.429  0.00  0.00    +0.000 A 
ATOM      6  C   UNL     1       4.012   3.051  17.137  0.00  0.00    +0.000 A 
ENDROOT
BRANCH   4   7
ATOM      7  C   UNL     1       6.201   6.034  16.311  0.00  0.00    +0.000 C 
ATOM      8  N   UNL     1       5.463   6.825  15.466  0.00  0.00    +0.000 N 
ATOM      9  O   UNL     1       7.414   6.197  16.401  0.00  0.00    +0.000 OA
ATOM     10  H   UNL     1       4.468   6.775  15.334  0.00  0.00    +0.000 HD
ATOM     11  H   UNL     1       5.975   7.527  14.950  0.00  0.00    +0.000 HD
ENDBRANCH   4   7
BRANCH   1  12
ATOM     12  O   UNL     1       3.381   2.000  19.152  0.00  0.00    +0.000 OA
BRANCH  12  13
ATOM     13  C   UNL     1       1.989   2.023  18.823  0.00  0.00    +0.000 C 
BRANCH  13  15
ATOM     14  C   UNL     1       0.995   3.644  20.435  0.00  0.00    +0.000 C 
ATOM     15  C   UNL     1       1.321   3.320  19.171  0.00  0.00    +0.000 C 
ATOM     16  F   UNL     1       1.007   4.198  18.191  0.00  0.00    +0.000 F 
BRANCH  14  17
ATOM     17  C   UNL     1       1.221   2.769  21.628  0.00  0.00    +0.000 C 
BRANCH  17  18
ATOM     18  N   UNL     1       2.612   2.843  22.037  0.00  0.00    +0.000 NA
ATOM     19  H   UNL     1       3.213   2.782  21.218  0.00  0.00    +0.000 HD
ATOM     20  H   UNL     1       2.839   2.034  22.614  0.00  0.00    +0.000 HD
ENDBRANCH  17  18
ENDBRANCH  14  17
ENDBRANCH  13  15
ENDBRANCH  12  13
ENDBRANCH   1  12
TORSDOF 6
ENDMDL
MODEL 8
REMARK VINA RESULT:      -6.3      1.411      1.842
REMARK  Name = 
REMARK  6 active torsions:
REMARK  status: ('A' for Active; 'I' for Inactive)
REMARK    1  A    between atoms: N_1  and  C_2
REMARK    2  A    between atoms: C_2  and  C_3
REMARK    3  A    between atoms: C_4  and  C_6
REMARK    4  A    between atoms: C_6  and  O_7
REMARK    5  A    between atoms: O_7  and  C_8
REMARK    6  A    between atoms: C_11  and  C_12
REMARK                            x       y       z     vdW  Elec       q    Type
REMARK                         _______ _______ _______ _____ _____    ______ ____
ROOT
ATOM      1  C   UNL     1       4.048   3.755  17.713  0.00  0.00    +0.000 A 
ATOM      2  C   UNL     1       4.425   4.367  18.912  0.00  0.00    +0.000 A 
ATOM      3  C   UNL     1       5.507   5.247  18.960  0.00  0.00    +0.000 A 
ATOM      4  C   UNL     1       6.248   5.518  17.808  0.00  0.00    +0.000 A 
ATOM      5  C   UNL     1       5.889   4.883  16.608  0.00  0.00    +0.000 A 
ATOM      6  C   UNL     1       4.800   4.001  16.563  0.00  0.00    +0.000 A 
ENDROOT
BRANCH   4   7
ATOM      7  C   UNL     1       7.409   6.454  17.808  0.00  0.00    +0.000 C 
ATOM      8  N   UNL     1       8.126   6.605  18.969  0.00  0.00    +0.000 N 
ATOM      9  O   UNL     1       7.729   7.080  16.803  0.00  0.00    +0.000 OA
ATOM     10  H   UNL     1       7.948   6.129  19.837  0.00  0.00    +0.000 HD
ATOM     11  H   UNL     1       8.909   7.243  18.930  0.00  0.00    +0.000 HD
ENDBRANCH   4   7
BRANCH   1  12
ATOM     12  O   UNL     1       2.986   2.892  17.583  0.00  0.00    +0.000 OA
BRANCH  12  13
ATOM     13  C   UNL     1       2.611   2.275  18.819  0.00  0.00    +0.000 C 
BRANCH  13  15
ATOM     14  C   UNL     1       0.958   3.328  20.360  0.00  0.00    +0.000 C 
ATOM     15  C   UNL     1       1.215   2.615  19.248  0.00  0.00    +0.000 C 
ATOM     16  F   UNL     1       0.163   2.178  18.519  0.00  0.00    +0.000 F 
BRANCH  14  17
ATOM     17  C   UNL     1       1.997   3.841  21.307  0.00  0.00    +0.000 C 
BRANCH  17  18
ATOM     18  N   UNL     1       2.386   2.791  22.230  0.00  0.00    +0.000 NA
ATOM     19  H   UNL     1       1.676   2.061  22.236  0.00  0.00    +0.000 HD
ATOM     20  H   UNL     1       2.413   3.165  23.177  0.00  0.00    +0.000 HD
ENDBRANCH  17  18
ENDBRANCH  14  17
ENDBRANCH  13  15
ENDBRANCH  12  13
ENDBRANCH   1  12
TORSDOF 6
ENDMDL
MODEL 9
REMARK VINA RESULT:      -6.3      1.933      2.381
REMARK  Name = 
REMARK  6 active torsions:
REMARK  status: ('A' for Active; 'I' for Inactive)
REMARK    1  A    between atoms: N_1  and  C_2
REMARK    2  A    between atoms: C_2  and  C_3
REMARK    3  A    between atoms: C_4  and  C_6
REMARK    4  A    between atoms: C_6  and  O_7
REMARK    5  A    between atoms: O_7  and  C_8
REMARK    6  A    between atoms: C_11  and  C_12
REMARK                            x       y       z     vdW  Elec       q    Type
REMARK                         _______ _______ _______ _____ _____    ______ ____
ROOT
ATOM      1  C   UNL     1       2.970   4.948  17.771  0.00  0.00    +0.000 A 
ATOM      2  C   UNL     1       3.880   5.794  18.410  0.00  0.00    +0.000 A 
ATOM      3  C   UNL     1       5.224   5.819  18.035  0.00  0.00    +0.000 A 
ATOM      4  C   UNL     1       5.688   4.978  17.022  0.00  0.00    +0.000 A 
ATOM      5  C   UNL     1       4.781   4.107  16.397  0.00  0.00    +0.000 A 
ATOM      6  C   UNL     1       3.431   4.087  16.774  0.00  0.00    +0.000 A 
ENDROOT
BRANCH   4   7
ATOM      7  C   UNL     1       7.113   4.971  16.582  0.00  0.00    +0.000 C 
ATOM      8  N   UNL     1       8.036   4.325  17.367  0.00  0.00    +0.000 N 
ATOM      9  O   UNL     1       7.468   5.524  15.547  0.00  0.00    +0.000 OA
ATOM     10  H   UNL     1       7.839   3.836  18.224  0.00  0.00    +0.000 HD
ATOM     11  H   UNL     1       8.990   4.335  17.035  0.00  0.00    +0.000 HD
ENDBRANCH   4   7
BRANCH   1  12
ATOM     12  O   UNL     1       1.629   4.881  18.073  0.00  0.00    +0.000 OA
BRANCH  12  13
ATOM     13  C   UNL     1       1.370   4.248  19.330  0.00  0.00    +0.000 C 
BRANCH  13  15
ATOM     14  C   UNL     1       2.397   2.013  19.738  0.00  0.00    +0.000 C 
ATOM     15  C   UNL     1       1.383   2.750  19.250  0.00  0.00    +0.000 C 
ATOM     16  F   UNL     1       0.360   2.100  18.649  0.00  0.00    +0.000 F 
BRANCH  14  17
ATOM     17  C   UNL     1       3.626   2.570  20.384  0.00  0.00    +0.000 C 
BRANCH  17  18
ATOM     18  N   UNL     1       4.800   2.194  19.618  0.00  0.00    +0.000 NA
ATOM     19  H   UNL     1       5.579   2.017  20.249  0.00  0.00    +0.000 HD
ATOM     20  H   UNL     1       5.086   2.976  19.030  0.00  0.00    +0.000 HD
ENDBRANCH  17  18
ENDBRANCH  14  17
ENDBRANCH  13  15
ENDBRANCH  12  13
ENDBRANCH   1  12
TORSDOF 6
ENDMDL
