MODEL 1
REMARK VINA RESULT:      -7.6      0.000      0.000
REMARK  Name = 
REMARK  5 active torsions:
REMARK  status: ('A' for Active; 'I' for Inactive)
REMARK    1  A    between atoms: C_1  and  N_2
REMARK    2  A    between atoms: C_6  and  N_7
REMARK    3  A    between atoms: C_8  and  C_10
REMARK    4  A    between atoms: C_13  and  C_14
REMARK    5  A    between atoms: C_17  and  C_18
REMARK                            x       y       z     vdW  Elec       q    Type
REMARK                         _______ _______ _______ _____ _____    ______ ____
ROOT
ATOM      1  C   UNL     1       1.071   8.828  20.483  0.00  0.00    +0.000 A 
ATOM      2  C   UNL     1       0.705  10.008  19.830  0.00  0.00    +0.000 A 
ATOM      3  C   UNL     1       0.019  11.000  20.531  0.00  0.00    +0.000 A 
ATOM      4  C   UNL     1      -0.316  10.827  21.883  0.00  0.00    +0.000 A 
ATOM      5  C   UNL     1       0.019   9.619  22.517  0.00  0.00    +0.000 A 
ATOM      6  C   UNL     1       0.706   8.623  21.818  0.00  0.00    +0.000 A 
ENDROOT
BRANCH   4   7
ATOM      7  C   UNL     1      -0.980  11.888  22.629  0.00  0.00    +0.000 A 
ATOM      8  N   UNL     1      -0.384  13.043  22.973  0.00  0.00    +0.000 NA
ATOM      9  O   UNL     1      -1.354  13.717  23.702  0.00  0.00    +0.000 OA
ATOM     10  C   UNL     1      -2.453  12.912  23.736  0.00  0.00    +0.000 A 
ATOM     11  N   UNL     1      -2.275  11.776  23.086  0.00  0.00    +0.000 NA
BRANCH  10  12
ATOM     12  C   UNL     1      -3.621  13.436  24.489  0.00  0.00    +0.000 C 
ATOM     13  F   UNL     1      -4.303  12.459  25.148  0.00  0.00    +0.000 F 
ATOM     14  F   UNL     1      -3.260  14.351  25.428  0.00  0.00    +0.000 F 
ATOM     15  F   UNL     1      -4.523  14.047  23.675  0.00  0.00    +0.000 F 
ENDBRANCH  10  12
ENDBRANCH   4   7
BRANCH   1  17
ATOM     16  N   UNL     1       2.078   6.610  20.519  0.00  0.00    +0.000 N 
ATOM     17  C   UNL     1       1.834   7.762  19.793  0.00  0.00    +0.000 C 
ATOM     18  O   UNL     1       2.165   7.920  18.623  0.00  0.00    +0.000 OA
ATOM     19  H   UNL     1       1.551   6.453  21.367  0.00  0.00    +0.000 HD
BRANCH  16  25
ATOM     20  C   UNL     1       6.043   4.606  18.394  0.00  0.00    +0.000 C 
ATOM     21  N   UNL     1       4.639   4.449  18.767  0.00  0.00    +0.000 NA
ATOM     22  C   UNL     1       4.426   3.186  19.487  0.00  0.00    +0.000 C 
ATOM     23  C   UNL     1       2.957   2.988  19.879  0.00  0.00    +0.000 C 
ATOM     24  C   UNL     1       2.428   4.182  20.662  0.00  0.00    +0.000 C 
ATOM     25  C   UNL     1       2.650   5.456  19.842  0.00  0.00    +0.000 C 
ATOM     26  C   UNL     1       4.153   5.611  19.532  0.00  0.00    +0.000 C 
ENDBRANCH  16  25
ENDBRANCH   1  17
TORSDOF 4
ENDMDL
MODEL 2
REMARK VINA RESULT:      -7.6      2.304      3.246
REMARK  Name = 
REMARK  5 active torsions:
REMARK  status: ('A' for Active; 'I' for Inactive)
REMARK    1  A    between atoms: C_1  and  N_2
REMARK    2  A    between atoms: C_6  and  N_7
REMARK    3  A    between atoms: C_8  and  C_10
REMARK    4  A    between atoms: C_13  and  C_14
REMARK    5  A    between atoms: C_17  and  C_18
REMARK                            x       y       z     vdW  Elec       q    Type
REMARK                         _______ _______ _______ _____ _____    ______ ____
ROOT
ATOM      1  C   UNL     1       2.260   7.641  18.736  0.00  0.00    +0.000 A 
ATOM      2  C   UNL     1       1.901   8.761  17.979  0.00  0.00    +0.000 A 
ATOM      3  C   UNL     1       1.230   9.820  18.590  0.00  0.00    +0.000 A 
ATOM      4  C   UNL     1       0.902   9.775  19.955  0.00  0.00    +0.000 A 
ATOM      5  C   UNL     1       1.230   8.628  20.695  0.00  0.00    +0.000 A 
ATOM      6  C   UNL     1       1.902   7.564  20.086  0.00  0.00    +0.000 A 
ENDROOT
BRANCH   4   7
ATOM      7  C   UNL     1       0.255  10.908  20.604  0.00  0.00    +0.000 A 
ATOM      8  N   UNL     1       0.583  12.190  20.369  0.00  0.00    +0.000 NA
ATOM      9  O   UNL     1      -0.238  12.910  21.226  0.00  0.00    +0.000 OA
ATOM     10  C   UNL     1      -0.992  12.000  21.906  0.00  0.00    +0.000 A 
ATOM     11  N   UNL     1      -0.730  10.754  21.556  0.00  0.00    +0.000 NA
BRANCH  10  12
ATOM     12  C   UNL     1      -1.942  12.557  22.903  0.00  0.00    +0.000 C 
ATOM     13  F   UNL     1      -2.557  11.592  23.640  0.00  0.00    +0.000 F 
ATOM     14  F   UNL     1      -1.329  13.384  23.792  0.00  0.00    +0.000 F 
ATOM     15  F   UNL     1      -2.934  13.280  22.317  0.00  0.00    +0.000 F 
ENDBRANCH  10  12
ENDBRANCH   4   7
BRANCH   1  17
ATOM     16  N   UNL     1       4.275   6.790  17.665  0.00  0.00    +0.000 N 
ATOM     17  C   UNL     1       3.007   6.509  18.142  0.00  0.00    +0.000 C 
ATOM     18  O   UNL     1       2.506   5.390  18.144  0.00  0.00    +0.000 OA
ATOM     19  H   UNL     1       4.712   7.660  17.938  0.00  0.00    +0.000 HD
BRANCH  16  25
ATOM     20  C   UNL     1       6.004   4.078  13.937  0.00  0.00    +0.000 C 
ATOM     21  N   UNL     1       5.998   4.322  15.377  0.00  0.00    +0.000 NA
ATOM     22  C   UNL     1       7.369   4.422  15.897  0.00  0.00    +0.000 C 
ATOM     23  C   UNL     1       7.392   4.664  17.411  0.00  0.00    +0.000 C 
ATOM     24  C   UNL     1       6.553   5.877  17.791  0.00  0.00    +0.000 C 
ATOM     25  C   UNL     1       5.133   5.692  17.248  0.00  0.00    +0.000 C 
ATOM     26  C   UNL     1       5.188   5.506  15.718  0.00  0.00    +0.000 C 
ENDBRANCH  16  25
ENDBRANCH   1  17
TORSDOF 4
ENDMDL
MODEL 3
REMARK VINA RESULT:      -7.6      2.209      3.399
REMARK  Name = 
REMARK  5 active torsions:
REMARK  status: ('A' for Active; 'I' for Inactive)
REMARK    1  A    between atoms: C_1  and  N_2
REMARK    2  A    between atoms: C_6  and  N_7
REMARK    3  A    between atoms: C_8  and  C_10
REMARK    4  A    between atoms: C_13  and  C_14
REMARK    5  A    between atoms: C_17  and  C_18
REMARK                            x       y       z     vdW  Elec       q    Type
REMARK                         _______ _______ _______ _____ _____    ______ ____
ROOT
ATOM      1  C   UNL     1       2.326   7.371  19.312  0.00  0.00    +0.000 A 
ATOM      2  C   UNL     1       1.850   7.398  20.626  0.00  0.00    +0.000 A 
ATOM      3  C   UNL     1       1.055   8.463  21.050  0.00  0.00    +0.000 A 
ATOM      4  C   UNL     1       0.731   9.514  20.177  0.00  0.00    +0.000 A 
ATOM      5  C   UNL     1       1.250   9.496  18.872  0.00  0.00    +0.000 A 
ATOM      6  C   UNL     1       2.047   8.432  18.444  0.00  0.00    +0.000 A 
ENDROOT
BRANCH   4   7
ATOM      7  C   UNL     1      -0.149  10.594  20.603  0.00  0.00    +0.000 A 
ATOM      8  N   UNL     1      -0.451  11.656  19.838  0.00  0.00    +0.000 NA
ATOM      9  O   UNL     1      -1.261  12.437  20.651  0.00  0.00    +0.000 OA
ATOM     10  C   UNL     1      -1.380  11.779  21.839  0.00  0.00    +0.000 A 
ATOM     11  N   UNL     1      -0.718  10.636  21.858  0.00  0.00    +0.000 NA
BRANCH  10  12
ATOM     12  C   UNL     1      -2.201  12.451  22.877  0.00  0.00    +0.000 C 
ATOM     13  F   UNL     1      -3.204  13.205  22.348  0.00  0.00    +0.000 F 
ATOM     14  F   UNL     1      -2.794  11.563  23.719  0.00  0.00    +0.000 F 
ATOM     15  F   UNL     1      -1.462  13.289  23.651  0.00  0.00    +0.000 F 
ENDBRANCH  10  12
ENDBRANCH   4   7
BRANCH   1  17
ATOM     16  N   UNL     1       4.068   6.547  17.822  0.00  0.00    +0.000 N 
ATOM     17  C   UNL     1       3.141   6.244  18.804  0.00  0.00    +0.000 C 
ATOM     18  O   UNL     1       3.001   5.130  19.296  0.00  0.00    +0.000 OA
ATOM     19  H   UNL     1       4.305   7.517  17.664  0.00  0.00    +0.000 HD
BRANCH  16  25
ATOM     20  C   UNL     1       6.105   4.019  14.119  0.00  0.00    +0.000 C 
ATOM     21  N   UNL     1       6.048   4.254  15.560  0.00  0.00    +0.000 NA
ATOM     22  C   UNL     1       7.394   4.472  16.109  0.00  0.00    +0.000 C 
ATOM     23  C   UNL     1       7.365   4.707  17.624  0.00  0.00    +0.000 C 
ATOM     24  C   UNL     1       6.414   5.838  17.990  0.00  0.00    +0.000 C 
ATOM     25  C   UNL     1       5.028   5.531  17.418  0.00  0.00    +0.000 C 
ATOM     26  C   UNL     1       5.130   5.359  15.889  0.00  0.00    +0.000 C 
ENDBRANCH  16  25
ENDBRANCH   1  17
TORSDOF 4
ENDMDL
MODEL 4
REMARK VINA RESULT:      -7.5      0.261      1.001
REMARK  Name = 
REMARK  5 active torsions:
REMARK  status: ('A' for Active; 'I' for Inactive)
REMARK    1  A    between atoms: C_1  and  N_2
REMARK    2  A    between atoms: C_6  and  N_7
REMARK    3  A    between atoms: C_8  and  C_10
REMARK    4  A    between atoms: C_13  and  C_14
REMARK    5  A    between atoms: C_17  and  C_18
REMARK                            x       y       z     vdW  Elec       q    Type
REMARK                         _______ _______ _______ _____ _____    ______ ____
ROOT
ATOM      1  C   UNL     1       1.113   8.796  20.702  0.00  0.00    +0.000 A 
ATOM      2  C   UNL     1       0.690   8.671  22.028  0.00  0.00    +0.000 A 
ATOM      3  C   UNL     1      -0.003   9.720  22.633  0.00  0.00    +0.000 A 
ATOM      4  C   UNL     1      -0.275  10.905  21.930  0.00  0.00    +0.000 A 
ATOM      5  C   UNL     1       0.192  11.035  20.612  0.00  0.00    +0.000 A 
ATOM      6  C   UNL     1       0.887   9.987  20.003  0.00  0.00    +0.000 A 
ENDROOT
BRANCH   4   7
ATOM      7  C   UNL     1      -1.050  11.975  22.544  0.00  0.00    +0.000 A 
ATOM      8  N   UNL     1      -0.671  13.264  22.545  0.00  0.00    +0.000 NA
ATOM      9  O   UNL     1      -1.665  13.907  23.270  0.00  0.00    +0.000 OA
ATOM     10  C   UNL     1      -2.560  12.949  23.646  0.00  0.00    +0.000 A 
ATOM     11  N   UNL     1      -2.229  11.744  23.219  0.00  0.00    +0.000 NA
BRANCH  10  12
ATOM     12  C   UNL     1      -3.712  13.417  24.458  0.00  0.00    +0.000 C 
ATOM     13  F   UNL     1      -4.403  12.394  25.030  0.00  0.00    +0.000 F 
ATOM     14  F   UNL     1      -3.327  14.234  25.474  0.00  0.00    +0.000 F 
ATOM     15  F   UNL     1      -4.612  14.116  23.715  0.00  0.00    +0.000 F 
ENDBRANCH  10  12
ENDBRANCH   4   7
BRANCH   1  17
ATOM     16  N   UNL     1       2.002   6.528  20.723  0.00  0.00    +0.000 N 
ATOM     17  C   UNL     1       1.817   7.696  20.004  0.00  0.00    +0.000 C 
ATOM     18  O   UNL     1       2.151   7.842  18.833  0.00  0.00    +0.000 OA
ATOM     19  H   UNL     1       1.470   6.395  21.572  0.00  0.00    +0.000 HD
BRANCH  16  25
ATOM     20  C   UNL     1       5.751   4.444  18.305  0.00  0.00    +0.000 C 
ATOM     21  N   UNL     1       4.391   4.302  18.817  0.00  0.00    +0.000 NA
ATOM     22  C   UNL     1       4.252   3.066  19.601  0.00  0.00    +0.000 C 
ATOM     23  C   UNL     1       2.827   2.884  20.138  0.00  0.00    +0.000 C 
ATOM     24  C   UNL     1       2.371   4.107  20.923  0.00  0.00    +0.000 C 
ATOM     25  C   UNL     1       2.510   5.349  20.039  0.00  0.00    +0.000 C 
ATOM     26  C   UNL     1       3.976   5.492  19.581  0.00  0.00    +0.000 C 
ENDBRANCH  16  25
ENDBRANCH   1  17
TORSDOF 4
ENDMDL
MODEL 5
REMARK VINA RESULT:      -7.5      2.420      3.434
REMARK  Name = 
REMARK  5 active torsions:
REMARK  status: ('A' for Active; 'I' for Inactive)
REMARK    1  A    between atoms: C_1  and  N_2
REMARK    2  A    between atoms: C_6  and  N_7
REMARK    3  A    between atoms: C_8  and  C_10
REMARK    4  A    between atoms: C_13  and  C_14
REMARK    5  A    between atoms: C_17  and  C_18
REMARK                            x       y       z     vdW  Elec       q    Type
REMARK                         _______ _______ _______ _____ _____    ______ ____
ROOT
ATOM      1  C   UNL     1       2.265   7.569  18.765  0.00  0.00    +0.000 A 
ATOM      2  C   UNL     1       1.857   8.687  18.034  0.00  0.00    +0.000 A 
ATOM      3  C   UNL     1       1.181   9.724  18.677  0.00  0.00    +0.000 A 
ATOM      4  C   UNL     1       0.897   9.656  20.051  0.00  0.00    +0.000 A 
ATOM      5  C   UNL     1       1.274   8.509  20.767  0.00  0.00    +0.000 A 
ATOM      6  C   UNL     1       1.951   7.468  20.125  0.00  0.00    +0.000 A 
ENDROOT
BRANCH   4   7
ATOM      7  C   UNL     1       0.244  10.766  20.733  0.00  0.00    +0.000 A 
ATOM      8  N   UNL     1       0.812  11.467  21.730  0.00  0.00    +0.000 NA
ATOM      9  O   UNL     1      -0.170  12.373  22.106  0.00  0.00    +0.000 OA
ATOM     10  C   UNL     1      -1.248  12.143  21.303  0.00  0.00    +0.000 A 
ATOM     11  N   UNL     1      -1.041  11.166  20.437  0.00  0.00    +0.000 NA
BRANCH  10  12
ATOM     12  C   UNL     1      -2.436  13.000  21.545  0.00  0.00    +0.000 C 
ATOM     13  F   UNL     1      -3.093  13.325  20.398  0.00  0.00    +0.000 F 
ATOM     14  F   UNL     1      -3.350  12.396  22.351  0.00  0.00    +0.000 F 
ATOM     15  F   UNL     1      -2.105  14.176  22.143  0.00  0.00    +0.000 F 
ENDBRANCH  10  12
ENDBRANCH   4   7
BRANCH   1  17
ATOM     16  N   UNL     1       4.317   6.743  17.746  0.00  0.00    +0.000 N 
ATOM     17  C   UNL     1       3.019   6.461  18.136  0.00  0.00    +0.000 C 
ATOM     18  O   UNL     1       2.496   5.357  18.035  0.00  0.00    +0.000 OA
ATOM     19  H   UNL     1       4.757   7.581  18.100  0.00  0.00    +0.000 HD
BRANCH  16  25
ATOM     20  C   UNL     1       5.987   4.080  13.955  0.00  0.00    +0.000 C 
ATOM     21  N   UNL     1       6.008   4.309  15.397  0.00  0.00    +0.000 NA
ATOM     22  C   UNL     1       7.389   4.413  15.891  0.00  0.00    +0.000 C 
ATOM     23  C   UNL     1       7.441   4.639  17.406  0.00  0.00    +0.000 C 
ATOM     24  C   UNL     1       6.602   5.842  17.815  0.00  0.00    +0.000 C 
ATOM     25  C   UNL     1       5.173   5.654  17.300  0.00  0.00    +0.000 C 
ATOM     26  C   UNL     1       5.198   5.484  15.767  0.00  0.00    +0.000 C 
ENDBRANCH  16  25
ENDBRANCH   1  17
TORSDOF 4
ENDMDL
MODEL 6
REMARK VINA RESULT:      -7.5      1.225      1.760
REMARK  Name = 
REMARK  5 active torsions:
REMARK  status: ('A' for Active; 'I' for Inactive)
REMARK    1  A    between atoms: C_1  and  N_2
REMARK    2  A    between atoms: C_6  and  N_7
REMARK    3  A    between atoms: C_8  and  C_10
REMARK    4  A    between atoms: C_13  and  C_14
REMARK    5  A    between atoms: C_17  and  C_18
REMARK                            x       y       z     vdW  Elec       q    Type
REMARK                         _______ _______ _______ _____ _____    ______ ____
ROOT
ATOM      1  C   UNL     1       1.309   9.276  19.589  0.00  0.00    +0.000 A 
ATOM      2  C   UNL     1       1.045   8.891  20.907  0.00  0.00    +0.000 A 
ATOM      3  C   UNL     1       0.383   9.772  21.763  0.00  0.00    +0.000 A 
ATOM      4  C   UNL     1      -0.016  11.044  21.321  0.00  0.00    +0.000 A 
ATOM      5  C   UNL     1       0.291  11.434  20.008  0.00  0.00    +0.000 A 
ATOM      6  C   UNL     1       0.955  10.556  19.148  0.00  0.00    +0.000 A 
ENDROOT
BRANCH   4   7
ATOM      7  C   UNL     1      -0.760  11.938  22.199  0.00  0.00    +0.000 A 
ATOM      8  N   UNL     1      -0.220  13.010  22.803  0.00  0.00    +0.000 NA
ATOM      9  O   UNL     1      -1.259  13.526  23.565  0.00  0.00    +0.000 OA
ATOM     10  C   UNL     1      -2.340  12.722  23.355  0.00  0.00    +0.000 A 
ATOM     11  N   UNL     1      -2.086  11.732  22.517  0.00  0.00    +0.000 NA
BRANCH  10  12
ATOM     12  C   UNL     1      -3.575  13.084  24.094  0.00  0.00    +0.000 C 
ATOM     13  F   UNL     1      -4.509  13.676  23.301  0.00  0.00    +0.000 F 
ATOM     14  F   UNL     1      -4.178  12.000  24.651  0.00  0.00    +0.000 F 
ATOM     15  F   UNL     1      -3.328  13.956  25.109  0.00  0.00    +0.000 F 
ENDBRANCH  10  12
ENDBRANCH   4   7
BRANCH   1  17
ATOM     16  N   UNL     1       2.300   7.104  19.106  0.00  0.00    +0.000 N 
ATOM     17  C   UNL     1       1.973   8.362  18.631  0.00  0.00    +0.000 C 
ATOM     18  O   UNL     1       2.155   8.730  17.476  0.00  0.00    +0.000 OA
ATOM     19  H   UNL     1       1.884   6.791  19.971  0.00  0.00    +0.000 HD
BRANCH  16  25
ATOM     20  C   UNL     1       6.178   4.815  17.112  0.00  0.00    +0.000 C 
ATOM     21  N   UNL     1       4.724   4.950  17.160  0.00  0.00    +0.000 NA
ATOM     22  C   UNL     1       4.081   3.640  17.334  0.00  0.00    +0.000 C 
ATOM     23  C   UNL     1       2.552   3.752  17.373  0.00  0.00    +0.000 C 
ATOM     24  C   UNL     1       2.097   4.751  18.429  0.00  0.00    +0.000 C 
ATOM     25  C   UNL     1       2.777   6.098  18.169  0.00  0.00    +0.000 C 
ATOM     26  C   UNL     1       4.308   5.914  18.196  0.00  0.00    +0.000 C 
ENDBRANCH  16  25
ENDBRANCH   1  17
TORSDOF 4
ENDMDL
MODEL 7
REMARK VINA RESULT:      -7.5      1.081      1.537
REMARK  Name = 
REMARK  5 active torsions:
REMARK  status: ('A' for Active; 'I' for Inactive)
REMARK    1  A    between atoms: C_1  and  N_2
REMARK    2  A    between atoms: C_6  and  N_7
REMARK    3  A    between atoms: C_8  and  C_10
REMARK    4  A    between atoms: C_13  and  C_14
REMARK    5  A    between atoms: C_17  and  C_18
REMARK                            x       y       z     vdW  Elec       q    Type
REMARK                         _______ _______ _______ _____ _____    ______ ____
ROOT
ATOM      1  C   UNL     1       1.425   8.655  19.944  0.00  0.00    +0.000 A 
ATOM      2  C   UNL     1       1.039   9.829  19.291  0.00  0.00    +0.000 A 
ATOM      3  C   UNL     1       0.322  10.803  19.988  0.00  0.00    +0.000 A 
ATOM      4  C   UNL     1      -0.025  10.616  21.336  0.00  0.00    +0.000 A 
ATOM      5  C   UNL     1       0.331   9.414  21.969  0.00  0.00    +0.000 A 
ATOM      6  C   UNL     1       1.049   8.437  21.274  0.00  0.00    +0.000 A 
ENDROOT
BRANCH   4   7
ATOM      7  C   UNL     1      -0.721  11.659  22.078  0.00  0.00    +0.000 A 
ATOM      8  N   UNL     1      -0.181  12.855  22.368  0.00  0.00    +0.000 NA
ATOM      9  O   UNL     1      -1.161  13.494  23.115  0.00  0.00    +0.000 OA
ATOM     10  C   UNL     1      -2.211  12.629  23.211  0.00  0.00    +0.000 A 
ATOM     11  N   UNL     1      -1.991  11.487  22.585  0.00  0.00    +0.000 NA
BRANCH  10  12
ATOM     12  C   UNL     1      -3.379  13.107  23.993  0.00  0.00    +0.000 C 
ATOM     13  F   UNL     1      -4.337  13.677  23.212  0.00  0.00    +0.000 F 
ATOM     14  F   UNL     1      -3.990  12.100  24.673  0.00  0.00    +0.000 F 
ATOM     15  F   UNL     1      -3.030  14.045  24.914  0.00  0.00    +0.000 F 
ENDBRANCH  10  12
ENDBRANCH   4   7
BRANCH   1  17
ATOM     16  N   UNL     1       2.179   6.343  19.813  0.00  0.00    +0.000 N 
ATOM     17  C   UNL     1       2.220   7.611  19.259  0.00  0.00    +0.000 C 
ATOM     18  O   UNL     1       2.824   7.892  18.230  0.00  0.00    +0.000 OA
ATOM     19  H   UNL     1       1.459   6.135  20.491  0.00  0.00    +0.000 HD
BRANCH  16  25
ATOM     20  C   UNL     1       4.516   2.015  20.057  0.00  0.00    +0.000 C 
ATOM     21  N   UNL     1       3.959   3.063  19.205  0.00  0.00    +0.000 NA
ATOM     22  C   UNL     1       3.073   2.490  18.181  0.00  0.00    +0.000 C 
ATOM     23  C   UNL     1       2.486   3.568  17.262  0.00  0.00    +0.000 C 
ATOM     24  C   UNL     1       1.792   4.660  18.064  0.00  0.00    +0.000 C 
ATOM     25  C   UNL     1       2.778   5.235  19.085  0.00  0.00    +0.000 C 
ATOM     26  C   UNL     1       3.284   4.103  20.002  0.00  0.00    +0.000 C 
ENDBRANCH  16  25
ENDBRANCH   1  17
TORSDOF 4
ENDMDL
MODEL 8
REMARK VINA RESULT:      -7.5      1.180      1.426
REMARK  Name = 
REMARK  5 active torsions:
REMARK  status: ('A' for Active; 'I' for Inactive)
REMARK    1  A    between atoms: C_1  and  N_2
REMARK    2  A    between atoms: C_6  and  N_7
REMARK    3  A    between atoms: C_8  and  C_10
REMARK    4  A    between atoms: C_13  and  C_14
REMARK    5  A    between atoms: C_17  and  C_18
REMARK                            x       y       z     vdW  Elec       q    Type
REMARK                         _______ _______ _______ _____ _____    ______ ____
ROOT
ATOM      1  C   UNL     1       1.200   9.344  19.475  0.00  0.00    +0.000 A 
ATOM      2  C   UNL     1       0.800  10.612  19.043  0.00  0.00    +0.000 A 
ATOM      3  C   UNL     1       0.110  11.453  19.916  0.00  0.00    +0.000 A 
ATOM      4  C   UNL     1      -0.195  11.041  21.224  0.00  0.00    +0.000 A 
ATOM      5  C   UNL     1       0.175   9.750  21.633  0.00  0.00    +0.000 A 
ATOM      6  C   UNL     1       0.865   8.904  20.761  0.00  0.00    +0.000 A 
ENDROOT
BRANCH   4   7
ATOM      7  C   UNL     1      -0.863  11.943  22.153  0.00  0.00    +0.000 A 
ATOM      8  N   UNL     1      -0.244  12.956  22.783  0.00  0.00    +0.000 NA
ATOM      9  O   UNL     1      -1.232  13.503  23.591  0.00  0.00    +0.000 OA
ATOM     10  C   UNL     1      -2.364  12.774  23.379  0.00  0.00    +0.000 A 
ATOM     11  N   UNL     1      -2.190  11.804  22.498  0.00  0.00    +0.000 NA
BRANCH  10  12
ATOM     12  C   UNL     1      -3.557  13.179  24.164  0.00  0.00    +0.000 C 
ATOM     13  F   UNL     1      -4.532  13.733  23.392  0.00  0.00    +0.000 F 
ATOM     14  F   UNL     1      -4.131  12.128  24.808  0.00  0.00    +0.000 F 
ATOM     15  F   UNL     1      -3.254  14.102  25.116  0.00  0.00    +0.000 F 
ENDBRANCH  10  12
ENDBRANCH   4   7
BRANCH   1  17
ATOM     16  N   UNL     1       2.300   7.198  19.133  0.00  0.00    +0.000 N 
ATOM     17  C   UNL     1       1.968   8.431  18.599  0.00  0.00    +0.000 C 
ATOM     18  O   UNL     1       2.227   8.775  17.451  0.00  0.00    +0.000 OA
ATOM     19  H   UNL     1       1.828   6.893  19.973  0.00  0.00    +0.000 HD
BRANCH  16  25
ATOM     20  C   UNL     1       6.320   4.652  17.866  0.00  0.00    +0.000 C 
ATOM     21  N   UNL     1       4.903   4.910  17.622  0.00  0.00    +0.000 NA
ATOM     22  C   UNL     1       4.139   3.655  17.596  0.00  0.00    +0.000 C 
ATOM     23  C   UNL     1       2.649   3.895  17.326  0.00  0.00    +0.000 C 
ATOM     24  C   UNL     1       2.062   4.894  18.314  0.00  0.00    +0.000 C 
ATOM     25  C   UNL     1       2.882   6.186  18.266  0.00  0.00    +0.000 C 
ATOM     26  C   UNL     1       4.356   5.871  18.596  0.00  0.00    +0.000 C 
ENDBRANCH  16  25
ENDBRANCH   1  17
TORSDOF 4
ENDMDL
MODEL 9
REMARK VINA RESULT:      -7.4      6.340     10.496
REMARK  Name = 
REMARK  5 active torsions:
REMARK  status: ('A' for Active; 'I' for Inactive)
REMARK    1  A    between atoms: C_1  and  N_2
REMARK    2  A    between atoms: C_6  and  N_7
REMARK    3  A    between atoms: C_8  and  C_10
REMARK    4  A    between atoms: C_13  and  C_14
REMARK    5  A    between atoms: C_17  and  C_18
REMARK                            x       y       z     vdW  Elec       q    Type
REMARK                         _______ _______ _______ _____ _____    ______ ____
ROOT
ATOM      1  C   UNL     1       1.430   8.497  19.826  0.00  0.00    +0.000 A 
ATOM      2  C   UNL     1       1.868   8.816  18.538  0.00  0.00    +0.000 A 
ATOM      3  C   UNL     1       2.636   7.896  17.822  0.00  0.00    +0.000 A 
ATOM      4  C   UNL     1       2.980   6.655  18.382  0.00  0.00    +0.000 A 
ATOM      5  C   UNL     1       2.570   6.363  19.692  0.00  0.00    +0.000 A 
ATOM      6  C   UNL     1       1.802   7.282  20.413  0.00  0.00    +0.000 A 
ENDROOT
BRANCH   4   7
ATOM      7  C   UNL     1       3.730   5.672  17.610  0.00  0.00    +0.000 A 
ATOM      8  N   UNL     1       3.481   4.352  17.642  0.00  0.00    +0.000 NA
ATOM      9  O   UNL     1       4.451   3.806  16.812  0.00  0.00    +0.000 OA
ATOM     10  C   UNL     1       5.204   4.845  16.349  0.00  0.00    +0.000 A 
ATOM     11  N   UNL     1       4.797   6.015  16.808  0.00  0.00    +0.000 NA
BRANCH  10  12
ATOM     12  C   UNL     1       6.325   4.485  15.445  0.00  0.00    +0.000 C 
ATOM     13  F   UNL     1       6.521   5.402  14.459  0.00  0.00    +0.000 F 
ATOM     14  F   UNL     1       7.507   4.379  16.109  0.00  0.00    +0.000 F 
ATOM     15  F   UNL     1       6.119   3.293  14.823  0.00  0.00    +0.000 F 
ENDBRANCH  10  12
ENDBRANCH   4   7
BRANCH   1  17
ATOM     16  N   UNL     1       0.626  10.757  20.245  0.00  0.00    +0.000 N 
ATOM     17  C   UNL     1       0.582   9.423  20.610  0.00  0.00    +0.000 C 
ATOM     18  O   UNL     1      -0.143   8.976  21.491  0.00  0.00    +0.000 OA
ATOM     19  H   UNL     1       1.034  11.001  19.353  0.00  0.00    +0.000 HD
BRANCH  16  25
ATOM     20  C   UNL     1      -0.068  15.068  22.523  0.00  0.00    +0.000 C 
ATOM     21  N   UNL     1      -0.673  13.848  21.994  0.00  0.00    +0.000 NA
ATOM     22  C   UNL     1      -1.811  14.164  21.119  0.00  0.00    +0.000 C 
ATOM     23  C   UNL     1      -2.475  12.899  20.562  0.00  0.00    +0.000 C 
ATOM     24  C   UNL     1      -1.459  12.001  19.867  0.00  0.00    +0.000 C 
ATOM     25  C   UNL     1      -0.322  11.685  20.843  0.00  0.00    +0.000 C 
ATOM     26  C   UNL     1       0.327  13.001  21.318  0.00  0.00    +0.000 C 
ENDBRANCH  16  25
ENDBRANCH   1  17
TORSDOF 4
ENDMDL
