MODEL 1
REMARK VINA RESULT:      -7.9      0.000      0.000
REMARK  Name = 
REMARK  9 active torsions:
REMARK  status: ('A' for Active; 'I' for Inactive)
REMARK    1  A    between atoms: C_1  and  N_2
REMARK    2  A    between atoms: N_12  and  C_13
REMARK    3  A    between atoms: C_13  and  C_14
REMARK    4  A    between atoms: C_14  and  C_15
REMARK    5  A    between atoms: C_15  and  N_16
REMARK    6  A    between atoms: N_21  and  C_22
REMARK    7  A    between atoms: C_22  and  C_23
REMARK    8  A    between atoms: C_23  and  O_24
REMARK    9  A    between atoms: O_24  and  C_25
REMARK                            x       y       z     vdW  Elec       q    Type
REMARK                         _______ _______ _______ _____ _____    ______ ____
ROOT
ATOM      1  C   UNL     1       1.292   4.143  20.597  0.00  0.00    +0.000 C 
ATOM      2  N   UNL     1       2.635   4.190  20.046  0.00  0.00    +0.000 N 
ATOM      3  C   UNL     1       3.542   3.169  20.316  0.00  0.00    +0.000 A 
ATOM      4  O   UNL     1       3.288   2.184  21.014  0.00  0.00    +0.000 OA
ATOM      5  N   UNL     1       4.799   3.284  19.752  0.00  0.00    +0.000 N 
ATOM      6  C   UNL     1       5.260   4.296  18.942  0.00  0.00    +0.000 A 
ATOM      7  O   UNL     1       6.394   4.292  18.475  0.00  0.00    +0.000 OA
ATOM      8  C   UNL     1       4.286   5.310  18.715  0.00  0.00    +0.000 A 
ATOM      9  C   UNL     1       3.033   5.241  19.246  0.00  0.00    +0.000 A 
ATOM     10  N   UNL     1       2.269   6.299  18.871  0.00  0.00    +0.000 NA
ATOM     11  C   UNL     1       3.041   7.047  18.107  0.00  0.00    +0.000 A 
ATOM     12  N   UNL     1       2.652   8.193  17.497  0.00  0.00    +0.000 N 
ATOM     13  N   UNL     1       4.317   6.483  17.988  0.00  0.00    +0.000 N 
ATOM     14  H   UNL     1       5.436   2.530  19.949  0.00  0.00    +0.000 HD
ATOM     15  H   UNL     1       3.289   8.864  17.108  0.00  0.00    +0.000 HD
ENDROOT
BRANCH  12  16
ATOM     16  C   UNL     1       1.337   8.768  17.719  0.00  0.00    +0.000 C 
BRANCH  16  17
ATOM     17  C   UNL     1       1.491  10.019  18.604  0.00  0.00    +0.000 C 
BRANCH  17  18
ATOM     18  C   UNL     1       0.145  10.464  19.166  0.00  0.00    +0.000 C 
BRANCH  18  19
ATOM     19  N   UNL     1      -0.012  10.175  20.577  0.00  0.00    +0.000 N 
ATOM     20  C   UNL     1      -0.591  10.989  21.512  0.00  0.00    +0.000 A 
ATOM     21  C   UNL     1      -0.410  10.339  22.711  0.00  0.00    +0.000 A 
ATOM     22  N   UNL     1       0.249   9.153  22.525  0.00  0.00    +0.000 NA
ATOM     23  C   UNL     1       0.484   9.085  21.234  0.00  0.00    +0.000 A 
ENDBRANCH  18  19
ENDBRANCH  17  18
ENDBRANCH  16  17
ENDBRANCH  12  16
BRANCH  13  24
ATOM     24  C   UNL     1       5.509   6.926  17.255  0.00  0.00    +0.000 C 
BRANCH  24  25
ATOM     25  C   UNL     1       5.620   6.398  15.835  0.00  0.00    +0.000 C 
BRANCH  25  26
ATOM     26  O   UNL     1       6.849   5.773  15.471  0.00  0.00    +0.000 OA
BRANCH  26  27
ATOM     27  C   UNL     1       6.698   5.004  14.328  0.00  0.00    +0.000 A 
ATOM     28  C   UNL     1       7.664   5.174  13.337  0.00  0.00    +0.000 A 
ATOM     29  C   UNL     1       7.578   4.453  12.140  0.00  0.00    +0.000 A 
ATOM     30  C   UNL     1       6.531   3.556  11.927  0.00  0.00    +0.000 A 
ATOM     31  C   UNL     1       5.573   3.369  12.915  0.00  0.00    +0.000 A 
ATOM     32  C   UNL     1       5.661   4.082  14.113  0.00  0.00    +0.000 A 
ENDBRANCH  26  27
ENDBRANCH  25  26
ENDBRANCH  24  25
ENDBRANCH  13  24
TORSDOF 8
ENDMDL
MODEL 2
REMARK VINA RESULT:      -7.6      1.125      1.784
REMARK  Name = 
REMARK  9 active torsions:
REMARK  status: ('A' for Active; 'I' for Inactive)
REMARK    1  A    between atoms: C_1  and  N_2
REMARK    2  A    between atoms: N_12  and  C_13
REMARK    3  A    between atoms: C_13  and  C_14
REMARK    4  A    between atoms: C_14  and  C_15
REMARK    5  A    between atoms: C_15  and  N_16
REMARK    6  A    between atoms: N_21  and  C_22
REMARK    7  A    between atoms: C_22  and  C_23
REMARK    8  A    between atoms: C_23  and  O_24
REMARK    9  A    between atoms: O_24  and  C_25
REMARK                            x       y       z     vdW  Elec       q    Type
REMARK                         _______ _______ _______ _____ _____    ______ ____
ROOT
ATOM      1  C   UNL     1       1.589   4.113  20.936  0.00  0.00    +0.000 C 
ATOM      2  N   UNL     1       2.872   4.131  20.255  0.00  0.00    +0.000 N 
ATOM      3  C   UNL     1       3.786   3.098  20.449  0.00  0.00    +0.000 A 
ATOM      4  O   UNL     1       3.588   2.127  21.183  0.00  0.00    +0.000 OA
ATOM      5  N   UNL     1       4.982   3.186  19.762  0.00  0.00    +0.000 N 
ATOM      6  C   UNL     1       5.377   4.179  18.896  0.00  0.00    +0.000 A 
ATOM      7  O   UNL     1       6.458   4.150  18.320  0.00  0.00    +0.000 OA
ATOM      8  C   UNL     1       4.400   5.206  18.751  0.00  0.00    +0.000 A 
ATOM      9  C   UNL     1       3.204   5.164  19.404  0.00  0.00    +0.000 A 
ATOM     10  N   UNL     1       2.423   6.229  19.090  0.00  0.00    +0.000 NA
ATOM     11  C   UNL     1       3.127   6.955  18.243  0.00  0.00    +0.000 A 
ATOM     12  N   UNL     1       2.697   8.098  17.657  0.00  0.00    +0.000 N 
ATOM     13  N   UNL     1       4.377   6.368  18.007  0.00  0.00    +0.000 N 
ATOM     14  H   UNL     1       5.625   2.424  19.907  0.00  0.00    +0.000 HD
ATOM     15  H   UNL     1       3.302   8.753  17.197  0.00  0.00    +0.000 HD
ENDROOT
BRANCH  12  16
ATOM     16  C   UNL     1       1.419   8.698  17.999  0.00  0.00    +0.000 C 
BRANCH  16  17
ATOM     17  C   UNL     1       1.644  10.188  18.315  0.00  0.00    +0.000 C 
BRANCH  17  18
ATOM     18  C   UNL     1       1.017  10.568  19.652  0.00  0.00    +0.000 C 
BRANCH  18  19
ATOM     19  N   UNL     1      -0.272  11.216  19.519  0.00  0.00    +0.000 N 
ATOM     20  C   UNL     1      -1.271  10.864  18.653  0.00  0.00    +0.000 A 
ATOM     21  C   UNL     1      -2.241  11.827  18.817  0.00  0.00    +0.000 A 
ATOM     22  N   UNL     1      -1.860  12.740  19.765  0.00  0.00    +0.000 NA
ATOM     23  C   UNL     1      -0.670  12.353  20.162  0.00  0.00    +0.000 A 
ENDBRANCH  18  19
ENDBRANCH  17  18
ENDBRANCH  16  17
ENDBRANCH  12  16
BRANCH  13  24
ATOM     24  C   UNL     1       5.497   6.782  17.154  0.00  0.00    +0.000 C 
BRANCH  24  25
ATOM     25  C   UNL     1       5.527   6.136  15.779  0.00  0.00    +0.000 C 
BRANCH  25  26
ATOM     26  O   UNL     1       6.803   5.756  15.269  0.00  0.00    +0.000 OA
BRANCH  26  27
ATOM     27  C   UNL     1       6.673   4.981  14.128  0.00  0.00    +0.000 A 
ATOM     28  C   UNL     1       5.530   4.188  14.047  0.00  0.00    +0.000 A 
ATOM     29  C   UNL     1       5.327   3.357  12.939  0.00  0.00    +0.000 A 
ATOM     30  C   UNL     1       6.260   3.318  11.903  0.00  0.00    +0.000 A 
ATOM     31  C   UNL     1       7.395   4.117  11.968  0.00  0.00    +0.000 A 
ATOM     32  C   UNL     1       7.596   4.951  13.069  0.00  0.00    +0.000 A 
ENDBRANCH  26  27
ENDBRANCH  25  26
ENDBRANCH  24  25
ENDBRANCH  13  24
TORSDOF 8
ENDMDL
MODEL 3
REMARK VINA RESULT:      -7.5      1.399      1.780
REMARK  Name = 
REMARK  9 active torsions:
REMARK  status: ('A' for Active; 'I' for Inactive)
REMARK    1  A    between atoms: C_1  and  N_2
REMARK    2  A    between atoms: N_12  and  C_13
REMARK    3  A    between atoms: C_13  and  C_14
REMARK    4  A    between atoms: C_14  and  C_15
REMARK    5  A    between atoms: C_15  and  N_16
REMARK    6  A    between atoms: N_21  and  C_22
REMARK    7  A    between atoms: C_22  and  C_23
REMARK    8  A    between atoms: C_23  and  O_24
REMARK    9  A    between atoms: O_24  and  C_25
REMARK                            x       y       z     vdW  Elec       q    Type
REMARK                         _______ _______ _______ _____ _____    ______ ____
ROOT
ATOM      1  C   UNL     1       1.543   3.873  20.652  0.00  0.00    +0.000 C 
ATOM      2  N   UNL     1       2.849   3.938  20.022  0.00  0.00    +0.000 N 
ATOM      3  C   UNL     1       3.738   2.873  20.134  0.00  0.00    +0.000 A 
ATOM      4  O   UNL     1       3.498   1.832  20.752  0.00  0.00    +0.000 OA
ATOM      5  N   UNL     1       4.960   3.009  19.502  0.00  0.00    +0.000 N 
ATOM      6  C   UNL     1       5.402   4.082  18.762  0.00  0.00    +0.000 A 
ATOM      7  O   UNL     1       6.503   4.094  18.223  0.00  0.00    +0.000 OA
ATOM      8  C   UNL     1       4.448   5.137  18.695  0.00  0.00    +0.000 A 
ATOM      9  C   UNL     1       3.229   5.049  19.299  0.00  0.00    +0.000 A 
ATOM     10  N   UNL     1       2.476   6.158  19.075  0.00  0.00    +0.000 NA
ATOM     11  C   UNL     1       3.222   6.956  18.336  0.00  0.00    +0.000 A 
ATOM     12  N   UNL     1       2.832   8.164  17.863  0.00  0.00    +0.000 N 
ATOM     13  N   UNL     1       4.470   6.373  18.081  0.00  0.00    +0.000 N 
ATOM     14  H   UNL     1       5.585   2.224  19.585  0.00  0.00    +0.000 HD
ATOM     15  H   UNL     1       3.464   8.852  17.497  0.00  0.00    +0.000 HD
ENDROOT
BRANCH  12  16
ATOM     16  C   UNL     1       1.552   8.749  18.224  0.00  0.00    +0.000 C 
BRANCH  16  17
ATOM     17  C   UNL     1       1.668  10.281  18.128  0.00  0.00    +0.000 C 
BRANCH  17  18
ATOM     18  C   UNL     1       0.715  10.966  19.101  0.00  0.00    +0.000 C 
BRANCH  18  19
ATOM     19  N   UNL     1      -0.631  11.110  18.583  0.00  0.00    +0.000 N 
ATOM     20  C   UNL     1      -1.241  12.280  18.224  0.00  0.00    +0.000 A 
ATOM     21  C   UNL     1      -2.530  11.926  17.902  0.00  0.00    +0.000 A 
ATOM     22  N   UNL     1      -2.712  10.576  18.046  0.00  0.00    +0.000 NA
ATOM     23  C   UNL     1      -1.556  10.112  18.465  0.00  0.00    +0.000 A 
ENDBRANCH  18  19
ENDBRANCH  17  18
ENDBRANCH  16  17
ENDBRANCH  12  16
BRANCH  13  24
ATOM     24  C   UNL     1       5.627   6.854  17.316  0.00  0.00    +0.000 C 
BRANCH  24  25
ATOM     25  C   UNL     1       5.675   6.390  15.870  0.00  0.00    +0.000 C 
BRANCH  25  26
ATOM     26  O   UNL     1       6.871   5.748  15.435  0.00  0.00    +0.000 OA
BRANCH  26  27
ATOM     27  C   UNL     1       6.638   4.966  14.315  0.00  0.00    +0.000 A 
ATOM     28  C   UNL     1       7.582   5.056  13.293  0.00  0.00    +0.000 A 
ATOM     29  C   UNL     1       7.416   4.317  12.115  0.00  0.00    +0.000 A 
ATOM     30  C   UNL     1       6.311   3.482  11.953  0.00  0.00    +0.000 A 
ATOM     31  C   UNL     1       5.373   3.374  12.973  0.00  0.00    +0.000 A 
ATOM     32  C   UNL     1       5.541   4.105  14.151  0.00  0.00    +0.000 A 
ENDBRANCH  26  27
ENDBRANCH  25  26
ENDBRANCH  24  25
ENDBRANCH  13  24
TORSDOF 8
ENDMDL
MODEL 4
REMARK VINA RESULT:      -7.5      0.919      1.072
REMARK  Name = 
REMARK  9 active torsions:
REMARK  status: ('A' for Active; 'I' for Inactive)
REMARK    1  A    between atoms: C_1  and  N_2
REMARK    2  A    between atoms: N_12  and  C_13
REMARK    3  A    between atoms: C_13  and  C_14
REMARK    4  A    between atoms: C_14  and  C_15
REMARK    5  A    between atoms: C_15  and  N_16
REMARK    6  A    between atoms: N_21  and  C_22
REMARK    7  A    between atoms: C_22  and  C_23
REMARK    8  A    between atoms: C_23  and  O_24
REMARK    9  A    between atoms: O_24  and  C_25
REMARK                            x       y       z     vdW  Elec       q    Type
REMARK                         _______ _______ _______ _____ _____    ______ ____
ROOT
ATOM      1  C   UNL     1       1.230   3.509  19.327  0.00  0.00    +0.000 C 
ATOM      2  N   UNL     1       2.649   3.669  19.065  0.00  0.00    +0.000 N 
ATOM      3  C   UNL     1       3.526   2.607  19.265  0.00  0.00    +0.000 A 
ATOM      4  O   UNL     1       3.183   1.492  19.665  0.00  0.00    +0.000 OA
ATOM      5  N   UNL     1       4.861   2.838  18.989  0.00  0.00    +0.000 N 
ATOM      6  C   UNL     1       5.428   4.003  18.527  0.00  0.00    +0.000 A 
ATOM      7  O   UNL     1       6.628   4.097  18.293  0.00  0.00    +0.000 OA
ATOM      8  C   UNL     1       4.477   5.049  18.352  0.00  0.00    +0.000 A 
ATOM      9  C   UNL     1       3.150   4.870  18.609  0.00  0.00    +0.000 A 
ATOM     10  N   UNL     1       2.431   5.991  18.342  0.00  0.00    +0.000 NA
ATOM     11  C   UNL     1       3.304   6.888  17.924  0.00  0.00    +0.000 A 
ATOM     12  N   UNL     1       2.995   8.144  17.523  0.00  0.00    +0.000 N 
ATOM     13  N   UNL     1       4.600   6.355  17.925  0.00  0.00    +0.000 N 
ATOM     14  H   UNL     1       5.477   2.054  19.129  0.00  0.00    +0.000 HD
ATOM     15  H   UNL     1       3.668   8.881  17.420  0.00  0.00    +0.000 HD
ENDROOT
BRANCH  12  16
ATOM     16  C   UNL     1       1.641   8.663  17.616  0.00  0.00    +0.000 C 
BRANCH  16  17
ATOM     17  C   UNL     1       1.606   9.750  18.705  0.00  0.00    +0.000 C 
BRANCH  17  18
ATOM     18  C   UNL     1       1.007   9.213  20.000  0.00  0.00    +0.000 C 
BRANCH  18  19
ATOM     19  N   UNL     1       0.572  10.255  20.908  0.00  0.00    +0.000 N 
ATOM     20  C   UNL     1      -0.417  10.150  21.848  0.00  0.00    +0.000 A 
ATOM     21  C   UNL     1      -0.538  11.413  22.379  0.00  0.00    +0.000 A 
ATOM     22  N   UNL     1       0.356  12.272  21.796  0.00  0.00    +0.000 NA
ATOM     23  C   UNL     1       1.003  11.551  20.910  0.00  0.00    +0.000 A 
ENDBRANCH  18  19
ENDBRANCH  17  18
ENDBRANCH  16  17
ENDBRANCH  12  16
BRANCH  13  24
ATOM     24  C   UNL     1       5.891   6.945  17.548  0.00  0.00    +0.000 C 
BRANCH  24  25
ATOM     25  C   UNL     1       6.249   6.812  16.077  0.00  0.00    +0.000 C 
BRANCH  25  26
ATOM     26  O   UNL     1       7.303   5.911  15.746  0.00  0.00    +0.000 OA
BRANCH  26  27
ATOM     27  C   UNL     1       6.991   5.175  14.614  0.00  0.00    +0.000 A 
ATOM     28  C   UNL     1       7.783   5.407  13.490  0.00  0.00    +0.000 A 
ATOM     29  C   UNL     1       7.526   4.723  12.295  0.00  0.00    +0.000 A 
ATOM     30  C   UNL     1       6.483   3.800  12.218  0.00  0.00    +0.000 A 
ATOM     31  C   UNL     1       5.699   3.551  13.337  0.00  0.00    +0.000 A 
ATOM     32  C   UNL     1       5.958   4.227  14.532  0.00  0.00    +0.000 A 
ENDBRANCH  26  27
ENDBRANCH  25  26
ENDBRANCH  24  25
ENDBRANCH  13  24
TORSDOF 8
ENDMDL
MODEL 5
REMARK VINA RESULT:      -7.5      1.538      2.250
REMARK  Name = 
REMARK  9 active torsions:
REMARK  status: ('A' for Active; 'I' for Inactive)
REMARK    1  A    between atoms: C_1  and  N_2
REMARK    2  A    between atoms: N_12  and  C_13
REMARK    3  A    between atoms: C_13  and  C_14
REMARK    4  A    between atoms: C_14  and  C_15
REMARK    5  A    between atoms: C_15  and  N_16
REMARK    6  A    between atoms: N_21  and  C_22
REMARK    7  A    between atoms: C_22  and  C_23
REMARK    8  A    between atoms: C_23  and  O_24
REMARK    9  A    between atoms: O_24  and  C_25
REMARK                            x       y       z     vdW  Elec       q    Type
REMARK                         _______ _______ _______ _____ _____    ______ ____
ROOT
ATOM      1  C   UNL     1       0.935   4.203  20.456  0.00  0.00    +0.000 C 
ATOM      2  N   UNL     1       2.304   4.138  19.978  0.00  0.00    +0.000 N 
ATOM      3  C   UNL     1       3.101   3.035  20.273  0.00  0.00    +0.000 A 
ATOM      4  O   UNL     1       2.725   2.067  20.937  0.00  0.00    +0.000 OA
ATOM      5  N   UNL     1       4.392   3.047  19.778  0.00  0.00    +0.000 N 
ATOM      6  C   UNL     1       4.985   4.025  19.014  0.00  0.00    +0.000 A 
ATOM      7  O   UNL     1       6.137   3.927  18.607  0.00  0.00    +0.000 OA
ATOM      8  C   UNL     1       4.118   5.126  18.757  0.00  0.00    +0.000 A 
ATOM      9  C   UNL     1       2.836   5.161  19.221  0.00  0.00    +0.000 A 
ATOM     10  N   UNL     1       2.190   6.289  18.828  0.00  0.00    +0.000 NA
ATOM     11  C   UNL     1       3.065   6.977  18.120  0.00  0.00    +0.000 A 
ATOM     12  N   UNL     1       2.813   8.162  17.515  0.00  0.00    +0.000 N 
ATOM     13  N   UNL     1       4.292   6.302  18.057  0.00  0.00    +0.000 N 
ATOM     14  H   UNL     1       4.949   2.235  19.993  0.00  0.00    +0.000 HD
ATOM     15  H   UNL     1       3.527   8.779  17.173  0.00  0.00    +0.000 HD
ENDROOT
BRANCH  12  16
ATOM     16  C   UNL     1       1.544   8.850  17.680  0.00  0.00    +0.000 C 
BRANCH  16  17
ATOM     17  C   UNL     1       1.635   9.758  18.919  0.00  0.00    +0.000 C 
BRANCH  17  18
ATOM     18  C   UNL     1       0.799  11.020  18.739  0.00  0.00    +0.000 C 
BRANCH  18  19
ATOM     19  N   UNL     1       1.551  12.242  18.946  0.00  0.00    +0.000 N 
ATOM     20  C   UNL     1       2.520  12.748  18.124  0.00  0.00    +0.000 A 
ATOM     21  C   UNL     1       3.011  13.848  18.787  0.00  0.00    +0.000 A 
ATOM     22  N   UNL     1       2.359  14.027  19.979  0.00  0.00    +0.000 NA
ATOM     23  C   UNL     1       1.493  13.042  20.052  0.00  0.00    +0.000 A 
ENDBRANCH  18  19
ENDBRANCH  17  18
ENDBRANCH  16  17
ENDBRANCH  12  16
BRANCH  13  24
ATOM     24  C   UNL     1       5.556   6.649  17.396  0.00  0.00    +0.000 C 
BRANCH  24  25
ATOM     25  C   UNL     1       5.646   6.244  15.935  0.00  0.00    +0.000 C 
BRANCH  25  26
ATOM     26  O   UNL     1       6.912   5.787  15.466  0.00  0.00    +0.000 OA
BRANCH  26  27
ATOM     27  C   UNL     1       6.777   5.059  14.294  0.00  0.00    +0.000 A 
ATOM     28  C   UNL     1       5.655   4.236  14.205  0.00  0.00    +0.000 A 
ATOM     29  C   UNL     1       5.449   3.449  13.066  0.00  0.00    +0.000 A 
ATOM     30  C   UNL     1       6.357   3.483  12.008  0.00  0.00    +0.000 A 
ATOM     31  C   UNL     1       7.470   4.312  12.081  0.00  0.00    +0.000 A 
ATOM     32  C   UNL     1       7.673   5.104  13.214  0.00  0.00    +0.000 A 
ENDBRANCH  26  27
ENDBRANCH  25  26
ENDBRANCH  24  25
ENDBRANCH  13  24
TORSDOF 8
ENDMDL
MODEL 6
REMARK VINA RESULT:      -7.5      4.224      7.781
REMARK  Name = 
REMARK  9 active torsions:
REMARK  status: ('A' for Active; 'I' for Inactive)
REMARK    1  A    between atoms: C_1  and  N_2
REMARK    2  A    between atoms: N_12  and  C_13
REMARK    3  A    between atoms: C_13  and  C_14
REMARK    4  A    between atoms: C_14  and  C_15
REMARK    5  A    between atoms: C_15  and  N_16
REMARK    6  A    between atoms: N_21  and  C_22
REMARK    7  A    between atoms: C_22  and  C_23
REMARK    8  A    between atoms: C_23  and  O_24
REMARK    9  A    between atoms: O_24  and  C_25
REMARK                            x       y       z     vdW  Elec       q    Type
REMARK                         _______ _______ _______ _____ _____    ______ ____
ROOT
ATOM      1  C   UNL     1       7.912   5.570  13.287  0.00  0.00    +0.000 C 
ATOM      2  N   UNL     1       7.048   4.945  14.272  0.00  0.00    +0.000 N 
ATOM      3  C   UNL     1       6.342   3.788  13.957  0.00  0.00    +0.000 A 
ATOM      4  O   UNL     1       6.392   3.223  12.862  0.00  0.00    +0.000 OA
ATOM      5  N   UNL     1       5.544   3.252  14.951  0.00  0.00    +0.000 N 
ATOM      6  C   UNL     1       5.370   3.730  16.230  0.00  0.00    +0.000 A 
ATOM      7  O   UNL     1       4.650   3.164  17.045  0.00  0.00    +0.000 OA
ATOM      8  C   UNL     1       6.113   4.919  16.481  0.00  0.00    +0.000 A 
ATOM      9  C   UNL     1       6.915   5.484  15.535  0.00  0.00    +0.000 A 
ATOM     10  N   UNL     1       7.547   6.590  16.008  0.00  0.00    +0.000 NA
ATOM     11  C   UNL     1       7.138   6.733  17.254  0.00  0.00    +0.000 A 
ATOM     12  N   UNL     1       7.554   7.706  18.100  0.00  0.00    +0.000 N 
ATOM     13  N   UNL     1       6.229   5.724  17.596  0.00  0.00    +0.000 N 
ATOM     14  H   UNL     1       5.051   2.409  14.707  0.00  0.00    +0.000 HD
ATOM     15  H   UNL     1       7.086   7.942  18.955  0.00  0.00    +0.000 HD
ENDROOT
BRANCH  12  16
ATOM     16  C   UNL     1       8.442   8.769  17.663  0.00  0.00    +0.000 C 
BRANCH  16  17
ATOM     17  C   UNL     1       8.967   9.512  18.905  0.00  0.00    +0.000 C 
BRANCH  17  18
ATOM     18  C   UNL     1       8.747  11.015  18.781  0.00  0.00    +0.000 C 
BRANCH  18  19
ATOM     19  N   UNL     1       9.905  11.727  18.279  0.00  0.00    +0.000 N 
ATOM     20  C   UNL     1      11.213  11.464  18.584  0.00  0.00    +0.000 A 
ATOM     21  C   UNL     1      11.930  12.460  17.962  0.00  0.00    +0.000 A 
ATOM     22  N   UNL     1      11.095  13.307  17.283  0.00  0.00    +0.000 NA
ATOM     23  C   UNL     1       9.884  12.848  17.499  0.00  0.00    +0.000 A 
ENDBRANCH  18  19
ENDBRANCH  17  18
ENDBRANCH  16  17
ENDBRANCH  12  16
BRANCH  13  24
ATOM     24  C   UNL     1       5.509   5.451  18.846  0.00  0.00    +0.000 C 
BRANCH  24  25
ATOM     25  C   UNL     1       4.117   6.056  18.927  0.00  0.00    +0.000 C 
BRANCH  25  26
ATOM     26  O   UNL     1       3.351   5.763  20.094  0.00  0.00    +0.000 OA
BRANCH  26  27
ATOM     27  C   UNL     1       2.467   4.722  19.861  0.00  0.00    +0.000 A 
ATOM     28  C   UNL     1       2.086   3.976  20.975  0.00  0.00    +0.000 A 
ATOM     29  C   UNL     1       1.212   2.891  20.829  0.00  0.00    +0.000 A 
ATOM     30  C   UNL     1       0.709   2.550  19.574  0.00  0.00    +0.000 A 
ATOM     31  C   UNL     1       1.072   3.298  18.460  0.00  0.00    +0.000 A 
ATOM     32  C   UNL     1       1.938   4.384  18.604  0.00  0.00    +0.000 A 
ENDBRANCH  26  27
ENDBRANCH  25  26
ENDBRANCH  24  25
ENDBRANCH  13  24
TORSDOF 8
ENDMDL
MODEL 7
REMARK VINA RESULT:      -7.5      4.151      7.214
REMARK  Name = 
REMARK  9 active torsions:
REMARK  status: ('A' for Active; 'I' for Inactive)
REMARK    1  A    between atoms: C_1  and  N_2
REMARK    2  A    between atoms: N_12  and  C_13
REMARK    3  A    between atoms: C_13  and  C_14
REMARK    4  A    between atoms: C_14  and  C_15
REMARK    5  A    between atoms: C_15  and  N_16
REMARK    6  A    between atoms: N_21  and  C_22
REMARK    7  A    between atoms: C_22  and  C_23
REMARK    8  A    between atoms: C_23  and  O_24
REMARK    9  A    between atoms: O_24  and  C_25
REMARK                            x       y       z     vdW  Elec       q    Type
REMARK                         _______ _______ _______ _____ _____    ______ ____
ROOT
ATOM      1  C   UNL     1       7.920   5.581  13.323  0.00  0.00    +0.000 C 
ATOM      2  N   UNL     1       7.063   4.926  14.294  0.00  0.00    +0.000 N 
ATOM      3  C   UNL     1       6.375   3.763  13.956  0.00  0.00    +0.000 A 
ATOM      4  O   UNL     1       6.437   3.219  12.851  0.00  0.00    +0.000 OA
ATOM      5  N   UNL     1       5.583   3.198  14.937  0.00  0.00    +0.000 N 
ATOM      6  C   UNL     1       5.398   3.649  16.224  0.00  0.00    +0.000 A 
ATOM      7  O   UNL     1       4.684   3.058  17.026  0.00  0.00    +0.000 OA
ATOM      8  C   UNL     1       6.121   4.845  16.499  0.00  0.00    +0.000 A 
ATOM      9  C   UNL     1       6.918   5.439  15.566  0.00  0.00    +0.000 A 
ATOM     10  N   UNL     1       7.532   6.545  16.061  0.00  0.00    +0.000 NA
ATOM     11  C   UNL     1       7.117   6.660  17.308  0.00  0.00    +0.000 A 
ATOM     12  N   UNL     1       7.516   7.623  18.172  0.00  0.00    +0.000 N 
ATOM     13  N   UNL     1       6.222   5.631  17.629  0.00  0.00    +0.000 N 
ATOM     14  H   UNL     1       5.103   2.351  14.677  0.00  0.00    +0.000 HD
ATOM     15  H   UNL     1       7.041   7.836  19.030  0.00  0.00    +0.000 HD
ENDROOT
BRANCH  12  16
ATOM     16  C   UNL     1       8.389   8.708  17.758  0.00  0.00    +0.000 C 
BRANCH  16  17
ATOM     17  C   UNL     1       8.900   9.434  19.015  0.00  0.00    +0.000 C 
BRANCH  17  18
ATOM     18  C   UNL     1       9.401  10.834  18.677  0.00  0.00    +0.000 C 
BRANCH  18  19
ATOM     19  N   UNL     1       9.340  11.752  19.796  0.00  0.00    +0.000 N 
ATOM     20  C   UNL     1       9.215  11.415  21.116  0.00  0.00    +0.000 A 
ATOM     21  C   UNL     1       9.093  12.614  21.780  0.00  0.00    +0.000 A 
ATOM     22  N   UNL     1       9.152  13.663  20.901  0.00  0.00    +0.000 NA
ATOM     23  C   UNL     1       9.291  13.115  19.715  0.00  0.00    +0.000 A 
ENDBRANCH  18  19
ENDBRANCH  17  18
ENDBRANCH  16  17
ENDBRANCH  12  16
BRANCH  13  24
ATOM     24  C   UNL     1       5.502   5.324  18.871  0.00  0.00    +0.000 C 
BRANCH  24  25
ATOM     25  C   UNL     1       4.243   6.144  19.100  0.00  0.00    +0.000 C 
BRANCH  25  26
ATOM     26  O   UNL     1       3.141   5.894  18.230  0.00  0.00    +0.000 OA
BRANCH  26  27
ATOM     27  C   UNL     1       2.319   4.902  18.741  0.00  0.00    +0.000 A 
ATOM     28  C   UNL     1       2.023   4.985  20.100  0.00  0.00    +0.000 A 
ATOM     29  C   UNL     1       1.217   4.013  20.705  0.00  0.00    +0.000 A 
ATOM     30  C   UNL     1       0.697   2.958  19.956  0.00  0.00    +0.000 A 
ATOM     31  C   UNL     1       0.974   2.876  18.597  0.00  0.00    +0.000 A 
ATOM     32  C   UNL     1       1.772   3.848  17.990  0.00  0.00    +0.000 A 
ENDBRANCH  26  27
ENDBRANCH  25  26
ENDBRANCH  24  25
ENDBRANCH  13  24
TORSDOF 8
ENDMDL
MODEL 8
REMARK VINA RESULT:      -7.4      4.230      7.667
REMARK  Name = 
REMARK  9 active torsions:
REMARK  status: ('A' for Active; 'I' for Inactive)
REMARK    1  A    between atoms: C_1  and  N_2
REMARK    2  A    between atoms: N_12  and  C_13
REMARK    3  A    between atoms: C_13  and  C_14
REMARK    4  A    between atoms: C_14  and  C_15
REMARK    5  A    between atoms: C_15  and  N_16
REMARK    6  A    between atoms: N_21  and  C_22
REMARK    7  A    between atoms: C_22  and  C_23
REMARK    8  A    between atoms: C_23  and  O_24
REMARK    9  A    between atoms: O_24  and  C_25
REMARK                            x       y       z     vdW  Elec       q    Type
REMARK                         _______ _______ _______ _____ _____    ______ ____
ROOT
ATOM      1  C   UNL     1       7.936   5.453  13.288  0.00  0.00    +0.000 C 
ATOM      2  N   UNL     1       7.033   4.869  14.264  0.00  0.00    +0.000 N 
ATOM      3  C   UNL     1       6.271   3.751  13.936  0.00  0.00    +0.000 A 
ATOM      4  O   UNL     1       6.301   3.190  12.838  0.00  0.00    +0.000 OA
ATOM      5  N   UNL     1       5.439   3.251  14.920  0.00  0.00    +0.000 N 
ATOM      6  C   UNL     1       5.278   3.730  16.200  0.00  0.00    +0.000 A 
ATOM      7  O   UNL     1       4.524   3.198  17.006  0.00  0.00    +0.000 OA
ATOM      8  C   UNL     1       6.079   4.878  16.465  0.00  0.00    +0.000 A 
ATOM      9  C   UNL     1       6.917   5.407  15.529  0.00  0.00    +0.000 A 
ATOM     10  N   UNL     1       7.601   6.476  16.013  0.00  0.00    +0.000 NA
ATOM     11  C   UNL     1       7.189   6.633  17.256  0.00  0.00    +0.000 A 
ATOM     12  N   UNL     1       7.647   7.579  18.111  0.00  0.00    +0.000 N 
ATOM     13  N   UNL     1       6.227   5.670  17.585  0.00  0.00    +0.000 N 
ATOM     14  H   UNL     1       4.905   2.435  14.668  0.00  0.00    +0.000 HD
ATOM     15  H   UNL     1       7.185   7.834  18.964  0.00  0.00    +0.000 HD
ENDROOT
BRANCH  12  16
ATOM     16  C   UNL     1       8.592   8.598  17.687  0.00  0.00    +0.000 C 
BRANCH  16  17
ATOM     17  C   UNL     1       8.226   9.924  18.377  0.00  0.00    +0.000 C 
BRANCH  17  18
ATOM     18  C   UNL     1       9.347  10.394  19.297  0.00  0.00    +0.000 C 
BRANCH  18  19
ATOM     19  N   UNL     1      10.190  11.412  18.703  0.00  0.00    +0.000 N 
ATOM     20  C   UNL     1       9.827  12.295  17.723  0.00  0.00    +0.000 A 
ATOM     21  C   UNL     1      10.980  12.979  17.415  0.00  0.00    +0.000 A 
ATOM     22  N   UNL     1      12.024  12.542  18.188  0.00  0.00    +0.000 NA
ATOM     23  C   UNL     1      11.522  11.595  18.946  0.00  0.00    +0.000 A 
ENDBRANCH  18  19
ENDBRANCH  17  18
ENDBRANCH  16  17
ENDBRANCH  12  16
BRANCH  13  24
ATOM     24  C   UNL     1       5.483   5.428  18.827  0.00  0.00    +0.000 C 
BRANCH  24  25
ATOM     25  C   UNL     1       4.131   6.116  18.908  0.00  0.00    +0.000 C 
BRANCH  25  26
ATOM     26  O   UNL     1       3.295   5.775  20.012  0.00  0.00    +0.000 OA
BRANCH  26  27
ATOM     27  C   UNL     1       2.532   4.653  19.731  0.00  0.00    +0.000 A 
ATOM     28  C   UNL     1       1.927   4.617  18.476  0.00  0.00    +0.000 A 
ATOM     29  C   UNL     1       1.120   3.531  18.115  0.00  0.00    +0.000 A 
ATOM     30  C   UNL     1       0.918   2.473  19.001  0.00  0.00    +0.000 A 
ATOM     31  C   UNL     1       1.529   2.494  20.249  0.00  0.00    +0.000 A 
ATOM     32  C   UNL     1       2.340   3.572  20.608  0.00  0.00    +0.000 A 
ENDBRANCH  26  27
ENDBRANCH  25  26
ENDBRANCH  24  25
ENDBRANCH  13  24
TORSDOF 8
ENDMDL
MODEL 9
REMARK VINA RESULT:      -7.4      3.012      6.531
REMARK  Name = 
REMARK  9 active torsions:
REMARK  status: ('A' for Active; 'I' for Inactive)
REMARK    1  A    between atoms: C_1  and  N_2
REMARK    2  A    between atoms: N_12  and  C_13
REMARK    3  A    between atoms: C_13  and  C_14
REMARK    4  A    between atoms: C_14  and  C_15
REMARK    5  A    between atoms: C_15  and  N_16
REMARK    6  A    between atoms: N_21  and  C_22
REMARK    7  A    between atoms: C_22  and  C_23
REMARK    8  A    between atoms: C_23  and  O_24
REMARK    9  A    between atoms: O_24  and  C_25
REMARK                            x       y       z     vdW  Elec       q    Type
REMARK                         _______ _______ _______ _____ _____    ______ ____
ROOT
ATOM      1  C   UNL     1      -0.304   9.731  23.109  0.00  0.00    +0.000 C 
ATOM      2  N   UNL     1       0.142  10.118  21.783  0.00  0.00    +0.000 N 
ATOM      3  C   UNL     1      -0.077  11.412  21.316  0.00  0.00    +0.000 A 
ATOM      4  O   UNL     1      -0.642  12.295  21.965  0.00  0.00    +0.000 OA
ATOM      5  N   UNL     1       0.380  11.703  20.045  0.00  0.00    +0.000 N 
ATOM      6  C   UNL     1       1.039  10.859  19.181  0.00  0.00    +0.000 A 
ATOM      7  O   UNL     1       1.422  11.226  18.075  0.00  0.00    +0.000 OA
ATOM      8  C   UNL     1       1.221   9.552  19.717  0.00  0.00    +0.000 A 
ATOM      9  C   UNL     1       0.791   9.216  20.966  0.00  0.00    +0.000 A 
ATOM     10  N   UNL     1       1.100   7.930  21.275  0.00  0.00    +0.000 NA
ATOM     11  C   UNL     1       1.721   7.445  20.217  0.00  0.00    +0.000 A 
ATOM     12  N   UNL     1       2.226   6.192  20.122  0.00  0.00    +0.000 N 
ATOM     13  N   UNL     1       1.810   8.412  19.208  0.00  0.00    +0.000 N 
ATOM     14  H   UNL     1       0.223  12.647  19.730  0.00  0.00    +0.000 HD
ATOM     15  H   UNL     1       2.493   5.761  19.256  0.00  0.00    +0.000 HD
ENDROOT
BRANCH  12  16
ATOM     16  C   UNL     1       2.036   5.209  21.174  0.00  0.00    +0.000 C 
BRANCH  16  17
ATOM     17  C   UNL     1       1.106   4.100  20.649  0.00  0.00    +0.000 C 
BRANCH  17  18
ATOM     18  C   UNL     1       1.301   3.882  19.152  0.00  0.00    +0.000 C 
BRANCH  18  19
ATOM     19  N   UNL     1       2.412   3.007  18.839  0.00  0.00    +0.000 N 
ATOM     20  C   UNL     1       2.727   2.505  17.605  0.00  0.00    +0.000 A 
ATOM     21  C   UNL     1       3.782   1.650  17.827  0.00  0.00    +0.000 A 
ATOM     22  N   UNL     1       4.120   1.631  19.154  0.00  0.00    +0.000 NA
ATOM     23  C   UNL     1       3.274   2.449  19.740  0.00  0.00    +0.000 A 
ENDBRANCH  18  19
ENDBRANCH  17  18
ENDBRANCH  16  17
ENDBRANCH  12  16
BRANCH  13  24
ATOM     24  C   UNL     1       2.403   8.362  17.866  0.00  0.00    +0.000 C 
BRANCH  24  25
ATOM     25  C   UNL     1       3.718   7.606  17.776  0.00  0.00    +0.000 C 
BRANCH  25  26
ATOM     26  O   UNL     1       3.646   6.214  17.476  0.00  0.00    +0.000 OA
BRANCH  26  27
ATOM     27  C   UNL     1       4.912   5.665  17.349  0.00  0.00    +0.000 A 
ATOM     28  C   UNL     1       5.188   5.024  16.142  0.00  0.00    +0.000 A 
ATOM     29  C   UNL     1       6.436   4.423  15.935  0.00  0.00    +0.000 A 
ATOM     30  C   UNL     1       7.415   4.463  16.928  0.00  0.00    +0.000 A 
ATOM     31  C   UNL     1       7.153   5.112  18.128  0.00  0.00    +0.000 A 
ATOM     32  C   UNL     1       5.912   5.719  18.334  0.00  0.00    +0.000 A 
ENDBRANCH  26  27
ENDBRANCH  25  26
ENDBRANCH  24  25
ENDBRANCH  13  24
TORSDOF 8
ENDMDL
