MODEL 1
REMARK VINA RESULT:      -6.9      0.000      0.000
REMARK  Name = 
REMARK  5 active torsions:
REMARK  status: ('A' for Active; 'I' for Inactive)
REMARK    1  A    between atoms: C_1  and  O_2
REMARK    2  A    between atoms: O_2  and  C_3
REMARK    3  A    between atoms: C_6  and  C_7
REMARK    4  A    between atoms: C_7  and  N_8
REMARK    5  A    between atoms: C_11  and  N_12
REMARK                            x       y       z     vdW  Elec       q    Type
REMARK                         _______ _______ _______ _____ _____    ______ ____
ROOT
ATOM      1  N   UNL     1       3.112   4.714  19.633  0.00  0.00    +0.000 NA
ATOM      2  C   UNL     1       2.596   4.184  18.370  0.00  0.00    +0.000 C 
ATOM      3  C   UNL     1       3.600   3.305  17.627  0.00  0.00    +0.000 C 
ATOM      4  C   UNL     1       4.942   4.014  17.353  0.00  0.00    +0.000 C 
ATOM      5  C   UNL     1       5.454   4.477  18.736  0.00  0.00    +0.000 C 
ATOM      6  C   UNL     1       4.443   5.322  19.524  0.00  0.00    +0.000 C 
ENDROOT
BRANCH   4   7
ATOM      7  N   UNL     1       4.928   5.131  16.371  0.00  0.00    +0.000 NA
ATOM      8  C   UNL     1       5.429   4.791  15.016  0.00  0.00    +0.000 C 
ATOM      9  C   UNL     1       6.947   4.562  14.955  0.00  0.00    +0.000 C 
ATOM     10  O   UNL     1       7.651   5.740  15.361  0.00  0.00    +0.000 OA
ATOM     11  C   UNL     1       7.270   6.119  16.689  0.00  0.00    +0.000 C 
ATOM     12  C   UNL     1       5.740   6.296  16.829  0.00  0.00    +0.000 C 
ENDBRANCH   4   7
BRANCH   1  13
ATOM     13  C   UNL     1       2.140   5.577  20.340  0.00  0.00    +0.000 C 
BRANCH  13  17
ATOM     14  C   UNL     1       1.496   9.572  18.970  0.00  0.00    +0.000 A 
ATOM     15  C   UNL     1       2.068   8.670  18.084  0.00  0.00    +0.000 A 
ATOM     16  C   UNL     1       2.291   7.362  18.516  0.00  0.00    +0.000 A 
ATOM     17  C   UNL     1       1.942   6.989  19.817  0.00  0.00    +0.000 A 
ATOM     18  C   UNL     1       1.399   7.981  20.626  0.00  0.00    +0.000 A 
ATOM     19  N   UNL     1       1.165   9.260  20.238  0.00  0.00    +0.000 NA
BRANCH  14  21
ATOM     20  C   UNL     1       0.290  11.562  19.222  0.00  0.00    +0.000 C 
ATOM     21  O   UNL     1       1.273  10.845  18.483  0.00  0.00    +0.000 OA
ENDBRANCH  14  21
ENDBRANCH  13  17
ENDBRANCH   1  13
TORSDOF 4
ENDMDL
MODEL 2
REMARK VINA RESULT:      -6.7      3.490      7.236
REMARK  Name = 
REMARK  5 active torsions:
REMARK  status: ('A' for Active; 'I' for Inactive)
REMARK    1  A    between atoms: C_1  and  O_2
REMARK    2  A    between atoms: O_2  and  C_3
REMARK    3  A    between atoms: C_6  and  C_7
REMARK    4  A    between atoms: C_7  and  N_8
REMARK    5  A    between atoms: C_11  and  N_12
REMARK                            x       y       z     vdW  Elec       q    Type
REMARK                         _______ _______ _______ _____ _____    ______ ____
ROOT
ATOM      1  N   UNL     1       6.318   5.931  17.138  0.00  0.00    +0.000 NA
ATOM      2  C   UNL     1       4.916   6.140  16.774  0.00  0.00    +0.000 C 
ATOM      3  C   UNL     1       3.993   6.295  17.982  0.00  0.00    +0.000 C 
ATOM      4  C   UNL     1       4.077   5.112  18.966  0.00  0.00    +0.000 C 
ATOM      5  C   UNL     1       5.569   5.004  19.357  0.00  0.00    +0.000 C 
ATOM      6  C   UNL     1       6.521   4.896  18.157  0.00  0.00    +0.000 C 
ENDROOT
BRANCH   4   7
ATOM      7  N   UNL     1       3.536   3.806  18.501  0.00  0.00    +0.000 NA
ATOM      8  C   UNL     1       2.077   3.785  18.229  0.00  0.00    +0.000 C 
ATOM      9  C   UNL     1       1.209   3.860  19.494  0.00  0.00    +0.000 C 
ATOM     10  O   UNL     1       1.476   2.747  20.355  0.00  0.00    +0.000 OA
ATOM     11  C   UNL     1       2.861   2.715  20.718  0.00  0.00    +0.000 C 
ATOM     12  C   UNL     1       3.788   2.709  19.480  0.00  0.00    +0.000 C 
ENDBRANCH   4   7
BRANCH   1  13
ATOM     13  C   UNL     1       7.203   5.766  15.964  0.00  0.00    +0.000 C 
BRANCH  13  17
ATOM     14  C   UNL     1       5.831   3.484  12.623  0.00  0.00    +0.000 A 
ATOM     15  C   UNL     1       5.066   3.458  13.780  0.00  0.00    +0.000 A 
ATOM     16  C   UNL     1       5.501   4.193  14.884  0.00  0.00    +0.000 A 
ATOM     17  C   UNL     1       6.687   4.931  14.806  0.00  0.00    +0.000 A 
ATOM     18  C   UNL     1       7.385   4.864  13.605  0.00  0.00    +0.000 A 
ATOM     19  N   UNL     1       6.989   4.164  12.512  0.00  0.00    +0.000 NA
BRANCH  14  21
ATOM     20  C   UNL     1       6.045   1.545  11.329  0.00  0.00    +0.000 C 
ATOM     21  O   UNL     1       5.340   2.762  11.553  0.00  0.00    +0.000 OA
ENDBRANCH  14  21
ENDBRANCH  13  17
ENDBRANCH   1  13
TORSDOF 4
ENDMDL
MODEL 3
REMARK VINA RESULT:      -6.7      1.510      6.999
REMARK  Name = 
REMARK  5 active torsions:
REMARK  status: ('A' for Active; 'I' for Inactive)
REMARK    1  A    between atoms: C_1  and  O_2
REMARK    2  A    between atoms: O_2  and  C_3
REMARK    3  A    between atoms: C_6  and  C_7
REMARK    4  A    between atoms: C_7  and  N_8
REMARK    5  A    between atoms: C_11  and  N_12
REMARK                            x       y       z     vdW  Elec       q    Type
REMARK                         _______ _______ _______ _____ _____    ______ ____
ROOT
ATOM      1  N   UNL     1       3.893   4.964  18.643  0.00  0.00    +0.000 NA
ATOM      2  C   UNL     1       3.464   5.010  20.042  0.00  0.00    +0.000 C 
ATOM      3  C   UNL     1       1.976   5.315  20.209  0.00  0.00    +0.000 C 
ATOM      4  C   UNL     1       1.543   6.622  19.516  0.00  0.00    +0.000 C 
ATOM      5  C   UNL     1       1.963   6.465  18.037  0.00  0.00    +0.000 C 
ATOM      6  C   UNL     1       3.445   6.109  17.845  0.00  0.00    +0.000 C 
ENDROOT
BRANCH   4   7
ATOM      7  N   UNL     1       2.047   7.895  20.098  0.00  0.00    +0.000 NA
ATOM      8  C   UNL     1       1.495   8.246  21.430  0.00  0.00    +0.000 C 
ATOM      9  C   UNL     1       0.021   8.676  21.397  0.00  0.00    +0.000 C 
ATOM     10  O   UNL     1      -0.148   9.834  20.571  0.00  0.00    +0.000 OA
ATOM     11  C   UNL     1       0.312   9.572  19.240  0.00  0.00    +0.000 C 
ATOM     12  C   UNL     1       1.773   9.067  19.217  0.00  0.00    +0.000 C 
ENDBRANCH   4   7
BRANCH   1  13
ATOM     13  C   UNL     1       5.338   4.684  18.490  0.00  0.00    +0.000 C 
BRANCH  13  17
ATOM     14  C   UNL     1       7.034   5.003  14.582  0.00  0.00    +0.000 A 
ATOM     15  C   UNL     1       6.058   4.038  14.785  0.00  0.00    +0.000 A 
ATOM     16  C   UNL     1       5.497   3.915  16.057  0.00  0.00    +0.000 A 
ATOM     17  C   UNL     1       5.924   4.754  17.091  0.00  0.00    +0.000 A 
ATOM     18  C   UNL     1       6.925   5.667  16.780  0.00  0.00    +0.000 A 
ATOM     19  N   UNL     1       7.490   5.816  15.555  0.00  0.00    +0.000 NA
BRANCH  14  21
ATOM     20  C   UNL     1       6.979   4.142  12.406  0.00  0.00    +0.000 C 
ATOM     21  O   UNL     1       7.537   5.100  13.299  0.00  0.00    +0.000 OA
ENDBRANCH  14  21
ENDBRANCH  13  17
ENDBRANCH   1  13
TORSDOF 4
ENDMDL
MODEL 4
REMARK VINA RESULT:      -6.7      2.782      4.255
REMARK  Name = 
REMARK  5 active torsions:
REMARK  status: ('A' for Active; 'I' for Inactive)
REMARK    1  A    between atoms: C_1  and  O_2
REMARK    2  A    between atoms: O_2  and  C_3
REMARK    3  A    between atoms: C_6  and  C_7
REMARK    4  A    between atoms: C_7  and  N_8
REMARK    5  A    between atoms: C_11  and  N_12
REMARK                            x       y       z     vdW  Elec       q    Type
REMARK                         _______ _______ _______ _____ _____    ______ ____
ROOT
ATOM      1  N   UNL     1       2.640   8.214  18.416  0.00  0.00    +0.000 NA
ATOM      2  C   UNL     1       1.746   7.480  19.313  0.00  0.00    +0.000 C 
ATOM      3  C   UNL     1       2.432   6.326  20.041  0.00  0.00    +0.000 C 
ATOM      4  C   UNL     1       3.108   5.322  19.087  0.00  0.00    +0.000 C 
ATOM      5  C   UNL     1       4.084   6.159  18.230  0.00  0.00    +0.000 C 
ATOM      6  C   UNL     1       3.427   7.354  17.526  0.00  0.00    +0.000 C 
ENDROOT
BRANCH   4   7
ATOM      7  N   UNL     1       2.213   4.486  18.242  0.00  0.00    +0.000 NA
ATOM      8  C   UNL     1       1.284   3.599  18.985  0.00  0.00    +0.000 C 
ATOM      9  C   UNL     1       1.976   2.416  19.679  0.00  0.00    +0.000 C 
ATOM     10  O   UNL     1       2.642   1.589  18.718  0.00  0.00    +0.000 OA
ATOM     11  C   UNL     1       3.606   2.351  17.982  0.00  0.00    +0.000 C 
ATOM     12  C   UNL     1       2.977   3.598  17.317  0.00  0.00    +0.000 C 
ENDBRANCH   4   7
BRANCH   1  13
ATOM     13  C   UNL     1       1.965   9.320  17.702  0.00  0.00    +0.000 C 
BRANCH  13  17
ATOM     14  C   UNL     1      -1.079  11.402  19.858  0.00  0.00    +0.000 A 
ATOM     15  C   UNL     1      -1.468  10.640  18.766  0.00  0.00    +0.000 A 
ATOM     16  C   UNL     1      -0.487   9.957  18.046  0.00  0.00    +0.000 A 
ATOM     17  C   UNL     1       0.854  10.055  18.431  0.00  0.00    +0.000 A 
ATOM     18  C   UNL     1       1.132  10.867  19.525  0.00  0.00    +0.000 A 
ATOM     19  N   UNL     1       0.203  11.540  20.250  0.00  0.00    +0.000 NA
BRANCH  14  21
ATOM     20  C   UNL     1      -1.660  12.595  21.787  0.00  0.00    +0.000 C 
ATOM     21  O   UNL     1      -2.093  12.035  20.552  0.00  0.00    +0.000 OA
ENDBRANCH  14  21
ENDBRANCH  13  17
ENDBRANCH   1  13
TORSDOF 4
ENDMDL
MODEL 5
REMARK VINA RESULT:      -6.7      2.471      3.617
REMARK  Name = 
REMARK  5 active torsions:
REMARK  status: ('A' for Active; 'I' for Inactive)
REMARK    1  A    between atoms: C_1  and  O_2
REMARK    2  A    between atoms: O_2  and  C_3
REMARK    3  A    between atoms: C_6  and  C_7
REMARK    4  A    between atoms: C_7  and  N_8
REMARK    5  A    between atoms: C_11  and  N_12
REMARK                            x       y       z     vdW  Elec       q    Type
REMARK                         _______ _______ _______ _____ _____    ______ ____
ROOT
ATOM      1  N   UNL     1       1.562   7.413  20.298  0.00  0.00    +0.000 NA
ATOM      2  C   UNL     1       2.238   8.137  19.220  0.00  0.00    +0.000 C 
ATOM      3  C   UNL     1       2.239   7.384  17.891  0.00  0.00    +0.000 C 
ATOM      4  C   UNL     1       2.848   5.971  17.995  0.00  0.00    +0.000 C 
ATOM      5  C   UNL     1       2.037   5.251  19.096  0.00  0.00    +0.000 C 
ATOM      6  C   UNL     1       1.980   6.013  20.427  0.00  0.00    +0.000 C 
ENDROOT
BRANCH   4   7
ATOM      7  N   UNL     1       4.312   5.883  18.245  0.00  0.00    +0.000 NA
ATOM      8  C   UNL     1       5.163   6.672  17.320  0.00  0.00    +0.000 C 
ATOM      9  C   UNL     1       5.224   6.102  15.895  0.00  0.00    +0.000 C 
ATOM     10  O   UNL     1       5.763   4.775  15.907  0.00  0.00    +0.000 OA
ATOM     11  C   UNL     1       4.970   3.919  16.738  0.00  0.00    +0.000 C 
ATOM     12  C   UNL     1       4.815   4.480  18.171  0.00  0.00    +0.000 C 
ENDBRANCH   4   7
BRANCH   1  13
ATOM     13  C   UNL     1       1.579   8.142  21.585  0.00  0.00    +0.000 C 
BRANCH  13  17
ATOM     14  C   UNL     1      -1.202  11.329  22.183  0.00  0.00    +0.000 A 
ATOM     15  C   UNL     1      -0.744  11.105  20.893  0.00  0.00    +0.000 A 
ATOM     16  C   UNL     1       0.169  10.072  20.679  0.00  0.00    +0.000 A 
ATOM     17  C   UNL     1       0.603   9.293  21.756  0.00  0.00    +0.000 A 
ATOM     18  C   UNL     1       0.098   9.623  23.009  0.00  0.00    +0.000 A 
ATOM     19  N   UNL     1      -0.793  10.616  23.251  0.00  0.00    +0.000 NA
BRANCH  14  21
ATOM     20  C   UNL     1      -3.013  12.137  23.428  0.00  0.00    +0.000 C 
ATOM     21  O   UNL     1      -2.125  12.346  22.334  0.00  0.00    +0.000 OA
ENDBRANCH  14  21
ENDBRANCH  13  17
ENDBRANCH   1  13
TORSDOF 4
ENDMDL
MODEL 6
REMARK VINA RESULT:      -6.6      3.507      6.101
REMARK  Name = 
REMARK  5 active torsions:
REMARK  status: ('A' for Active; 'I' for Inactive)
REMARK    1  A    between atoms: C_1  and  O_2
REMARK    2  A    between atoms: O_2  and  C_3
REMARK    3  A    between atoms: C_6  and  C_7
REMARK    4  A    between atoms: C_7  and  N_8
REMARK    5  A    between atoms: C_11  and  N_12
REMARK                            x       y       z     vdW  Elec       q    Type
REMARK                         _______ _______ _______ _____ _____    ______ ____
ROOT
ATOM      1  N   UNL     1       4.853   4.213  16.515  0.00  0.00    +0.000 NA
ATOM      2  C   UNL     1       4.841   2.948  17.251  0.00  0.00    +0.000 C 
ATOM      3  C   UNL     1       3.444   2.519  17.697  0.00  0.00    +0.000 C 
ATOM      4  C   UNL     1       2.720   3.587  18.540  0.00  0.00    +0.000 C 
ATOM      5  C   UNL     1       2.710   4.864  17.668  0.00  0.00    +0.000 C 
ATOM      6  C   UNL     1       4.098   5.288  17.168  0.00  0.00    +0.000 C 
ENDROOT
BRANCH   4   7
ATOM      7  N   UNL     1       3.261   3.856  19.900  0.00  0.00    +0.000 NA
ATOM      8  C   UNL     1       3.517   2.652  20.729  0.00  0.00    +0.000 C 
ATOM      9  C   UNL     1       2.240   1.952  21.217  0.00  0.00    +0.000 C 
ATOM     10  O   UNL     1       1.454   2.838  22.021  0.00  0.00    +0.000 OA
ATOM     11  C   UNL     1       1.110   4.016  21.282  0.00  0.00    +0.000 C 
ATOM     12  C   UNL     1       2.357   4.727  20.706  0.00  0.00    +0.000 C 
ENDBRANCH   4   7
BRANCH   1  13
ATOM     13  C   UNL     1       6.210   4.630  16.101  0.00  0.00    +0.000 C 
BRANCH  13  17
ATOM     14  C   UNL     1       8.146   7.743  18.293  0.00  0.00    +0.000 A 
ATOM     15  C   UNL     1       8.122   6.476  18.857  0.00  0.00    +0.000 A 
ATOM     16  C   UNL     1       7.488   5.447  18.158  0.00  0.00    +0.000 A 
ATOM     17  C   UNL     1       6.896   5.709  16.919  0.00  0.00    +0.000 A 
ATOM     18  C   UNL     1       6.959   7.021  16.462  0.00  0.00    +0.000 A 
ATOM     19  N   UNL     1       7.569   8.043  17.113  0.00  0.00    +0.000 NA
BRANCH  14  21
ATOM     20  C   UNL     1       8.815   9.986  18.365  0.00  0.00    +0.000 C 
ATOM     21  O   UNL     1       8.809   8.718  19.014  0.00  0.00    +0.000 OA
ENDBRANCH  14  21
ENDBRANCH  13  17
ENDBRANCH   1  13
TORSDOF 4
ENDMDL
MODEL 7
REMARK VINA RESULT:      -6.6      0.655      1.090
REMARK  Name = 
REMARK  5 active torsions:
REMARK  status: ('A' for Active; 'I' for Inactive)
REMARK    1  A    between atoms: C_1  and  O_2
REMARK    2  A    between atoms: O_2  and  C_3
REMARK    3  A    between atoms: C_6  and  C_7
REMARK    4  A    between atoms: C_7  and  N_8
REMARK    5  A    between atoms: C_11  and  N_12
REMARK                            x       y       z     vdW  Elec       q    Type
REMARK                         _______ _______ _______ _____ _____    ______ ____
ROOT
ATOM      1  N   UNL     1       3.123   4.540  19.755  0.00  0.00    +0.000 NA
ATOM      2  C   UNL     1       2.677   3.984  18.476  0.00  0.00    +0.000 C 
ATOM      3  C   UNL     1       3.766   3.207  17.740  0.00  0.00    +0.000 C 
ATOM      4  C   UNL     1       5.045   4.034  17.499  0.00  0.00    +0.000 C 
ATOM      5  C   UNL     1       5.491   4.520  18.896  0.00  0.00    +0.000 C 
ATOM      6  C   UNL     1       4.397   5.262  19.677  0.00  0.00    +0.000 C 
ENDROOT
BRANCH   4   7
ATOM      7  N   UNL     1       4.950   5.159  16.530  0.00  0.00    +0.000 NA
ATOM      8  C   UNL     1       5.411   4.853  15.154  0.00  0.00    +0.000 C 
ATOM      9  C   UNL     1       6.933   4.685  15.033  0.00  0.00    +0.000 C 
ATOM     10  O   UNL     1       7.605   5.886  15.426  0.00  0.00    +0.000 OA
ATOM     11  C   UNL     1       7.261   6.236  16.772  0.00  0.00    +0.000 C 
ATOM     12  C   UNL     1       5.732   6.351  16.971  0.00  0.00    +0.000 C 
ENDBRANCH   4   7
BRANCH   1  13
ATOM     13  C   UNL     1       2.068   5.304  20.455  0.00  0.00    +0.000 C 
BRANCH  13  17
ATOM     14  C   UNL     1       1.527   9.341  19.167  0.00  0.00    +0.000 A 
ATOM     15  C   UNL     1       1.134   9.017  20.458  0.00  0.00    +0.000 A 
ATOM     16  C   UNL     1       1.298   7.702  20.894  0.00  0.00    +0.000 A 
ATOM     17  C   UNL     1       1.845   6.746  20.033  0.00  0.00    +0.000 A 
ATOM     18  C   UNL     1       2.180   7.176  18.754  0.00  0.00    +0.000 A 
ATOM     19  N   UNL     1       2.038   8.447  18.299  0.00  0.00    +0.000 NA
BRANCH  14  21
ATOM     20  C   UNL     1       0.919  11.493  19.861  0.00  0.00    +0.000 C 
ATOM     21  O   UNL     1       1.368  10.662  18.795  0.00  0.00    +0.000 OA
ENDBRANCH  14  21
ENDBRANCH  13  17
ENDBRANCH   1  13
TORSDOF 4
ENDMDL
MODEL 8
REMARK VINA RESULT:      -6.6      2.735      7.888
REMARK  Name = 
REMARK  5 active torsions:
REMARK  status: ('A' for Active; 'I' for Inactive)
REMARK    1  A    between atoms: C_1  and  O_2
REMARK    2  A    between atoms: O_2  and  C_3
REMARK    3  A    between atoms: C_6  and  C_7
REMARK    4  A    between atoms: C_7  and  N_8
REMARK    5  A    between atoms: C_11  and  N_12
REMARK                            x       y       z     vdW  Elec       q    Type
REMARK                         _______ _______ _______ _____ _____    ______ ____
ROOT
ATOM      1  N   UNL     1       1.717   8.175  18.843  0.00  0.00    +0.000 NA
ATOM      2  C   UNL     1       1.569   8.623  20.228  0.00  0.00    +0.000 C 
ATOM      3  C   UNL     1       0.265   9.375  20.487  0.00  0.00    +0.000 C 
ATOM      4  C   UNL     1       0.067  10.586  19.553  0.00  0.00    +0.000 C 
ATOM      5  C   UNL     1       0.163  10.020  18.118  0.00  0.00    +0.000 C 
ATOM      6  C   UNL     1       1.444   9.218  17.848  0.00  0.00    +0.000 C 
ENDROOT
BRANCH   4   7
ATOM      7  N   UNL     1       0.978  11.746  19.748  0.00  0.00    +0.000 NA
ATOM      8  C   UNL     1       0.780  12.503  21.009  0.00  0.00    +0.000 C 
ATOM      9  C   UNL     1      -0.515  13.328  21.040  0.00  0.00    +0.000 C 
ATOM     10  O   UNL     1      -0.523  14.294  19.983  0.00  0.00    +0.000 OA
ATOM     11  C   UNL     1      -0.389  13.648  18.712  0.00  0.00    +0.000 C 
ATOM     12  C   UNL     1       0.864  12.745  18.646  0.00  0.00    +0.000 C 
ENDBRANCH   4   7
BRANCH   1  13
ATOM     13  C   UNL     1       2.989   7.461  18.596  0.00  0.00    +0.000 C 
BRANCH  13  17
ATOM     14  C   UNL     1       2.942   3.229  18.018  0.00  0.00    +0.000 A 
ATOM     15  C   UNL     1       1.791   3.936  17.704  0.00  0.00    +0.000 A 
ATOM     16  C   UNL     1       1.785   5.319  17.892  0.00  0.00    +0.000 A 
ATOM     17  C   UNL     1       2.925   5.959  18.389  0.00  0.00    +0.000 A 
ATOM     18  C   UNL     1       4.013   5.148  18.693  0.00  0.00    +0.000 A 
ATOM     19  N   UNL     1       4.053   3.803  18.519  0.00  0.00    +0.000 NA
BRANCH  14  21
ATOM     20  C   UNL     1       3.853   1.142  18.561  0.00  0.00    +0.000 C 
ATOM     21  O   UNL     1       2.903   1.868  17.788  0.00  0.00    +0.000 OA
ENDBRANCH  14  21
ENDBRANCH  13  17
ENDBRANCH   1  13
TORSDOF 4
ENDMDL
MODEL 9
REMARK VINA RESULT:      -6.5      3.612      7.280
REMARK  Name = 
REMARK  5 active torsions:
REMARK  status: ('A' for Active; 'I' for Inactive)
REMARK    1  A    between atoms: C_1  and  O_2
REMARK    2  A    between atoms: O_2  and  C_3
REMARK    3  A    between atoms: C_6  and  C_7
REMARK    4  A    between atoms: C_7  and  N_8
REMARK    5  A    between atoms: C_11  and  N_12
REMARK                            x       y       z     vdW  Elec       q    Type
REMARK                         _______ _______ _______ _____ _____    ______ ____
ROOT
ATOM      1  N   UNL     1       6.530   5.889  16.836  0.00  0.00    +0.000 NA
ATOM      2  C   UNL     1       5.119   6.040  16.477  0.00  0.00    +0.000 C 
ATOM      3  C   UNL     1       4.199   6.190  17.686  0.00  0.00    +0.000 C 
ATOM      4  C   UNL     1       4.329   5.033  18.696  0.00  0.00    +0.000 C 
ATOM      5  C   UNL     1       5.826   4.987  19.080  0.00  0.00    +0.000 C 
ATOM      6  C   UNL     1       6.774   4.885  17.877  0.00  0.00    +0.000 C 
ENDROOT
BRANCH   4   7
ATOM      7  N   UNL     1       3.832   3.699  18.264  0.00  0.00    +0.000 NA
ATOM      8  C   UNL     1       2.433   3.673  17.769  0.00  0.00    +0.000 C 
ATOM      9  C   UNL     1       1.381   3.870  18.871  0.00  0.00    +0.000 C 
ATOM     10  O   UNL     1       1.481   2.834  19.854  0.00  0.00    +0.000 OA
ATOM     11  C   UNL     1       2.792   2.816  20.432  0.00  0.00    +0.000 C 
ATOM     12  C   UNL     1       3.899   2.688  19.360  0.00  0.00    +0.000 C 
ENDBRANCH   4   7
BRANCH   1  13
ATOM     13  C   UNL     1       7.414   5.728  15.661  0.00  0.00    +0.000 C 
BRANCH  13  17
ATOM     14  C   UNL     1       5.884   3.334  12.470  0.00  0.00    +0.000 A 
ATOM     15  C   UNL     1       6.977   4.145  12.202  0.00  0.00    +0.000 A 
ATOM     16  C   UNL     1       7.488   4.939  13.231  0.00  0.00    +0.000 A 
ATOM     17  C   UNL     1       6.893   4.905  14.496  0.00  0.00    +0.000 A 
ATOM     18  C   UNL     1       5.788   4.075  14.644  0.00  0.00    +0.000 A 
ATOM     19  N   UNL     1       5.269   3.288  13.668  0.00  0.00    +0.000 NA
BRANCH  14  21
ATOM     20  C   UNL     1       6.218   1.376  11.232  0.00  0.00    +0.000 C 
ATOM     21  O   UNL     1       5.436   2.550  11.425  0.00  0.00    +0.000 OA
ENDBRANCH  14  21
ENDBRANCH  13  17
ENDBRANCH   1  13
TORSDOF 4
ENDMDL
