MODEL 1
REMARK VINA RESULT:      -7.4      0.000      0.000
REMARK  Name = 
REMARK  11 active torsions:
REMARK  status: ('A' for Active; 'I' for Inactive)
REMARK    1  A    between atoms: C_1  and  C_2
REMARK    2  A    between atoms: C_5  and  S_6
REMARK    3  A    between atoms: S_6  and  C_7
REMARK    4  A    between atoms: C_7  and  C_8
REMARK    5  A    between atoms: C_8  and  O_10
REMARK    6  A    between atoms: O_10  and  C_11
REMARK    7  A    between atoms: C_11  and  C_12
REMARK    8  A    between atoms: N_14  and  C_15
REMARK    9  A    between atoms: C_15  and  C_16
REMARK   10  A    between atoms: C_16  and  C_17
REMARK   11  A    between atoms: C_24  and  C_25
REMARK                            x       y       z     vdW  Elec       q    Type
REMARK                         _______ _______ _______ _____ _____    ______ ____
ROOT
ATOM      1  O   UNL     1       5.953   5.540  18.040  0.00  0.00    +0.000 OA
ENDROOT
BRANCH   1   2
ATOM      2  C   UNL     1       5.634   4.461  17.268  0.00  0.00    +0.000 C 
ATOM      3  O   UNL     1       6.091   4.285  16.140  0.00  0.00    +0.000 OA
BRANCH   2   4
ATOM      4  C   UNL     1       4.641   3.572  17.984  0.00  0.00    +0.000 C 
BRANCH   4   5
ATOM      5  S   UNL     1       2.902   3.883  17.501  0.00  0.00    +0.000 S 
BRANCH   5  10
ATOM      6  C   UNL     1       1.337   8.777  20.839  0.00  0.00    +0.000 C 
ATOM      7  C   UNL     1       1.723   7.575  20.019  0.00  0.00    +0.000 A 
ATOM      8  C   UNL     1       1.730   6.303  20.613  0.00  0.00    +0.000 A 
ATOM      9  C   UNL     1       2.074   5.162  19.875  0.00  0.00    +0.000 A 
ATOM     10  C   UNL     1       2.408   5.267  18.527  0.00  0.00    +0.000 A 
ATOM     11  C   UNL     1       2.415   6.540  17.937  0.00  0.00    +0.000 A 
ATOM     12  C   UNL     1       2.077   7.697  18.664  0.00  0.00    +0.000 A 
ATOM     13  C   UNL     1       2.106   9.035  17.977  0.00  0.00    +0.000 C 
ENDBRANCH   5  10
ENDBRANCH   4   5
ENDBRANCH   2   4
ENDBRANCH   1   2
BRANCH   1  14
ATOM     14  C   UNL     1       7.346   5.873  18.008  0.00  0.00    +0.000 C 
BRANCH  14  15
ATOM     15  C   UNL     1       7.576   7.349  17.681  0.00  0.00    +0.000 C 
ATOM     16  O   UNL     1       7.052   7.893  16.706  0.00  0.00    +0.000 OA
ATOM     17  N   UNL     1       8.437   8.017  18.535  0.00  0.00    +0.000 N 
ATOM     18  H   UNL     1       8.669   7.596  19.429  0.00  0.00    +0.000 HD
BRANCH  17  19
ATOM     19  C   UNL     1       8.632   9.448  18.369  0.00  0.00    +0.000 C 
BRANCH  19  20
ATOM     20  C   UNL     1       9.322  10.148  19.547  0.00  0.00    +0.000 C 
BRANCH  20  21
ATOM     21  C   UNL     1      10.379  11.151  19.143  0.00  0.00    +0.000 A 
ATOM     22  C   UNL     1      11.199  11.754  20.106  0.00  0.00    +0.000 A 
ATOM     23  C   UNL     1      12.154  12.703  19.731  0.00  0.00    +0.000 A 
ATOM     24  C   UNL     1      12.311  13.046  18.390  0.00  0.00    +0.000 A 
ATOM     25  C   UNL     1      11.527  12.426  17.420  0.00  0.00    +0.000 A 
ATOM     26  C   UNL     1      10.572  11.479  17.793  0.00  0.00    +0.000 A 
ENDBRANCH  20  21
ENDBRANCH  19  20
ENDBRANCH  17  19
ENDBRANCH  14  15
ENDBRANCH   1  14
TORSDOF 9
ENDMDL
MODEL 2
REMARK VINA RESULT:      -7.2      5.074      6.614
REMARK  Name = 
REMARK  11 active torsions:
REMARK  status: ('A' for Active; 'I' for Inactive)
REMARK    1  A    between atoms: C_1  and  C_2
REMARK    2  A    between atoms: C_5  and  S_6
REMARK    3  A    between atoms: S_6  and  C_7
REMARK    4  A    between atoms: C_7  and  C_8
REMARK    5  A    between atoms: C_8  and  O_10
REMARK    6  A    between atoms: O_10  and  C_11
REMARK    7  A    between atoms: C_11  and  C_12
REMARK    8  A    between atoms: N_14  and  C_15
REMARK    9  A    between atoms: C_15  and  C_16
REMARK   10  A    between atoms: C_16  and  C_17
REMARK   11  A    between atoms: C_24  and  C_25
REMARK                            x       y       z     vdW  Elec       q    Type
REMARK                         _______ _______ _______ _____ _____    ______ ____
ROOT
ATOM      1  O   UNL     1       3.051   3.908  19.398  0.00  0.00    +0.000 OA
ENDROOT
BRANCH   1   2
ATOM      2  C   UNL     1       2.431   4.052  20.605  0.00  0.00    +0.000 C 
ATOM      3  O   UNL     1       2.399   3.162  21.454  0.00  0.00    +0.000 OA
BRANCH   2   4
ATOM      4  C   UNL     1       1.788   5.417  20.710  0.00  0.00    +0.000 C 
BRANCH   4   5
ATOM      5  S   UNL     1       2.469   6.639  19.528  0.00  0.00    +0.000 S 
BRANCH   5  10
ATOM      6  C   UNL     1      -0.554  11.718  21.142  0.00  0.00    +0.000 C 
ATOM      7  C   UNL     1       0.188  10.470  20.745  0.00  0.00    +0.000 A 
ATOM      8  C   UNL     1       0.705  10.353  19.446  0.00  0.00    +0.000 A 
ATOM      9  C   UNL     1       1.409   9.209  19.047  0.00  0.00    +0.000 A 
ATOM     10  C   UNL     1       1.620   8.162  19.942  0.00  0.00    +0.000 A 
ATOM     11  C   UNL     1       1.091   8.272  21.237  0.00  0.00    +0.000 A 
ATOM     12  C   UNL     1       0.377   9.412  21.652  0.00  0.00    +0.000 A 
ATOM     13  C   UNL     1      -0.169   9.471  23.053  0.00  0.00    +0.000 C 
ENDBRANCH   5  10
ENDBRANCH   4   5
ENDBRANCH   2   4
ENDBRANCH   1   2
BRANCH   1  14
ATOM     14  C   UNL     1       4.350   3.312  19.490  0.00  0.00    +0.000 C 
BRANCH  14  15
ATOM     15  C   UNL     1       5.425   4.175  18.827  0.00  0.00    +0.000 C 
ATOM     16  O   UNL     1       5.870   5.193  19.363  0.00  0.00    +0.000 OA
ATOM     17  N   UNL     1       5.834   3.751  17.574  0.00  0.00    +0.000 N 
ATOM     18  H   UNL     1       5.603   2.810  17.273  0.00  0.00    +0.000 HD
BRANCH  17  19
ATOM     19  C   UNL     1       6.928   4.443  16.914  0.00  0.00    +0.000 C 
BRANCH  19  20
ATOM     20  C   UNL     1       6.503   5.429  15.818  0.00  0.00    +0.000 C 
BRANCH  20  21
ATOM     21  C   UNL     1       6.612   4.883  14.412  0.00  0.00    +0.000 A 
ATOM     22  C   UNL     1       5.700   3.928  13.941  0.00  0.00    +0.000 A 
ATOM     23  C   UNL     1       5.823   3.405  12.652  0.00  0.00    +0.000 A 
ATOM     24  C   UNL     1       6.846   3.843  11.814  0.00  0.00    +0.000 A 
ATOM     25  C   UNL     1       7.735   4.818  12.256  0.00  0.00    +0.000 A 
ATOM     26  C   UNL     1       7.615   5.341  13.545  0.00  0.00    +0.000 A 
ENDBRANCH  20  21
ENDBRANCH  19  20
ENDBRANCH  17  19
ENDBRANCH  14  15
ENDBRANCH   1  14
TORSDOF 9
ENDMDL
MODEL 3
REMARK VINA RESULT:      -7.2      4.543      6.940
REMARK  Name = 
REMARK  11 active torsions:
REMARK  status: ('A' for Active; 'I' for Inactive)
REMARK    1  A    between atoms: C_1  and  C_2
REMARK    2  A    between atoms: C_5  and  S_6
REMARK    3  A    between atoms: S_6  and  C_7
REMARK    4  A    between atoms: C_7  and  C_8
REMARK    5  A    between atoms: C_8  and  O_10
REMARK    6  A    between atoms: O_10  and  C_11
REMARK    7  A    between atoms: C_11  and  C_12
REMARK    8  A    between atoms: N_14  and  C_15
REMARK    9  A    between atoms: C_15  and  C_16
REMARK   10  A    between atoms: C_16  and  C_17
REMARK   11  A    between atoms: C_24  and  C_25
REMARK                            x       y       z     vdW  Elec       q    Type
REMARK                         _______ _______ _______ _____ _____    ______ ____
ROOT
ATOM      1  O   UNL     1       1.027   4.409  19.880  0.00  0.00    +0.000 OA
ENDROOT
BRANCH   1   2
ATOM      2  C   UNL     1       1.348   3.083  19.917  0.00  0.00    +0.000 C 
ATOM      3  O   UNL     1       1.480   2.454  20.966  0.00  0.00    +0.000 OA
BRANCH   2   4
ATOM      4  C   UNL     1       1.540   2.545  18.517  0.00  0.00    +0.000 C 
BRANCH   4   5
ATOM      5  S   UNL     1       3.227   1.903  18.206  0.00  0.00    +0.000 S 
BRANCH   5  10
ATOM      6  C   UNL     1       6.712   6.905  17.584  0.00  0.00    +0.000 C 
ATOM      7  C   UNL     1       5.856   5.675  17.736  0.00  0.00    +0.000 A 
ATOM      8  C   UNL     1       5.721   5.076  18.998  0.00  0.00    +0.000 A 
ATOM      9  C   UNL     1       4.925   3.937  19.177  0.00  0.00    +0.000 A 
ATOM     10  C   UNL     1       4.238   3.379  18.100  0.00  0.00    +0.000 A 
ATOM     11  C   UNL     1       4.384   3.969  16.836  0.00  0.00    +0.000 A 
ATOM     12  C   UNL     1       5.185   5.111  16.638  0.00  0.00    +0.000 A 
ATOM     13  C   UNL     1       5.304   5.697  15.257  0.00  0.00    +0.000 C 
ENDBRANCH   5  10
ENDBRANCH   4   5
ENDBRANCH   2   4
ENDBRANCH   1   2
BRANCH   1  14
ATOM     14  C   UNL     1       1.860   5.222  20.714  0.00  0.00    +0.000 C 
BRANCH  14  15
ATOM     15  C   UNL     1       2.086   6.612  20.119  0.00  0.00    +0.000 C 
ATOM     16  O   UNL     1       1.913   7.642  20.775  0.00  0.00    +0.000 OA
ATOM     17  N   UNL     1       2.463   6.632  18.786  0.00  0.00    +0.000 N 
ATOM     18  H   UNL     1       2.796   5.775  18.356  0.00  0.00    +0.000 HD
BRANCH  17  19
ATOM     19  C   UNL     1       2.805   7.900  18.165  0.00  0.00    +0.000 C 
BRANCH  19  20
ATOM     20  C   UNL     1       1.620   8.669  17.567  0.00  0.00    +0.000 C 
BRANCH  20  21
ATOM     21  C   UNL     1       1.324   9.986  18.248  0.00  0.00    +0.000 A 
ATOM     22  C   UNL     1       0.206  10.126  19.082  0.00  0.00    +0.000 A 
ATOM     23  C   UNL     1      -0.080  11.353  19.686  0.00  0.00    +0.000 A 
ATOM     24  C   UNL     1       0.756  12.448  19.476  0.00  0.00    +0.000 A 
ATOM     25  C   UNL     1       1.889  12.311  18.679  0.00  0.00    +0.000 A 
ATOM     26  C   UNL     1       2.176  11.086  18.074  0.00  0.00    +0.000 A 
ENDBRANCH  20  21
ENDBRANCH  19  20
ENDBRANCH  17  19
ENDBRANCH  14  15
ENDBRANCH   1  14
TORSDOF 9
ENDMDL
MODEL 4
REMARK VINA RESULT:      -7.1      4.523      7.802
REMARK  Name = 
REMARK  11 active torsions:
REMARK  status: ('A' for Active; 'I' for Inactive)
REMARK    1  A    between atoms: C_1  and  C_2
REMARK    2  A    between atoms: C_5  and  S_6
REMARK    3  A    between atoms: S_6  and  C_7
REMARK    4  A    between atoms: C_7  and  C_8
REMARK    5  A    between atoms: C_8  and  O_10
REMARK    6  A    between atoms: O_10  and  C_11
REMARK    7  A    between atoms: C_11  and  C_12
REMARK    8  A    between atoms: N_14  and  C_15
REMARK    9  A    between atoms: C_15  and  C_16
REMARK   10  A    between atoms: C_16  and  C_17
REMARK   11  A    between atoms: C_24  and  C_25
REMARK                            x       y       z     vdW  Elec       q    Type
REMARK                         _______ _______ _______ _____ _____    ______ ____
ROOT
ATOM      1  O   UNL     1       0.931   4.244  20.040  0.00  0.00    +0.000 OA
ENDROOT
BRANCH   1   2
ATOM      2  C   UNL     1       1.329   3.499  18.968  0.00  0.00    +0.000 C 
ATOM      3  O   UNL     1       1.086   3.814  17.804  0.00  0.00    +0.000 OA
BRANCH   2   4
ATOM      4  C   UNL     1       2.059   2.257  19.429  0.00  0.00    +0.000 C 
BRANCH   4   5
ATOM      5  S   UNL     1       3.464   1.793  18.349  0.00  0.00    +0.000 S 
BRANCH   5  10
ATOM      6  C   UNL     1       6.639   6.950  17.417  0.00  0.00    +0.000 C 
ATOM      7  C   UNL     1       5.860   5.682  17.646  0.00  0.00    +0.000 A 
ATOM      8  C   UNL     1       5.703   5.190  18.950  0.00  0.00    +0.000 A 
ATOM      9  C   UNL     1       4.975   4.019  19.200  0.00  0.00    +0.000 A 
ATOM     10  C   UNL     1       4.380   3.320  18.151  0.00  0.00    +0.000 A 
ATOM     11  C   UNL     1       4.549   3.804  16.845  0.00  0.00    +0.000 A 
ATOM     12  C   UNL     1       5.282   4.976  16.577  0.00  0.00    +0.000 A 
ATOM     13  C   UNL     1       5.430   5.444  15.154  0.00  0.00    +0.000 C 
ENDBRANCH   5  10
ENDBRANCH   4   5
ENDBRANCH   2   4
ENDBRANCH   1   2
BRANCH   1  14
ATOM     14  C   UNL     1       2.001   4.961  20.666  0.00  0.00    +0.000 C 
BRANCH  14  15
ATOM     15  C   UNL     1       2.003   6.441  20.282  0.00  0.00    +0.000 C 
ATOM     16  O   UNL     1       2.489   6.841  19.221  0.00  0.00    +0.000 OA
ATOM     17  N   UNL     1       1.454   7.298  21.221  0.00  0.00    +0.000 N 
ATOM     18  H   UNL     1       0.884   6.911  21.967  0.00  0.00    +0.000 HD
BRANCH  17  19
ATOM     19  C   UNL     1       1.313   8.707  20.898  0.00  0.00    +0.000 C 
BRANCH  19  20
ATOM     20  C   UNL     1      -0.058   9.312  21.228  0.00  0.00    +0.000 C 
BRANCH  20  21
ATOM     21  C   UNL     1      -0.514  10.385  20.264  0.00  0.00    +0.000 A 
ATOM     22  C   UNL     1      -0.893  10.056  18.954  0.00  0.00    +0.000 A 
ATOM     23  C   UNL     1      -1.285  11.054  18.058  0.00  0.00    +0.000 A 
ATOM     24  C   UNL     1      -1.319  12.386  18.465  0.00  0.00    +0.000 A 
ATOM     25  C   UNL     1      -0.981  12.720  19.773  0.00  0.00    +0.000 A 
ATOM     26  C   UNL     1      -0.587  11.725  20.670  0.00  0.00    +0.000 A 
ENDBRANCH  20  21
ENDBRANCH  19  20
ENDBRANCH  17  19
ENDBRANCH  14  15
ENDBRANCH   1  14
TORSDOF 9
ENDMDL
MODEL 5
REMARK VINA RESULT:      -7.0      1.493      2.419
REMARK  Name = 
REMARK  11 active torsions:
REMARK  status: ('A' for Active; 'I' for Inactive)
REMARK    1  A    between atoms: C_1  and  C_2
REMARK    2  A    between atoms: C_5  and  S_6
REMARK    3  A    between atoms: S_6  and  C_7
REMARK    4  A    between atoms: C_7  and  C_8
REMARK    5  A    between atoms: C_8  and  O_10
REMARK    6  A    between atoms: O_10  and  C_11
REMARK    7  A    between atoms: C_11  and  C_12
REMARK    8  A    between atoms: N_14  and  C_15
REMARK    9  A    between atoms: C_15  and  C_16
REMARK   10  A    between atoms: C_16  and  C_17
REMARK   11  A    between atoms: C_24  and  C_25
REMARK                            x       y       z     vdW  Elec       q    Type
REMARK                         _______ _______ _______ _____ _____    ______ ____
ROOT
ATOM      1  O   UNL     1       5.129   4.919  17.226  0.00  0.00    +0.000 OA
ENDROOT
BRANCH   1   2
ATOM      2  C   UNL     1       5.238   4.717  18.571  0.00  0.00    +0.000 C 
ATOM      3  O   UNL     1       5.784   3.728  19.059  0.00  0.00    +0.000 OA
BRANCH   2   4
ATOM      4  C   UNL     1       4.574   5.843  19.332  0.00  0.00    +0.000 C 
BRANCH   4   5
ATOM      5  S   UNL     1       2.769   5.616  19.545  0.00  0.00    +0.000 S 
BRANCH   5  10
ATOM      6  C   UNL     1       0.389  11.261  19.649  0.00  0.00    +0.000 C 
ATOM      7  C   UNL     1       0.972   9.874  19.623  0.00  0.00    +0.000 A 
ATOM      8  C   UNL     1       1.538   9.380  18.438  0.00  0.00    +0.000 A 
ATOM      9  C   UNL     1       2.100   8.098  18.382  0.00  0.00    +0.000 A 
ATOM     10  C   UNL     1       2.116   7.284  19.513  0.00  0.00    +0.000 A 
ATOM     11  C   UNL     1       1.537   7.771  20.695  0.00  0.00    +0.000 A 
ATOM     12  C   UNL     1       0.964   9.055  20.767  0.00  0.00    +0.000 A 
ATOM     13  C   UNL     1       0.356   9.520  22.062  0.00  0.00    +0.000 C 
ENDBRANCH   5  10
ENDBRANCH   4   5
ENDBRANCH   2   4
ENDBRANCH   1   2
BRANCH   1  14
ATOM     14  C   UNL     1       5.254   6.294  16.844  0.00  0.00    +0.000 C 
BRANCH  14  15
ATOM     15  C   UNL     1       6.697   6.790  16.947  0.00  0.00    +0.000 C 
ATOM     16  O   UNL     1       7.620   6.250  16.332  0.00  0.00    +0.000 OA
ATOM     17  N   UNL     1       6.896   7.860  17.802  0.00  0.00    +0.000 N 
ATOM     18  H   UNL     1       6.093   8.398  18.113  0.00  0.00    +0.000 HD
BRANCH  17  19
ATOM     19  C   UNL     1       8.213   8.470  17.881  0.00  0.00    +0.000 C 
BRANCH  19  20
ATOM     20  C   UNL     1       8.227   9.999  17.763  0.00  0.00    +0.000 C 
BRANCH  20  21
ATOM     21  C   UNL     1       9.349  10.673  18.520  0.00  0.00    +0.000 A 
ATOM     22  C   UNL     1       9.293  10.805  19.915  0.00  0.00    +0.000 A 
ATOM     23  C   UNL     1      10.319  11.455  20.607  0.00  0.00    +0.000 A 
ATOM     24  C   UNL     1      11.417  11.963  19.916  0.00  0.00    +0.000 A 
ATOM     25  C   UNL     1      11.501  11.804  18.536  0.00  0.00    +0.000 A 
ATOM     26  C   UNL     1      10.477  11.156  17.842  0.00  0.00    +0.000 A 
ENDBRANCH  20  21
ENDBRANCH  19  20
ENDBRANCH  17  19
ENDBRANCH  14  15
ENDBRANCH   1  14
TORSDOF 9
ENDMDL
MODEL 6
REMARK VINA RESULT:      -6.9      4.120      7.569
REMARK  Name = 
REMARK  11 active torsions:
REMARK  status: ('A' for Active; 'I' for Inactive)
REMARK    1  A    between atoms: C_1  and  C_2
REMARK    2  A    between atoms: C_5  and  S_6
REMARK    3  A    between atoms: S_6  and  C_7
REMARK    4  A    between atoms: C_7  and  C_8
REMARK    5  A    between atoms: C_8  and  O_10
REMARK    6  A    between atoms: O_10  and  C_11
REMARK    7  A    between atoms: C_11  and  C_12
REMARK    8  A    between atoms: N_14  and  C_15
REMARK    9  A    between atoms: C_15  and  C_16
REMARK   10  A    between atoms: C_16  and  C_17
REMARK   11  A    between atoms: C_24  and  C_25
REMARK                            x       y       z     vdW  Elec       q    Type
REMARK                         _______ _______ _______ _____ _____    ______ ____
ROOT
ATOM      1  O   UNL     1       2.850   2.414  21.260  0.00  0.00    +0.000 OA
ENDROOT
BRANCH   1   2
ATOM      2  C   UNL     1       2.770   2.154  19.924  0.00  0.00    +0.000 C 
ATOM      3  O   UNL     1       1.794   1.617  19.401  0.00  0.00    +0.000 OA
BRANCH   2   4
ATOM      4  C   UNL     1       4.040   2.584  19.223  0.00  0.00    +0.000 C 
BRANCH   4   5
ATOM      5  S   UNL     1       3.756   3.261  17.545  0.00  0.00    +0.000 S 
BRANCH   5  10
ATOM      6  C   UNL     1       7.663   7.980  17.452  0.00  0.00    +0.000 C 
ATOM      7  C   UNL     1       6.702   6.821  17.476  0.00  0.00    +0.000 A 
ATOM      8  C   UNL     1       5.625   6.794  16.577  0.00  0.00    +0.000 A 
ATOM      9  C   UNL     1       4.718   5.725  16.565  0.00  0.00    +0.000 A 
ATOM     10  C   UNL     1       4.876   4.657  17.446  0.00  0.00    +0.000 A 
ATOM     11  C   UNL     1       5.944   4.690  18.354  0.00  0.00    +0.000 A 
ATOM     12  C   UNL     1       6.861   5.758  18.382  0.00  0.00    +0.000 A 
ATOM     13  C   UNL     1       7.985   5.739  19.381  0.00  0.00    +0.000 C 
ENDBRANCH   5  10
ENDBRANCH   4   5
ENDBRANCH   2   4
ENDBRANCH   1   2
BRANCH   1  14
ATOM     14  C   UNL     1       1.770   3.217  21.751  0.00  0.00    +0.000 C 
BRANCH  14  15
ATOM     15  C   UNL     1       1.487   4.415  20.843  0.00  0.00    +0.000 C 
ATOM     16  O   UNL     1       0.541   4.427  20.051  0.00  0.00    +0.000 OA
ATOM     17  N   UNL     1       2.384   5.464  20.948  0.00  0.00    +0.000 N 
ATOM     18  H   UNL     1       3.007   5.500  21.749  0.00  0.00    +0.000 HD
BRANCH  17  19
ATOM     19  C   UNL     1       2.135   6.688  20.206  0.00  0.00    +0.000 C 
BRANCH  19  20
ATOM     20  C   UNL     1       1.642   7.869  21.051  0.00  0.00    +0.000 C 
BRANCH  20  21
ATOM     21  C   UNL     1       0.982   8.972  20.255  0.00  0.00    +0.000 A 
ATOM     22  C   UNL     1      -0.072   9.717  20.802  0.00  0.00    +0.000 A 
ATOM     23  C   UNL     1      -0.699  10.716  20.052  0.00  0.00    +0.000 A 
ATOM     24  C   UNL     1      -0.268  10.992  18.756  0.00  0.00    +0.000 A 
ATOM     25  C   UNL     1       0.802  10.284  18.216  0.00  0.00    +0.000 A 
ATOM     26  C   UNL     1       1.428   9.285  18.963  0.00  0.00    +0.000 A 
ENDBRANCH  20  21
ENDBRANCH  19  20
ENDBRANCH  17  19
ENDBRANCH  14  15
ENDBRANCH   1  14
TORSDOF 9
ENDMDL
MODEL 7
REMARK VINA RESULT:      -6.9      5.642      6.847
REMARK  Name = 
REMARK  11 active torsions:
REMARK  status: ('A' for Active; 'I' for Inactive)
REMARK    1  A    between atoms: C_1  and  C_2
REMARK    2  A    between atoms: C_5  and  S_6
REMARK    3  A    between atoms: S_6  and  C_7
REMARK    4  A    between atoms: C_7  and  C_8
REMARK    5  A    between atoms: C_8  and  O_10
REMARK    6  A    between atoms: O_10  and  C_11
REMARK    7  A    between atoms: C_11  and  C_12
REMARK    8  A    between atoms: N_14  and  C_15
REMARK    9  A    between atoms: C_15  and  C_16
REMARK   10  A    between atoms: C_16  and  C_17
REMARK   11  A    between atoms: C_24  and  C_25
REMARK                            x       y       z     vdW  Elec       q    Type
REMARK                         _______ _______ _______ _____ _____    ______ ____
ROOT
ATOM      1  O   UNL     1       2.072   2.587  20.396  0.00  0.00    +0.000 OA
ENDROOT
BRANCH   1   2
ATOM      2  C   UNL     1       1.466   3.733  19.973  0.00  0.00    +0.000 C 
ATOM      3  O   UNL     1       0.602   3.752  19.097  0.00  0.00    +0.000 OA
BRANCH   2   4
ATOM      4  C   UNL     1       2.032   4.932  20.702  0.00  0.00    +0.000 C 
BRANCH   4   5
ATOM      5  S   UNL     1       2.945   6.085  19.612  0.00  0.00    +0.000 S 
BRANCH   5  10
ATOM      6  C   UNL     1      -0.396  11.193  20.154  0.00  0.00    +0.000 C 
ATOM      7  C   UNL     1       0.424   9.938  20.020  0.00  0.00    +0.000 A 
ATOM      8  C   UNL     1       1.092   9.669  18.816  0.00  0.00    +0.000 A 
ATOM      9  C   UNL     1       1.873   8.516  18.662  0.00  0.00    +0.000 A 
ATOM     10  C   UNL     1       2.009   7.610  19.712  0.00  0.00    +0.000 A 
ATOM     11  C   UNL     1       1.330   7.870  20.911  0.00  0.00    +0.000 A 
ATOM     12  C   UNL     1       0.538   9.022  21.081  0.00  0.00    +0.000 A 
ATOM     13  C   UNL     1      -0.169   9.244  22.391  0.00  0.00    +0.000 C 
ENDBRANCH   5  10
ENDBRANCH   4   5
ENDBRANCH   2   4
ENDBRANCH   1   2
BRANCH   1  14
ATOM     14  C   UNL     1       3.443   2.485  19.996  0.00  0.00    +0.000 C 
BRANCH  14  15
ATOM     15  C   UNL     1       3.597   2.461  18.475  0.00  0.00    +0.000 C 
ATOM     16  O   UNL     1       2.910   1.729  17.759  0.00  0.00    +0.000 OA
ATOM     17  N   UNL     1       4.584   3.289  17.967  0.00  0.00    +0.000 N 
ATOM     18  H   UNL     1       4.969   4.018  18.560  0.00  0.00    +0.000 HD
BRANCH  17  19
ATOM     19  C   UNL     1       4.731   3.416  16.527  0.00  0.00    +0.000 C 
BRANCH  19  20
ATOM     20  C   UNL     1       5.559   4.621  16.064  0.00  0.00    +0.000 C 
BRANCH  20  21
ATOM     21  C   UNL     1       6.128   4.488  14.669  0.00  0.00    +0.000 A 
ATOM     22  C   UNL     1       7.252   5.231  14.280  0.00  0.00    +0.000 A 
ATOM     23  C   UNL     1       7.756   5.127  12.981  0.00  0.00    +0.000 A 
ATOM     24  C   UNL     1       7.154   4.269  12.064  0.00  0.00    +0.000 A 
ATOM     25  C   UNL     1       6.060   3.498  12.449  0.00  0.00    +0.000 A 
ATOM     26  C   UNL     1       5.554   3.602  13.746  0.00  0.00    +0.000 A 
ENDBRANCH  20  21
ENDBRANCH  19  20
ENDBRANCH  17  19
ENDBRANCH  14  15
ENDBRANCH   1  14
TORSDOF 9
ENDMDL
MODEL 8
REMARK VINA RESULT:      -6.9      1.720      2.786
REMARK  Name = 
REMARK  11 active torsions:
REMARK  status: ('A' for Active; 'I' for Inactive)
REMARK    1  A    between atoms: C_1  and  C_2
REMARK    2  A    between atoms: C_5  and  S_6
REMARK    3  A    between atoms: S_6  and  C_7
REMARK    4  A    between atoms: C_7  and  C_8
REMARK    5  A    between atoms: C_8  and  O_10
REMARK    6  A    between atoms: O_10  and  C_11
REMARK    7  A    between atoms: C_11  and  C_12
REMARK    8  A    between atoms: N_14  and  C_15
REMARK    9  A    between atoms: C_15  and  C_16
REMARK   10  A    between atoms: C_16  and  C_17
REMARK   11  A    between atoms: C_24  and  C_25
REMARK                            x       y       z     vdW  Elec       q    Type
REMARK                         _______ _______ _______ _____ _____    ______ ____
ROOT
ATOM      1  O   UNL     1       6.732   6.162  17.807  0.00  0.00    +0.000 OA
ENDROOT
BRANCH   1   2
ATOM      2  C   UNL     1       6.951   5.433  16.675  0.00  0.00    +0.000 C 
ATOM      3  O   UNL     1       7.646   5.833  15.742  0.00  0.00    +0.000 OA
BRANCH   2   4
ATOM      4  C   UNL     1       6.203   4.120  16.738  0.00  0.00    +0.000 C 
BRANCH   4   5
ATOM      5  S   UNL     1       4.453   4.250  16.212  0.00  0.00    +0.000 S 
BRANCH   5  10
ATOM      6  C   UNL     1       1.337   2.782  21.279  0.00  0.00    +0.000 C 
ATOM      7  C   UNL     1       2.103   3.143  20.035  0.00  0.00    +0.000 A 
ATOM      8  C   UNL     1       2.584   2.126  19.196  0.00  0.00    +0.000 A 
ATOM      9  C   UNL     1       3.292   2.427  18.025  0.00  0.00    +0.000 A 
ATOM     10  C   UNL     1       3.526   3.752  17.663  0.00  0.00    +0.000 A 
ATOM     11  C   UNL     1       3.059   4.769  18.508  0.00  0.00    +0.000 A 
ATOM     12  C   UNL     1       2.350   4.484  19.691  0.00  0.00    +0.000 A 
ATOM     13  C   UNL     1       1.877   5.618  20.559  0.00  0.00    +0.000 C 
ENDBRANCH   5  10
ENDBRANCH   4   5
ENDBRANCH   2   4
ENDBRANCH   1   2
BRANCH   1  14
ATOM     14  C   UNL     1       7.928   6.708  18.375  0.00  0.00    +0.000 C 
BRANCH  14  15
ATOM     15  C   UNL     1       8.042   8.214  18.135  0.00  0.00    +0.000 C 
ATOM     16  O   UNL     1       7.458   8.776  17.205  0.00  0.00    +0.000 OA
ATOM     17  N   UNL     1       8.872   8.892  19.013  0.00  0.00    +0.000 N 
ATOM     18  H   UNL     1       9.154   8.436  19.875  0.00  0.00    +0.000 HD
BRANCH  17  19
ATOM     19  C   UNL     1       8.958  10.340  18.932  0.00  0.00    +0.000 C 
BRANCH  19  20
ATOM     20  C   UNL     1      10.384  10.906  18.948  0.00  0.00    +0.000 C 
BRANCH  20  21
ATOM     21  C   UNL     1      10.516  12.241  19.646  0.00  0.00    +0.000 A 
ATOM     22  C   UNL     1       9.653  12.590  20.694  0.00  0.00    +0.000 A 
ATOM     23  C   UNL     1       9.761  13.837  21.316  0.00  0.00    +0.000 A 
ATOM     24  C   UNL     1      10.741  14.740  20.909  0.00  0.00    +0.000 A 
ATOM     25  C   UNL     1      11.628  14.389  19.895  0.00  0.00    +0.000 A 
ATOM     26  C   UNL     1      11.521  13.145  19.272  0.00  0.00    +0.000 A 
ENDBRANCH  20  21
ENDBRANCH  19  20
ENDBRANCH  17  19
ENDBRANCH  14  15
ENDBRANCH   1  14
TORSDOF 9
ENDMDL
MODEL 9
REMARK VINA RESULT:      -6.9      5.239      6.663
REMARK  Name = 
REMARK  11 active torsions:
REMARK  status: ('A' for Active; 'I' for Inactive)
REMARK    1  A    between atoms: C_1  and  C_2
REMARK    2  A    between atoms: C_5  and  S_6
REMARK    3  A    between atoms: S_6  and  C_7
REMARK    4  A    between atoms: C_7  and  C_8
REMARK    5  A    between atoms: C_8  and  O_10
REMARK    6  A    between atoms: O_10  and  C_11
REMARK    7  A    between atoms: C_11  and  C_12
REMARK    8  A    between atoms: N_14  and  C_15
REMARK    9  A    between atoms: C_15  and  C_16
REMARK   10  A    between atoms: C_16  and  C_17
REMARK   11  A    between atoms: C_24  and  C_25
REMARK                            x       y       z     vdW  Elec       q    Type
REMARK                         _______ _______ _______ _____ _____    ______ ____
ROOT
ATOM      1  O   UNL     1       2.004   3.796  18.563  0.00  0.00    +0.000 OA
ENDROOT
BRANCH   1   2
ATOM      2  C   UNL     1       1.669   4.063  19.858  0.00  0.00    +0.000 C 
ATOM      3  O   UNL     1       0.868   3.383  20.499  0.00  0.00    +0.000 OA
BRANCH   2   4
ATOM      4  C   UNL     1       2.387   5.302  20.347  0.00  0.00    +0.000 C 
BRANCH   4   5
ATOM      5  S   UNL     1       2.831   6.465  19.004  0.00  0.00    +0.000 S 
BRANCH   5  10
ATOM      6  C   UNL     1      -0.442  11.412  20.539  0.00  0.00    +0.000 C 
ATOM      7  C   UNL     1       0.361  10.196  20.162  0.00  0.00    +0.000 A 
ATOM      8  C   UNL     1       0.831  10.055  18.847  0.00  0.00    +0.000 A 
ATOM      9  C   UNL     1       1.590   8.941  18.464  0.00  0.00    +0.000 A 
ATOM     10  C   UNL     1       1.904   7.949  19.392  0.00  0.00    +0.000 A 
ATOM     11  C   UNL     1       1.423   8.082  20.702  0.00  0.00    +0.000 A 
ATOM     12  C   UNL     1       0.655   9.193  21.102  0.00  0.00    +0.000 A 
ATOM     13  C   UNL     1       0.165   9.279  22.521  0.00  0.00    +0.000 C 
ENDBRANCH   5  10
ENDBRANCH   4   5
ENDBRANCH   2   4
ENDBRANCH   1   2
BRANCH   1  14
ATOM     14  C   UNL     1       2.942   2.722  18.427  0.00  0.00    +0.000 C 
BRANCH  14  15
ATOM     15  C   UNL     1       4.383   3.227  18.345  0.00  0.00    +0.000 C 
ATOM     16  O   UNL     1       5.121   3.264  19.333  0.00  0.00    +0.000 OA
ATOM     17  N   UNL     1       4.786   3.669  17.096  0.00  0.00    +0.000 N 
ATOM     18  H   UNL     1       4.229   3.424  16.284  0.00  0.00    +0.000 HD
BRANCH  17  19
ATOM     19  C   UNL     1       6.170   4.064  16.896  0.00  0.00    +0.000 C 
BRANCH  19  20
ATOM     20  C   UNL     1       6.376   5.231  15.921  0.00  0.00    +0.000 C 
BRANCH  20  21
ATOM     21  C   UNL     1       6.612   4.811  14.487  0.00  0.00    +0.000 A 
ATOM     22  C   UNL     1       7.616   5.418  13.720  0.00  0.00    +0.000 A 
ATOM     23  C   UNL     1       7.810   5.048  12.387  0.00  0.00    +0.000 A 
ATOM     24  C   UNL     1       7.017   4.057  11.813  0.00  0.00    +0.000 A 
ATOM     25  C   UNL     1       6.043   3.420  12.576  0.00  0.00    +0.000 A 
ATOM     26  C   UNL     1       5.845   3.790  13.908  0.00  0.00    +0.000 A 
ENDBRANCH  20  21
ENDBRANCH  19  20
ENDBRANCH  17  19
ENDBRANCH  14  15
ENDBRANCH   1  14
TORSDOF 9
ENDMDL
