MODEL 1
REMARK VINA RESULT:      -9.8      0.000      0.000
REMARK  Name = 
REMARK  5 active torsions:
REMARK  status: ('A' for Active; 'I' for Inactive)
REMARK    1  A    between atoms: C_2  and  C_26
REMARK    2  A    between atoms: N_3  and  C_4
REMARK    3  A    between atoms: C_6  and  C_7
REMARK    4  A    between atoms: N_18  and  C_19
REMARK    5  A    between atoms: C_19  and  C_20
REMARK                            x       y       z     vdW  Elec       q    Type
REMARK                         _______ _______ _______ _____ _____    ______ ____
ROOT
ATOM      1  C   UNL     1       7.553   6.416  17.588  0.00  0.00    +0.000 A 
ATOM      2  N   UNL     1       7.530   6.091  16.274  0.00  0.00    +0.000 NA
ATOM      3  C   UNL     1       6.766   5.063  15.840  0.00  0.00    +0.000 A 
ATOM      4  N   UNL     1       5.985   4.281  16.614  0.00  0.00    +0.000 NA
ATOM      5  C   UNL     1       6.057   4.623  17.906  0.00  0.00    +0.000 A 
ATOM      6  C   UNL     1       6.807   5.633  18.471  0.00  0.00    +0.000 A 
ATOM      7  N   UNL     1       6.625   5.628  19.833  0.00  0.00    +0.000 NA
ATOM      8  N   UNL     1       5.798   4.623  20.132  0.00  0.00    +0.000 NA
ATOM      9  N   UNL     1       5.431   4.035  18.968  0.00  0.00    +0.000 N 
ENDROOT
BRANCH   3  10
ATOM     10  C   UNL     1       6.808   4.746  14.400  0.00  0.00    +0.000 A 
ATOM     11  C   UNL     1       7.715   5.379  13.531  0.00  0.00    +0.000 A 
ATOM     12  C   UNL     1       7.766   5.053  12.171  0.00  0.00    +0.000 A 
ATOM     13  C   UNL     1       6.903   4.094  11.650  0.00  0.00    +0.000 A 
ATOM     14  C   UNL     1       5.988   3.458  12.484  0.00  0.00    +0.000 A 
ATOM     15  C   UNL     1       5.946   3.781  13.844  0.00  0.00    +0.000 A 
ENDBRANCH   3  10
BRANCH   1  18
ATOM     16  O   UNL     1       7.008   9.241  17.189  0.00  0.00    +0.000 OA
ATOM     17  C   UNL     1       7.972   8.823  17.825  0.00  0.00    +0.000 C 
ATOM     18  N   UNL     1       8.303   7.506  18.061  0.00  0.00    +0.000 N 
ATOM     19  H   UNL     1       9.030   7.288  18.729  0.00  0.00    +0.000 HD
BRANCH  17  20
ATOM     20  C   UNL     1       8.851   9.827  18.483  0.00  0.00    +0.000 A 
ATOM     21  C   UNL     1       9.606  10.683  17.670  0.00  0.00    +0.000 A 
ATOM     22  C   UNL     1      10.442  11.639  18.247  0.00  0.00    +0.000 A 
ATOM     23  C   UNL     1      10.533  11.733  19.634  0.00  0.00    +0.000 A 
ATOM     24  C   UNL     1       9.797  10.869  20.447  0.00  0.00    +0.000 A 
ATOM     25  C   UNL     1       8.954   9.914  19.876  0.00  0.00    +0.000 A 
ENDBRANCH  17  20
ENDBRANCH   1  18
BRANCH   9  26
ATOM     26  C   UNL     1       4.703   2.782  18.941  0.00  0.00    +0.000 C 
BRANCH  26  27
ATOM     27  C   UNL     1       3.279   2.888  19.424  0.00  0.00    +0.000 A 
ATOM     28  C   UNL     1       2.955   2.676  20.774  0.00  0.00    +0.000 A 
ATOM     29  C   UNL     1       1.661   2.920  21.240  0.00  0.00    +0.000 A 
ATOM     30  C   UNL     1       0.674   3.365  20.362  0.00  0.00    +0.000 A 
ATOM     31  C   UNL     1       0.972   3.537  19.013  0.00  0.00    +0.000 A 
ATOM     32  C   UNL     1       2.264   3.290  18.543  0.00  0.00    +0.000 A 
ENDBRANCH  26  27
ENDBRANCH   9  26
TORSDOF 5
ENDMDL
MODEL 2
REMARK VINA RESULT:      -9.6      0.197      1.237
REMARK  Name = 
REMARK  5 active torsions:
REMARK  status: ('A' for Active; 'I' for Inactive)
REMARK    1  A    between atoms: C_2  and  C_26
REMARK    2  A    between atoms: N_3  and  C_4
REMARK    3  A    between atoms: C_6  and  C_7
REMARK    4  A    between atoms: N_18  and  C_19
REMARK    5  A    between atoms: C_19  and  C_20
REMARK                            x       y       z     vdW  Elec       q    Type
REMARK                         _______ _______ _______ _____ _____    ______ ____
ROOT
ATOM      1  C   UNL     1       7.569   6.429  17.578  0.00  0.00    +0.000 A 
ATOM      2  N   UNL     1       7.537   6.098  16.265  0.00  0.00    +0.000 NA
ATOM      3  C   UNL     1       6.768   5.071  15.840  0.00  0.00    +0.000 A 
ATOM      4  N   UNL     1       5.989   4.294  16.622  0.00  0.00    +0.000 NA
ATOM      5  C   UNL     1       6.069   4.641  17.912  0.00  0.00    +0.000 A 
ATOM      6  C   UNL     1       6.825   5.652  18.468  0.00  0.00    +0.000 A 
ATOM      7  N   UNL     1       6.651   5.653  19.831  0.00  0.00    +0.000 NA
ATOM      8  N   UNL     1       5.822   4.653  20.139  0.00  0.00    +0.000 NA
ATOM      9  N   UNL     1       5.447   4.060  18.980  0.00  0.00    +0.000 N 
ENDROOT
BRANCH   3  10
ATOM     10  C   UNL     1       6.801   4.747  14.401  0.00  0.00    +0.000 A 
ATOM     11  C   UNL     1       7.691   5.390  13.521  0.00  0.00    +0.000 A 
ATOM     12  C   UNL     1       7.734   5.059  12.162  0.00  0.00    +0.000 A 
ATOM     13  C   UNL     1       6.881   4.084  11.654  0.00  0.00    +0.000 A 
ATOM     14  C   UNL     1       5.984   3.438  12.499  0.00  0.00    +0.000 A 
ATOM     15  C   UNL     1       5.950   3.766  13.858  0.00  0.00    +0.000 A 
ENDBRANCH   3  10
BRANCH   1  18
ATOM     16  O   UNL     1       7.007   9.254  17.206  0.00  0.00    +0.000 OA
ATOM     17  C   UNL     1       7.986   8.836  17.821  0.00  0.00    +0.000 C 
ATOM     18  N   UNL     1       8.325   7.519  18.043  0.00  0.00    +0.000 N 
ATOM     19  H   UNL     1       9.066   7.299  18.695  0.00  0.00    +0.000 HD
BRANCH  17  20
ATOM     20  C   UNL     1       8.874   9.839  18.466  0.00  0.00    +0.000 A 
ATOM     21  C   UNL     1       8.897   9.902  19.866  0.00  0.00    +0.000 A 
ATOM     22  C   UNL     1       9.718  10.828  20.511  0.00  0.00    +0.000 A 
ATOM     23  C   UNL     1      10.505  11.698  19.759  0.00  0.00    +0.000 A 
ATOM     24  C   UNL     1      10.469  11.651  18.365  0.00  0.00    +0.000 A 
ATOM     25  C   UNL     1       9.655  10.723  17.713  0.00  0.00    +0.000 A 
ENDBRANCH  17  20
ENDBRANCH   1  18
BRANCH   9  26
ATOM     26  C   UNL     1       4.715   2.809  18.962  0.00  0.00    +0.000 C 
BRANCH  26  27
ATOM     27  C   UNL     1       3.254   2.947  19.306  0.00  0.00    +0.000 A 
ATOM     28  C   UNL     1       2.279   3.042  18.299  0.00  0.00    +0.000 A 
ATOM     29  C   UNL     1       0.920   3.021  18.623  0.00  0.00    +0.000 A 
ATOM     30  C   UNL     1       0.521   2.918  19.954  0.00  0.00    +0.000 A 
ATOM     31  C   UNL     1       1.477   2.868  20.964  0.00  0.00    +0.000 A 
ATOM     32  C   UNL     1       2.836   2.893  20.644  0.00  0.00    +0.000 A 
ENDBRANCH  26  27
ENDBRANCH   9  26
TORSDOF 5
ENDMDL
MODEL 3
REMARK VINA RESULT:      -9.6      0.173      1.234
REMARK  Name = 
REMARK  5 active torsions:
REMARK  status: ('A' for Active; 'I' for Inactive)
REMARK    1  A    between atoms: C_2  and  C_26
REMARK    2  A    between atoms: N_3  and  C_4
REMARK    3  A    between atoms: C_6  and  C_7
REMARK    4  A    between atoms: N_18  and  C_19
REMARK    5  A    between atoms: C_19  and  C_20
REMARK                            x       y       z     vdW  Elec       q    Type
REMARK                         _______ _______ _______ _____ _____    ______ ____
ROOT
ATOM      1  C   UNL     1       7.568   6.476  17.561  0.00  0.00    +0.000 A 
ATOM      2  N   UNL     1       7.555   6.123  16.253  0.00  0.00    +0.000 NA
ATOM      3  C   UNL     1       6.779   5.100  15.832  0.00  0.00    +0.000 A 
ATOM      4  N   UNL     1       5.973   4.349  16.612  0.00  0.00    +0.000 NA
ATOM      5  C   UNL     1       6.035   4.717  17.896  0.00  0.00    +0.000 A 
ATOM      6  C   UNL     1       6.796   5.726  18.449  0.00  0.00    +0.000 A 
ATOM      7  N   UNL     1       6.596   5.754  19.809  0.00  0.00    +0.000 NA
ATOM      8  N   UNL     1       5.747   4.771  20.119  0.00  0.00    +0.000 NA
ATOM      9  N   UNL     1       5.384   4.164  18.963  0.00  0.00    +0.000 N 
ENDROOT
BRANCH   3  10
ATOM     10  C   UNL     1       6.833   4.751  14.399  0.00  0.00    +0.000 A 
ATOM     11  C   UNL     1       6.002   3.758  13.850  0.00  0.00    +0.000 A 
ATOM     12  C   UNL     1       6.041   3.450  12.486  0.00  0.00    +0.000 A 
ATOM     13  C   UNL     1       6.921   4.124  11.643  0.00  0.00    +0.000 A 
ATOM     14  C   UNL     1       7.763   5.104  12.161  0.00  0.00    +0.000 A 
ATOM     15  C   UNL     1       7.714   5.414  13.523  0.00  0.00    +0.000 A 
ENDBRANCH   3  10
BRANCH   1  18
ATOM     16  O   UNL     1       6.997   9.304  17.223  0.00  0.00    +0.000 OA
ATOM     17  C   UNL     1       7.987   8.882  17.816  0.00  0.00    +0.000 C 
ATOM     18  N   UNL     1       8.331   7.563  18.020  0.00  0.00    +0.000 N 
ATOM     19  H   UNL     1       9.085   7.338  18.656  0.00  0.00    +0.000 HD
BRANCH  17  20
ATOM     20  C   UNL     1       8.886   9.879  18.453  0.00  0.00    +0.000 A 
ATOM     21  C   UNL     1       9.642  10.719  17.624  0.00  0.00    +0.000 A 
ATOM     22  C   UNL     1      10.497  11.669  18.182  0.00  0.00    +0.000 A 
ATOM     23  C   UNL     1      10.607  11.773  19.567  0.00  0.00    +0.000 A 
ATOM     24  C   UNL     1       9.871  10.926  20.396  0.00  0.00    +0.000 A 
ATOM     25  C   UNL     1       9.008   9.977  19.844  0.00  0.00    +0.000 A 
ENDBRANCH  17  20
ENDBRANCH   1  18
BRANCH   9  26
ATOM     26  C   UNL     1       4.634   2.924  18.953  0.00  0.00    +0.000 C 
BRANCH  26  27
ATOM     27  C   UNL     1       3.263   3.030  19.571  0.00  0.00    +0.000 A 
ATOM     28  C   UNL     1       2.148   3.401  18.801  0.00  0.00    +0.000 A 
ATOM     29  C   UNL     1       0.863   3.353  19.346  0.00  0.00    +0.000 A 
ATOM     30  C   UNL     1       0.678   2.949  20.667  0.00  0.00    +0.000 A 
ATOM     31  C   UNL     1       1.779   2.621  21.453  0.00  0.00    +0.000 A 
ATOM     32  C   UNL     1       3.066   2.671  20.913  0.00  0.00    +0.000 A 
ENDBRANCH  26  27
ENDBRANCH   9  26
TORSDOF 5
ENDMDL
MODEL 4
REMARK VINA RESULT:      -9.1      0.990      1.249
REMARK  Name = 
REMARK  5 active torsions:
REMARK  status: ('A' for Active; 'I' for Inactive)
REMARK    1  A    between atoms: C_2  and  C_26
REMARK    2  A    between atoms: N_3  and  C_4
REMARK    3  A    between atoms: C_6  and  C_7
REMARK    4  A    between atoms: N_18  and  C_19
REMARK    5  A    between atoms: C_19  and  C_20
REMARK                            x       y       z     vdW  Elec       q    Type
REMARK                         _______ _______ _______ _____ _____    ______ ____
ROOT
ATOM      1  C   UNL     1       6.648   6.701  17.040  0.00  0.00    +0.000 A 
ATOM      2  N   UNL     1       6.733   6.205  15.783  0.00  0.00    +0.000 NA
ATOM      3  C   UNL     1       6.201   4.998  15.490  0.00  0.00    +0.000 A 
ATOM      4  N   UNL     1       5.564   4.185  16.360  0.00  0.00    +0.000 NA
ATOM      5  C   UNL     1       5.525   4.703  17.593  0.00  0.00    +0.000 A 
ATOM      6  C   UNL     1       6.042   5.910  18.018  0.00  0.00    +0.000 A 
ATOM      7  N   UNL     1       5.820   6.050  19.366  0.00  0.00    +0.000 NA
ATOM      8  N   UNL     1       5.198   4.950  19.796  0.00  0.00    +0.000 NA
ATOM      9  N   UNL     1       4.992   4.149  18.722  0.00  0.00    +0.000 N 
ENDROOT
BRANCH   3  10
ATOM     10  C   UNL     1       6.353   4.506  14.108  0.00  0.00    +0.000 A 
ATOM     11  C   UNL     1       7.420   4.920  13.290  0.00  0.00    +0.000 A 
ATOM     12  C   UNL     1       7.571   4.429  11.988  0.00  0.00    +0.000 A 
ATOM     13  C   UNL     1       6.651   3.519  11.475  0.00  0.00    +0.000 A 
ATOM     14  C   UNL     1       5.580   3.099  12.257  0.00  0.00    +0.000 A 
ATOM     15  C   UNL     1       5.437   3.586  13.560  0.00  0.00    +0.000 A 
ENDBRANCH   3  10
BRANCH   1  18
ATOM     16  O   UNL     1       8.722   7.340  18.970  0.00  0.00    +0.000 OA
ATOM     17  C   UNL     1       8.143   8.189  18.297  0.00  0.00    +0.000 C 
ATOM     18  N   UNL     1       7.152   7.972  17.364  0.00  0.00    +0.000 N 
ATOM     19  H   UNL     1       6.862   8.732  16.762  0.00  0.00    +0.000 HD
BRANCH  17  20
ATOM     20  C   UNL     1       8.591   9.600  18.433  0.00  0.00    +0.000 A 
ATOM     21  C   UNL     1       9.435   9.929  19.503  0.00  0.00    +0.000 A 
ATOM     22  C   UNL     1       9.879  11.241  19.665  0.00  0.00    +0.000 A 
ATOM     23  C   UNL     1       9.471  12.227  18.768  0.00  0.00    +0.000 A 
ATOM     24  C   UNL     1       8.616  11.906  17.713  0.00  0.00    +0.000 A 
ATOM     25  C   UNL     1       8.172  10.594  17.541  0.00  0.00    +0.000 A 
ENDBRANCH  17  20
ENDBRANCH   1  18
BRANCH   9  26
ATOM     26  C   UNL     1       4.526   2.784  18.863  0.00  0.00    +0.000 C 
BRANCH  26  27
ATOM     27  C   UNL     1       3.091   2.667  19.308  0.00  0.00    +0.000 A 
ATOM     28  C   UNL     1       2.742   2.778  20.664  0.00  0.00    +0.000 A 
ATOM     29  C   UNL     1       1.400   2.816  21.050  0.00  0.00    +0.000 A 
ATOM     30  C   UNL     1       0.394   2.731  20.089  0.00  0.00    +0.000 A 
ATOM     31  C   UNL     1       0.727   2.576  18.747  0.00  0.00    +0.000 A 
ATOM     32  C   UNL     1       2.068   2.533  18.358  0.00  0.00    +0.000 A 
ENDBRANCH  26  27
ENDBRANCH   9  26
TORSDOF 5
ENDMDL
MODEL 5
REMARK VINA RESULT:      -9.0      0.982      1.341
REMARK  Name = 
REMARK  5 active torsions:
REMARK  status: ('A' for Active; 'I' for Inactive)
REMARK    1  A    between atoms: C_2  and  C_26
REMARK    2  A    between atoms: N_3  and  C_4
REMARK    3  A    between atoms: C_6  and  C_7
REMARK    4  A    between atoms: N_18  and  C_19
REMARK    5  A    between atoms: C_19  and  C_20
REMARK                            x       y       z     vdW  Elec       q    Type
REMARK                         _______ _______ _______ _____ _____    ______ ____
ROOT
ATOM      1  C   UNL     1       6.660   6.703  17.066  0.00  0.00    +0.000 A 
ATOM      2  N   UNL     1       6.770   6.212  15.809  0.00  0.00    +0.000 NA
ATOM      3  C   UNL     1       6.241   5.007  15.500  0.00  0.00    +0.000 A 
ATOM      4  N   UNL     1       5.582   4.193  16.351  0.00  0.00    +0.000 NA
ATOM      5  C   UNL     1       5.518   4.707  17.585  0.00  0.00    +0.000 A 
ATOM      6  C   UNL     1       6.030   5.909  18.027  0.00  0.00    +0.000 A 
ATOM      7  N   UNL     1       5.779   6.045  19.371  0.00  0.00    +0.000 NA
ATOM      8  N   UNL     1       5.143   4.945  19.782  0.00  0.00    +0.000 NA
ATOM      9  N   UNL     1       4.959   4.150  18.700  0.00  0.00    +0.000 N 
ENDROOT
BRANCH   3  10
ATOM     10  C   UNL     1       6.421   4.520  14.118  0.00  0.00    +0.000 A 
ATOM     11  C   UNL     1       5.554   3.567  13.554  0.00  0.00    +0.000 A 
ATOM     12  C   UNL     1       5.716   3.129  12.235  0.00  0.00    +0.000 A 
ATOM     13  C   UNL     1       6.754   3.631  11.455  0.00  0.00    +0.000 A 
ATOM     14  C   UNL     1       7.633   4.568  11.990  0.00  0.00    +0.000 A 
ATOM     15  C   UNL     1       7.463   5.008  13.307  0.00  0.00    +0.000 A 
ENDBRANCH   3  10
BRANCH   1  18
ATOM     16  O   UNL     1       8.750   7.319  18.986  0.00  0.00    +0.000 OA
ATOM     17  C   UNL     1       8.160   8.176  18.333  0.00  0.00    +0.000 C 
ATOM     18  N   UNL     1       7.161   7.971  17.406  0.00  0.00    +0.000 N 
ATOM     19  H   UNL     1       6.862   8.739  16.819  0.00  0.00    +0.000 HD
BRANCH  17  20
ATOM     20  C   UNL     1       8.603   9.587  18.488  0.00  0.00    +0.000 A 
ATOM     21  C   UNL     1       8.158  10.530  17.552  0.00  0.00    +0.000 A 
ATOM     22  C   UNL     1       8.550  11.864  17.662  0.00  0.00    +0.000 A 
ATOM     23  C   UNL     1       9.396  12.254  18.699  0.00  0.00    +0.000 A 
ATOM     24  C   UNL     1       9.857  11.314  19.621  0.00  0.00    +0.000 A 
ATOM     25  C   UNL     1       9.464   9.978  19.520  0.00  0.00    +0.000 A 
ENDBRANCH  17  20
ENDBRANCH   1  18
BRANCH   9  26
ATOM     26  C   UNL     1       4.485   2.786  18.825  0.00  0.00    +0.000 C 
BRANCH  26  27
ATOM     27  C   UNL     1       3.057   2.672  19.294  0.00  0.00    +0.000 A 
ATOM     28  C   UNL     1       2.734   2.762  20.658  0.00  0.00    +0.000 A 
ATOM     29  C   UNL     1       1.399   2.804  21.070  0.00  0.00    +0.000 A 
ATOM     30  C   UNL     1       0.375   2.741  20.127  0.00  0.00    +0.000 A 
ATOM     31  C   UNL     1       0.682   2.607  18.776  0.00  0.00    +0.000 A 
ATOM     32  C   UNL     1       2.016   2.561  18.361  0.00  0.00    +0.000 A 
ENDBRANCH  26  27
ENDBRANCH   9  26
TORSDOF 5
ENDMDL
MODEL 6
REMARK VINA RESULT:      -8.5      1.505      1.876
REMARK  Name = 
REMARK  5 active torsions:
REMARK  status: ('A' for Active; 'I' for Inactive)
REMARK    1  A    between atoms: C_2  and  C_26
REMARK    2  A    between atoms: N_3  and  C_4
REMARK    3  A    between atoms: C_6  and  C_7
REMARK    4  A    between atoms: N_18  and  C_19
REMARK    5  A    between atoms: C_19  and  C_20
REMARK                            x       y       z     vdW  Elec       q    Type
REMARK                         _______ _______ _______ _____ _____    ______ ____
ROOT
ATOM      1  C   UNL     1       6.016   6.961  16.691  0.00  0.00    +0.000 A 
ATOM      2  N   UNL     1       6.359   6.326  15.545  0.00  0.00    +0.000 NA
ATOM      3  C   UNL     1       5.662   5.244  15.131  0.00  0.00    +0.000 A 
ATOM      4  N   UNL     1       4.608   4.694  15.769  0.00  0.00    +0.000 NA
ATOM      5  C   UNL     1       4.320   5.338  16.906  0.00  0.00    +0.000 A 
ATOM      6  C   UNL     1       4.962   6.436  17.440  0.00  0.00    +0.000 A 
ATOM      7  N   UNL     1       4.377   6.767  18.639  0.00  0.00    +0.000 NA
ATOM      8  N   UNL     1       3.401   5.888  18.875  0.00  0.00    +0.000 NA
ATOM      9  N   UNL     1       3.345   5.043  17.816  0.00  0.00    +0.000 N 
ENDROOT
BRANCH   3  10
ATOM     10  C   UNL     1       6.106   4.585  13.888  0.00  0.00    +0.000 A 
ATOM     11  C   UNL     1       7.307   4.945  13.249  0.00  0.00    +0.000 A 
ATOM     12  C   UNL     1       7.734   4.297  12.085  0.00  0.00    +0.000 A 
ATOM     13  C   UNL     1       6.962   3.280  11.530  0.00  0.00    +0.000 A 
ATOM     14  C   UNL     1       5.765   2.909  12.134  0.00  0.00    +0.000 A 
ATOM     15  C   UNL     1       5.346   3.554  13.302  0.00  0.00    +0.000 A 
ENDBRANCH   3  10
BRANCH   1  18
ATOM     16  O   UNL     1       8.266   7.104  18.521  0.00  0.00    +0.000 OA
ATOM     17  C   UNL     1       7.758   8.093  17.998  0.00  0.00    +0.000 C 
ATOM     18  N   UNL     1       6.694   8.113  17.123  0.00  0.00    +0.000 N 
ATOM     19  H   UNL     1       6.466   8.971  16.637  0.00  0.00    +0.000 HD
BRANCH  17  20
ATOM     20  C   UNL     1       8.387   9.414  18.265  0.00  0.00    +0.000 A 
ATOM     21  C   UNL     1       9.266   9.524  19.351  0.00  0.00    +0.000 A 
ATOM     22  C   UNL     1       9.878  10.745  19.635  0.00  0.00    +0.000 A 
ATOM     23  C   UNL     1       9.604  11.858  18.843  0.00  0.00    +0.000 A 
ATOM     24  C   UNL     1       8.714  11.757  17.772  0.00  0.00    +0.000 A 
ATOM     25  C   UNL     1       8.103  10.536  17.479  0.00  0.00    +0.000 A 
ENDBRANCH  17  20
ENDBRANCH   1  18
BRANCH   9  26
ATOM     26  C   UNL     1       2.536   3.841  17.839  0.00  0.00    +0.000 C 
BRANCH  26  27
ATOM     27  C   UNL     1       2.329   3.264  19.216  0.00  0.00    +0.000 A 
ATOM     28  C   UNL     1       3.398   2.703  19.934  0.00  0.00    +0.000 A 
ATOM     29  C   UNL     1       3.230   2.307  21.263  0.00  0.00    +0.000 A 
ATOM     30  C   UNL     1       1.991   2.454  21.884  0.00  0.00    +0.000 A 
ATOM     31  C   UNL     1       0.912   2.967  21.169  0.00  0.00    +0.000 A 
ATOM     32  C   UNL     1       1.076   3.361  19.840  0.00  0.00    +0.000 A 
ENDBRANCH  26  27
ENDBRANCH   9  26
TORSDOF 5
ENDMDL
MODEL 7
REMARK VINA RESULT:      -8.1      4.217      7.730
REMARK  Name = 
REMARK  5 active torsions:
REMARK  status: ('A' for Active; 'I' for Inactive)
REMARK    1  A    between atoms: C_2  and  C_26
REMARK    2  A    between atoms: N_3  and  C_4
REMARK    3  A    between atoms: C_6  and  C_7
REMARK    4  A    between atoms: N_18  and  C_19
REMARK    5  A    between atoms: C_19  and  C_20
REMARK                            x       y       z     vdW  Elec       q    Type
REMARK                         _______ _______ _______ _____ _____    ______ ____
ROOT
ATOM      1  C   UNL     1       2.725   7.208  18.025  0.00  0.00    +0.000 A 
ATOM      2  N   UNL     1       2.420   6.239  18.920  0.00  0.00    +0.000 NA
ATOM      3  C   UNL     1       3.172   5.118  18.994  0.00  0.00    +0.000 A 
ATOM      4  N   UNL     1       4.250   4.841  18.229  0.00  0.00    +0.000 NA
ATOM      5  C   UNL     1       4.500   5.813  17.345  0.00  0.00    +0.000 A 
ATOM      6  C   UNL     1       3.801   6.988  17.163  0.00  0.00    +0.000 A 
ATOM      7  N   UNL     1       4.363   7.697  16.128  0.00  0.00    +0.000 NA
ATOM      8  N   UNL     1       5.381   6.980  15.646  0.00  0.00    +0.000 NA
ATOM      9  N   UNL     1       5.484   5.857  16.399  0.00  0.00    +0.000 N 
ENDROOT
BRANCH   3  10
ATOM     10  C   UNL     1       2.768   4.091  19.972  0.00  0.00    +0.000 A 
ATOM     11  C   UNL     1       1.485   4.087  20.550  0.00  0.00    +0.000 A 
ATOM     12  C   UNL     1       1.101   3.095  21.459  0.00  0.00    +0.000 A 
ATOM     13  C   UNL     1       1.995   2.090  21.815  0.00  0.00    +0.000 A 
ATOM     14  C   UNL     1       3.274   2.074  21.267  0.00  0.00    +0.000 A 
ATOM     15  C   UNL     1       3.652   3.063  20.353  0.00  0.00    +0.000 A 
ENDBRANCH   3  10
BRANCH   1  18
ATOM     16  O   UNL     1       1.451   8.626  20.217  0.00  0.00    +0.000 OA
ATOM     17  C   UNL     1       1.414   9.012  19.051  0.00  0.00    +0.000 C 
ATOM     18  N   UNL     1       1.989   8.403  17.957  0.00  0.00    +0.000 N 
ATOM     19  H   UNL     1       2.024   8.896  17.074  0.00  0.00    +0.000 HD
BRANCH  17  20
ATOM     20  C   UNL     1       0.746  10.312  18.777  0.00  0.00    +0.000 A 
ATOM     21  C   UNL     1       1.521  11.479  18.819  0.00  0.00    +0.000 A 
ATOM     22  C   UNL     1       0.933  12.719  18.567  0.00  0.00    +0.000 A 
ATOM     23  C   UNL     1      -0.430  12.795  18.285  0.00  0.00    +0.000 A 
ATOM     24  C   UNL     1      -1.208  11.637  18.262  0.00  0.00    +0.000 A 
ATOM     25  C   UNL     1      -0.625  10.392  18.507  0.00  0.00    +0.000 A 
ENDBRANCH  17  20
ENDBRANCH   1  18
BRANCH   9  26
ATOM     26  C   UNL     1       6.352   4.760  16.021  0.00  0.00    +0.000 C 
BRANCH  26  27
ATOM     27  C   UNL     1       6.500   4.577  14.532  0.00  0.00    +0.000 A 
ATOM     28  C   UNL     1       7.552   5.186  13.828  0.00  0.00    +0.000 A 
ATOM     29  C   UNL     1       7.766   4.893  12.480  0.00  0.00    +0.000 A 
ATOM     30  C   UNL     1       6.926   4.000  11.816  0.00  0.00    +0.000 A 
ATOM     31  C   UNL     1       5.854   3.424  12.491  0.00  0.00    +0.000 A 
ATOM     32  C   UNL     1       5.634   3.718  13.839  0.00  0.00    +0.000 A 
ENDBRANCH  26  27
ENDBRANCH   9  26
TORSDOF 5
ENDMDL
MODEL 8
REMARK VINA RESULT:      -8.1      7.635      9.737
REMARK  Name = 
REMARK  5 active torsions:
REMARK  status: ('A' for Active; 'I' for Inactive)
REMARK    1  A    between atoms: C_2  and  C_26
REMARK    2  A    between atoms: N_3  and  C_4
REMARK    3  A    between atoms: C_6  and  C_7
REMARK    4  A    between atoms: N_18  and  C_19
REMARK    5  A    between atoms: C_19  and  C_20
REMARK                            x       y       z     vdW  Elec       q    Type
REMARK                         _______ _______ _______ _____ _____    ______ ____
ROOT
ATOM      1  C   UNL     1       1.062   9.057  19.297  0.00  0.00    +0.000 A 
ATOM      2  N   UNL     1       0.085   9.417  18.431  0.00  0.00    +0.000 NA
ATOM      3  C   UNL     1      -0.990  10.110  18.868  0.00  0.00    +0.000 A 
ATOM      4  N   UNL     1      -1.212  10.501  20.141  0.00  0.00    +0.000 NA
ATOM      5  C   UNL     1      -0.235  10.103  20.964  0.00  0.00    +0.000 A 
ATOM      6  C   UNL     1       0.896   9.382  20.644  0.00  0.00    +0.000 A 
ATOM      7  N   UNL     1       1.626   9.151  21.785  0.00  0.00    +0.000 NA
ATOM      8  N   UNL     1       0.965   9.691  22.812  0.00  0.00    +0.000 NA
ATOM      9  N   UNL     1      -0.144  10.292  22.314  0.00  0.00    +0.000 N 
ENDROOT
BRANCH   3  10
ATOM     10  C   UNL     1      -2.030  10.447  17.877  0.00  0.00    +0.000 A 
ATOM     11  C   UNL     1      -2.010   9.913  16.576  0.00  0.00    +0.000 A 
ATOM     12  C   UNL     1      -3.014  10.217  15.650  0.00  0.00    +0.000 A 
ATOM     13  C   UNL     1      -4.055  11.071  16.004  0.00  0.00    +0.000 A 
ATOM     14  C   UNL     1      -4.095  11.622  17.281  0.00  0.00    +0.000 A 
ATOM     15  C   UNL     1      -3.094  11.309  18.206  0.00  0.00    +0.000 A 
ENDBRANCH   3  10
BRANCH   1  18
ATOM     16  O   UNL     1       1.793   6.301  19.849  0.00  0.00    +0.000 OA
ATOM     17  C   UNL     1       2.484   7.060  19.173  0.00  0.00    +0.000 C 
ATOM     18  N   UNL     1       2.212   8.375  18.864  0.00  0.00    +0.000 N 
ATOM     19  H   UNL     1       2.776   8.850  18.171  0.00  0.00    +0.000 HD
BRANCH  17  20
ATOM     20  C   UNL     1       3.713   6.502  18.549  0.00  0.00    +0.000 A 
ATOM     21  C   UNL     1       4.396   5.480  19.224  0.00  0.00    +0.000 A 
ATOM     22  C   UNL     1       5.552   4.929  18.672  0.00  0.00    +0.000 A 
ATOM     23  C   UNL     1       6.034   5.404  17.454  0.00  0.00    +0.000 A 
ATOM     24  C   UNL     1       5.368   6.434  16.789  0.00  0.00    +0.000 A 
ATOM     25  C   UNL     1       4.206   6.987  17.333  0.00  0.00    +0.000 A 
ENDBRANCH  17  20
ENDBRANCH   1  18
BRANCH   9  26
ATOM     26  C   UNL     1      -1.193  10.797  23.177  0.00  0.00    +0.000 C 
BRANCH  26  27
ATOM     27  C   UNL     1      -1.646  12.195  22.840  0.00  0.00    +0.000 A 
ATOM     28  C   UNL     1      -3.004  12.485  22.630  0.00  0.00    +0.000 A 
ATOM     29  C   UNL     1      -3.430  13.805  22.466  0.00  0.00    +0.000 A 
ATOM     30  C   UNL     1      -2.505  14.847  22.496  0.00  0.00    +0.000 A 
ATOM     31  C   UNL     1      -1.151  14.569  22.659  0.00  0.00    +0.000 A 
ATOM     32  C   UNL     1      -0.721  13.249  22.820  0.00  0.00    +0.000 A 
ENDBRANCH  26  27
ENDBRANCH   9  26
TORSDOF 5
ENDMDL
MODEL 9
REMARK VINA RESULT:      -8.1      7.614      9.676
REMARK  Name = 
REMARK  5 active torsions:
REMARK  status: ('A' for Active; 'I' for Inactive)
REMARK    1  A    between atoms: C_2  and  C_26
REMARK    2  A    between atoms: N_3  and  C_4
REMARK    3  A    between atoms: C_6  and  C_7
REMARK    4  A    between atoms: N_18  and  C_19
REMARK    5  A    between atoms: C_19  and  C_20
REMARK                            x       y       z     vdW  Elec       q    Type
REMARK                         _______ _______ _______ _____ _____    ______ ____
ROOT
ATOM      1  C   UNL     1       1.091   9.032  19.352  0.00  0.00    +0.000 A 
ATOM      2  N   UNL     1       0.120   9.385  18.477  0.00  0.00    +0.000 NA
ATOM      3  C   UNL     1      -0.961  10.076  18.903  0.00  0.00    +0.000 A 
ATOM      4  N   UNL     1      -1.195  10.470  20.172  0.00  0.00    +0.000 NA
ATOM      5  C   UNL     1      -0.223  10.080  21.005  0.00  0.00    +0.000 A 
ATOM      6  C   UNL     1       0.914   9.362  20.697  0.00  0.00    +0.000 A 
ATOM      7  N   UNL     1       1.635   9.137  21.845  0.00  0.00    +0.000 NA
ATOM      8  N   UNL     1       0.963   9.678  22.864  0.00  0.00    +0.000 NA
ATOM      9  N   UNL     1      -0.143  10.273  22.355  0.00  0.00    +0.000 N 
ENDROOT
BRANCH   3  10
ATOM     10  C   UNL     1      -1.994  10.405  17.902  0.00  0.00    +0.000 A 
ATOM     11  C   UNL     1      -3.061  11.272  18.201  0.00  0.00    +0.000 A 
ATOM     12  C   UNL     1      -4.022  11.600  17.239  0.00  0.00    +0.000 A 
ATOM     13  C   UNL     1      -3.941  11.060  15.959  0.00  0.00    +0.000 A 
ATOM     14  C   UNL     1      -2.902  10.192  15.637  0.00  0.00    +0.000 A 
ATOM     15  C   UNL     1      -1.939   9.873  16.599  0.00  0.00    +0.000 A 
ENDBRANCH   3  10
BRANCH   1  18
ATOM     16  O   UNL     1       1.784   6.254  19.842  0.00  0.00    +0.000 OA
ATOM     17  C   UNL     1       2.500   7.026  19.209  0.00  0.00    +0.000 C 
ATOM     18  N   UNL     1       2.247   8.353  18.931  0.00  0.00    +0.000 N 
ATOM     19  H   UNL     1       2.834   8.843  18.269  0.00  0.00    +0.000 HD
BRANCH  17  20
ATOM     20  C   UNL     1       3.741   6.476  18.603  0.00  0.00    +0.000 A 
ATOM     21  C   UNL     1       4.145   6.966  17.354  0.00  0.00    +0.000 A 
ATOM     22  C   UNL     1       5.304   6.477  16.751  0.00  0.00    +0.000 A 
ATOM     23  C   UNL     1       6.053   5.490  17.390  0.00  0.00    +0.000 A 
ATOM     24  C   UNL     1       5.643   4.985  18.624  0.00  0.00    +0.000 A 
ATOM     25  C   UNL     1       4.487   5.474  19.235  0.00  0.00    +0.000 A 
ENDBRANCH  17  20
ENDBRANCH   1  18
BRANCH   9  26
ATOM     26  C   UNL     1      -1.201  10.778  23.207  0.00  0.00    +0.000 C 
BRANCH  26  27
ATOM     27  C   UNL     1      -1.646  12.178  22.871  0.00  0.00    +0.000 A 
ATOM     28  C   UNL     1      -3.004  12.478  22.672  0.00  0.00    +0.000 A 
ATOM     29  C   UNL     1      -3.421  13.801  22.508  0.00  0.00    +0.000 A 
ATOM     30  C   UNL     1      -2.488  14.836  22.528  0.00  0.00    +0.000 A 
ATOM     31  C   UNL     1      -1.135  14.548  22.680  0.00  0.00    +0.000 A 
ATOM     32  C   UNL     1      -0.714  13.226  22.841  0.00  0.00    +0.000 A 
ENDBRANCH  26  27
ENDBRANCH   9  26
TORSDOF 5
ENDMDL
