MODEL 1
REMARK VINA RESULT:      -8.5      0.000      0.000
REMARK  Name = 
REMARK  3 active torsions:
REMARK  status: ('A' for Active; 'I' for Inactive)
REMARK    1  A    between atoms: N_3  and  C_4
REMARK    2  A    between atoms: N_11  and  C_12
REMARK    3  A    between atoms: C_16  and  C_17
REMARK                            x       y       z     vdW  Elec       q    Type
REMARK                         _______ _______ _______ _____ _____    ______ ____
ROOT
ATOM      1  O   UNL     1       7.193   8.614  17.189  0.00  0.00    +0.000 OA
ATOM      2  C   UNL     1       7.834   7.943  17.986  0.00  0.00    +0.000 C 
ATOM      3  N   UNL     1       8.761   8.476  18.869  0.00  0.00    +0.000 N 
ATOM      4  N   UNL     1       7.765   6.560  18.070  0.00  0.00    +0.000 N 
ATOM      5  H   UNL     1       9.383   7.832  19.325  0.00  0.00    +0.000 HD
ATOM      6  H   UNL     1       8.396   6.104  18.706  0.00  0.00    +0.000 HD
ENDROOT
BRANCH   3   7
ATOM      7  C   UNL     1       9.116   9.847  18.934  0.00  0.00    +0.000 A 
ATOM      8  C   UNL     1       9.473  10.606  17.814  0.00  0.00    +0.000 A 
ATOM      9  C   UNL     1       9.926  11.920  17.949  0.00  0.00    +0.000 A 
ATOM     10  C   UNL     1      10.004  12.493  19.213  0.00  0.00    +0.000 A 
ATOM     11 CL   UNL     1      10.616  14.090  19.388  0.00  0.00    +0.000 Cl
ATOM     12  C   UNL     1       9.601  11.772  20.334  0.00  0.00    +0.000 A 
ATOM     13  C   UNL     1       9.146  10.456  20.194  0.00  0.00    +0.000 A 
ENDBRANCH   3   7
BRANCH   4  14
ATOM     14  C   UNL     1       7.000   5.734  17.218  0.00  0.00    +0.000 A 
ATOM     15  C   UNL     1       7.406   5.367  15.934  0.00  0.00    +0.000 A 
ATOM     16  C   UNL     1       6.632   4.508  15.162  0.00  0.00    +0.000 A 
ATOM     17  C   UNL     1       5.428   4.018  15.660  0.00  0.00    +0.000 A 
ATOM     18  C   UNL     1       4.964   4.376  16.938  0.00  0.00    +0.000 A 
ATOM     19  C   UNL     1       5.777   5.245  17.703  0.00  0.00    +0.000 A 
BRANCH  18  20
ATOM     20  C   UNL     1       3.671   3.865  17.449  0.00  0.00    +0.000 A 
ATOM     21  C   UNL     1       3.459   2.499  17.691  0.00  0.00    +0.000 A 
ATOM     22  C   UNL     1       2.216   2.062  18.124  0.00  0.00    +0.000 A 
ATOM     23  N   UNL     1       1.173   2.881  18.356  0.00  0.00    +0.000 NA
ATOM     24  C   UNL     1       1.383   4.194  18.137  0.00  0.00    +0.000 A 
ATOM     25  C   UNL     1       2.587   4.721  17.690  0.00  0.00    +0.000 A 
ENDBRANCH  18  20
ENDBRANCH   4  14
TORSDOF 3
ENDMDL
MODEL 2
REMARK VINA RESULT:      -8.3      0.262      1.029
REMARK  Name = 
REMARK  3 active torsions:
REMARK  status: ('A' for Active; 'I' for Inactive)
REMARK    1  A    between atoms: N_3  and  C_4
REMARK    2  A    between atoms: N_11  and  C_12
REMARK    3  A    between atoms: C_16  and  C_17
REMARK                            x       y       z     vdW  Elec       q    Type
REMARK                         _______ _______ _______ _____ _____    ______ ____
ROOT
ATOM      1  O   UNL     1       7.184   8.632  17.274  0.00  0.00    +0.000 OA
ATOM      2  C   UNL     1       7.838   7.954  18.052  0.00  0.00    +0.000 C 
ATOM      3  N   UNL     1       8.764   8.480  18.941  0.00  0.00    +0.000 N 
ATOM      4  N   UNL     1       7.790   6.568  18.106  0.00  0.00    +0.000 N 
ATOM      5  H   UNL     1       9.398   7.835  19.379  0.00  0.00    +0.000 HD
ATOM      6  H   UNL     1       8.431   6.107  18.729  0.00  0.00    +0.000 HD
ENDROOT
BRANCH   3   7
ATOM      7  C   UNL     1       9.100   9.854  19.034  0.00  0.00    +0.000 A 
ATOM      8  C   UNL     1       9.317  10.515  20.248  0.00  0.00    +0.000 A 
ATOM      9  C   UNL     1       9.531  11.894  20.289  0.00  0.00    +0.000 A 
ATOM     10  C   UNL     1       9.552  12.621  19.104  0.00  0.00    +0.000 A 
ATOM     11 CL   UNL     1       9.757  14.328  19.154  0.00  0.00    +0.000 Cl
ATOM     12  C   UNL     1       9.394  11.972  17.882  0.00  0.00    +0.000 A 
ATOM     13  C   UNL     1       9.181  10.589  17.846  0.00  0.00    +0.000 A 
ENDBRANCH   3   7
BRANCH   4  14
ATOM     14  C   UNL     1       7.030   5.750  17.241  0.00  0.00    +0.000 A 
ATOM     15  C   UNL     1       7.441   5.403  15.953  0.00  0.00    +0.000 A 
ATOM     16  C   UNL     1       6.673   4.551  15.167  0.00  0.00    +0.000 A 
ATOM     17  C   UNL     1       5.471   4.048  15.656  0.00  0.00    +0.000 A 
ATOM     18  C   UNL     1       5.003   4.385  16.938  0.00  0.00    +0.000 A 
ATOM     19  C   UNL     1       5.809   5.247  17.717  0.00  0.00    +0.000 A 
BRANCH  18  20
ATOM     20  C   UNL     1       3.712   3.860  17.440  0.00  0.00    +0.000 A 
ATOM     21  C   UNL     1       3.519   2.494  17.698  0.00  0.00    +0.000 A 
ATOM     22  C   UNL     1       2.278   2.042  18.121  0.00  0.00    +0.000 A 
ATOM     23  N   UNL     1       1.219   2.847  18.327  0.00  0.00    +0.000 NA
ATOM     24  C   UNL     1       1.410   4.160  18.092  0.00  0.00    +0.000 A 
ATOM     25  C   UNL     1       2.610   4.701  17.654  0.00  0.00    +0.000 A 
ENDBRANCH  18  20
ENDBRANCH   4  14
TORSDOF 3
ENDMDL
MODEL 3
REMARK VINA RESULT:      -8.3      0.621      1.011
REMARK  Name = 
REMARK  3 active torsions:
REMARK  status: ('A' for Active; 'I' for Inactive)
REMARK    1  A    between atoms: N_3  and  C_4
REMARK    2  A    between atoms: N_11  and  C_12
REMARK    3  A    between atoms: C_16  and  C_17
REMARK                            x       y       z     vdW  Elec       q    Type
REMARK                         _______ _______ _______ _____ _____    ______ ____
ROOT
ATOM      1  O   UNL     1       7.283   8.761  17.354  0.00  0.00    +0.000 OA
ATOM      2  C   UNL     1       7.917   8.106  18.167  0.00  0.00    +0.000 C 
ATOM      3  N   UNL     1       8.875   8.647  19.012  0.00  0.00    +0.000 N 
ATOM      4  N   UNL     1       7.811   6.730  18.310  0.00  0.00    +0.000 N 
ATOM      5  H   UNL     1       9.487   8.004  19.484  0.00  0.00    +0.000 HD
ATOM      6  H   UNL     1       8.440   6.282  18.954  0.00  0.00    +0.000 HD
ENDROOT
BRANCH   3   7
ATOM      7  C   UNL     1       9.270  10.008  19.014  0.00  0.00    +0.000 A 
ATOM      8  C   UNL     1       9.610  10.715  17.855  0.00  0.00    +0.000 A 
ATOM      9  C   UNL     1      10.104  12.019  17.925  0.00  0.00    +0.000 A 
ATOM     10  C   UNL     1      10.239  12.636  19.164  0.00  0.00    +0.000 A 
ATOM     11 CL   UNL     1      10.901  14.220  19.259  0.00  0.00    +0.000 Cl
ATOM     12  C   UNL     1       9.853  11.969  20.324  0.00  0.00    +0.000 A 
ATOM     13  C   UNL     1       9.358  10.662  20.248  0.00  0.00    +0.000 A 
ENDBRANCH   3   7
BRANCH   4  14
ATOM     14  C   UNL     1       7.008   5.892  17.505  0.00  0.00    +0.000 A 
ATOM     15  C   UNL     1       7.297   5.597  16.173  0.00  0.00    +0.000 A 
ATOM     16  C   UNL     1       6.496   4.723  15.447  0.00  0.00    +0.000 A 
ATOM     17  C   UNL     1       5.379   4.144  16.044  0.00  0.00    +0.000 A 
ATOM     18  C   UNL     1       5.033   4.426  17.377  0.00  0.00    +0.000 A 
ATOM     19  C   UNL     1       5.871   5.313  18.091  0.00  0.00    +0.000 A 
BRANCH  18  20
ATOM     20  C   UNL     1       3.830   3.821  17.995  0.00  0.00    +0.000 A 
ATOM     21  C   UNL     1       2.536   4.115  17.538  0.00  0.00    +0.000 A 
ATOM     22  C   UNL     1       1.438   3.560  18.179  0.00  0.00    +0.000 A 
ATOM     23  N   UNL     1       1.528   2.719  19.226  0.00  0.00    +0.000 NA
ATOM     24  C   UNL     1       2.772   2.427  19.654  0.00  0.00    +0.000 A 
ATOM     25  C   UNL     1       3.927   2.945  19.086  0.00  0.00    +0.000 A 
ENDBRANCH  18  20
ENDBRANCH   4  14
TORSDOF 3
ENDMDL
MODEL 4
REMARK VINA RESULT:      -8.1      1.471      1.881
REMARK  Name = 
REMARK  3 active torsions:
REMARK  status: ('A' for Active; 'I' for Inactive)
REMARK    1  A    between atoms: N_3  and  C_4
REMARK    2  A    between atoms: N_11  and  C_12
REMARK    3  A    between atoms: C_16  and  C_17
REMARK                            x       y       z     vdW  Elec       q    Type
REMARK                         _______ _______ _______ _____ _____    ______ ____
ROOT
ATOM      1  O   UNL     1       8.424   7.407  18.296  0.00  0.00    +0.000 OA
ATOM      2  C   UNL     1       7.706   8.180  17.679  0.00  0.00    +0.000 C 
ATOM      3  N   UNL     1       7.911   9.551  17.633  0.00  0.00    +0.000 N 
ATOM      4  N   UNL     1       6.559   7.800  16.997  0.00  0.00    +0.000 N 
ATOM      5  H   UNL     1       7.157  10.117  17.286  0.00  0.00    +0.000 HD
ATOM      6  H   UNL     1       5.998   8.530  16.592  0.00  0.00    +0.000 HD
ENDROOT
BRANCH   3   7
ATOM      7  C   UNL     1       8.945  10.234  18.323  0.00  0.00    +0.000 A 
ATOM      8  C   UNL     1       9.025  10.306  19.718  0.00  0.00    +0.000 A 
ATOM      9  C   UNL     1       9.997  11.088  20.344  0.00  0.00    +0.000 A 
ATOM     10  C   UNL     1      10.915  11.791  19.572  0.00  0.00    +0.000 A 
ATOM     11 CL   UNL     1      12.077  12.801  20.338  0.00  0.00    +0.000 Cl
ATOM     12  C   UNL     1      10.886  11.688  18.184  0.00  0.00    +0.000 A 
ATOM     13  C   UNL     1       9.910  10.901  17.560  0.00  0.00    +0.000 A 
ENDBRANCH   3   7
BRANCH   4  14
ATOM     14  C   UNL     1       6.031   6.490  16.969  0.00  0.00    +0.000 A 
ATOM     15  C   UNL     1       6.563   5.462  16.190  0.00  0.00    +0.000 A 
ATOM     16  C   UNL     1       6.031   4.180  16.245  0.00  0.00    +0.000 A 
ATOM     17  C   UNL     1       4.941   3.912  17.069  0.00  0.00    +0.000 A 
ATOM     18  C   UNL     1       4.355   4.920  17.857  0.00  0.00    +0.000 A 
ATOM     19  C   UNL     1       4.924   6.212  17.786  0.00  0.00    +0.000 A 
BRANCH  18  20
ATOM     20  C   UNL     1       3.183   4.628  18.715  0.00  0.00    +0.000 A 
ATOM     21  C   UNL     1       2.181   3.730  18.318  0.00  0.00    +0.000 A 
ATOM     22  C   UNL     1       1.078   3.525  19.135  0.00  0.00    +0.000 A 
ATOM     23  N   UNL     1       0.906   4.129  20.325  0.00  0.00    +0.000 NA
ATOM     24  C   UNL     1       1.876   4.981  20.711  0.00  0.00    +0.000 A 
ATOM     25  C   UNL     1       3.006   5.259  19.955  0.00  0.00    +0.000 A 
ENDBRANCH  18  20
ENDBRANCH   4  14
TORSDOF 3
ENDMDL
MODEL 5
REMARK VINA RESULT:      -8.1      0.508      1.442
REMARK  Name = 
REMARK  3 active torsions:
REMARK  status: ('A' for Active; 'I' for Inactive)
REMARK    1  A    between atoms: N_3  and  C_4
REMARK    2  A    between atoms: N_11  and  C_12
REMARK    3  A    between atoms: C_16  and  C_17
REMARK                            x       y       z     vdW  Elec       q    Type
REMARK                         _______ _______ _______ _____ _____    ______ ____
ROOT
ATOM      1  O   UNL     1       7.239   8.886  17.402  0.00  0.00    +0.000 OA
ATOM      2  C   UNL     1       7.912   8.195  18.151  0.00  0.00    +0.000 C 
ATOM      3  N   UNL     1       8.893   8.701  18.992  0.00  0.00    +0.000 N 
ATOM      4  N   UNL     1       7.830   6.811  18.218  0.00  0.00    +0.000 N 
ATOM      5  H   UNL     1       9.531   8.042  19.403  0.00  0.00    +0.000 HD
ATOM      6  H   UNL     1       8.489   6.337  18.811  0.00  0.00    +0.000 HD
ENDROOT
BRANCH   3   7
ATOM      7  C   UNL     1       9.269  10.067  19.059  0.00  0.00    +0.000 A 
ATOM      8  C   UNL     1       9.280  10.807  20.247  0.00  0.00    +0.000 A 
ATOM      9  C   UNL     1       9.546  12.177  20.239  0.00  0.00    +0.000 A 
ATOM     10  C   UNL     1       9.827  12.815  19.036  0.00  0.00    +0.000 A 
ATOM     11 CL   UNL     1      10.098  14.513  19.015  0.00  0.00    +0.000 Cl
ATOM     12  C   UNL     1       9.876  12.085  17.852  0.00  0.00    +0.000 A 
ATOM     13  C   UNL     1       9.610  10.711  17.864  0.00  0.00    +0.000 A 
ENDBRANCH   3   7
BRANCH   4  14
ATOM     14  C   UNL     1       7.009   6.009  17.395  0.00  0.00    +0.000 A 
ATOM     15  C   UNL     1       7.352   5.637  16.094  0.00  0.00    +0.000 A 
ATOM     16  C   UNL     1       6.526   4.802  15.352  0.00  0.00    +0.000 A 
ATOM     17  C   UNL     1       5.331   4.340  15.898  0.00  0.00    +0.000 A 
ATOM     18  C   UNL     1       4.930   4.704  17.196  0.00  0.00    +0.000 A 
ATOM     19  C   UNL     1       5.796   5.548  17.929  0.00  0.00    +0.000 A 
BRANCH  18  20
ATOM     20  C   UNL     1       3.647   4.223  17.759  0.00  0.00    +0.000 A 
ATOM     21  C   UNL     1       2.867   5.022  18.609  0.00  0.00    +0.000 A 
ATOM     22  C   UNL     1       1.696   4.511  19.149  0.00  0.00    +0.000 A 
ATOM     23  N   UNL     1       1.229   3.275  18.892  0.00  0.00    +0.000 NA
ATOM     24  C   UNL     1       1.973   2.515  18.064  0.00  0.00    +0.000 A 
ATOM     25  C   UNL     1       3.164   2.935  17.489  0.00  0.00    +0.000 A 
ENDBRANCH  18  20
ENDBRANCH   4  14
TORSDOF 3
ENDMDL
MODEL 6
REMARK VINA RESULT:      -7.8      1.297      1.653
REMARK  Name = 
REMARK  3 active torsions:
REMARK  status: ('A' for Active; 'I' for Inactive)
REMARK    1  A    between atoms: N_3  and  C_4
REMARK    2  A    between atoms: N_11  and  C_12
REMARK    3  A    between atoms: C_16  and  C_17
REMARK                            x       y       z     vdW  Elec       q    Type
REMARK                         _______ _______ _______ _____ _____    ______ ____
ROOT
ATOM      1  O   UNL     1       7.472   9.170  17.688  0.00  0.00    +0.000 OA
ATOM      2  C   UNL     1       8.219   8.578  18.453  0.00  0.00    +0.000 C 
ATOM      3  N   UNL     1       9.251   9.190  19.150  0.00  0.00    +0.000 N 
ATOM      4  N   UNL     1       8.176   7.210  18.678  0.00  0.00    +0.000 N 
ATOM      5  H   UNL     1       9.935   8.591  19.578  0.00  0.00    +0.000 HD
ATOM      6  H   UNL     1       8.891   6.815  19.265  0.00  0.00    +0.000 HD
ENDROOT
BRANCH   3   7
ATOM      7  C   UNL     1       9.598  10.560  19.035  0.00  0.00    +0.000 A 
ATOM      8  C   UNL     1      10.127  11.128  17.870  0.00  0.00    +0.000 A 
ATOM      9  C   UNL     1      10.560  12.455  17.847  0.00  0.00    +0.000 A 
ATOM     10  C   UNL     1      10.445  13.234  18.993  0.00  0.00    +0.000 A 
ATOM     11 CL   UNL     1      11.029  14.851  18.987  0.00  0.00    +0.000 Cl
ATOM     12  C   UNL     1       9.870  12.703  20.145  0.00  0.00    +0.000 A 
ATOM     13  C   UNL     1       9.436  11.373  20.163  0.00  0.00    +0.000 A 
ENDBRANCH   3   7
BRANCH   4  14
ATOM     14  C   UNL     1       7.312   6.308  18.018  0.00  0.00    +0.000 A 
ATOM     15  C   UNL     1       7.473   5.923  16.687  0.00  0.00    +0.000 A 
ATOM     16  C   UNL     1       6.620   4.990  16.108  0.00  0.00    +0.000 A 
ATOM     17  C   UNL     1       5.579   4.442  16.853  0.00  0.00    +0.000 A 
ATOM     18  C   UNL     1       5.362   4.814  18.192  0.00  0.00    +0.000 A 
ATOM     19  C   UNL     1       6.251   5.759  18.754  0.00  0.00    +0.000 A 
BRANCH  18  20
ATOM     20  C   UNL     1       4.238   4.240  18.968  0.00  0.00    +0.000 A 
ATOM     21  C   UNL     1       3.437   5.032  19.805  0.00  0.00    +0.000 A 
ATOM     22  C   UNL     1       2.426   4.441  20.549  0.00  0.00    +0.000 A 
ATOM     23  N   UNL     1       2.136   3.127  20.508  0.00  0.00    +0.000 NA
ATOM     24  C   UNL     1       2.898   2.371  19.693  0.00  0.00    +0.000 A 
ATOM     25  C   UNL     1       3.939   2.871  18.923  0.00  0.00    +0.000 A 
ENDBRANCH  18  20
ENDBRANCH   4  14
TORSDOF 3
ENDMDL
MODEL 7
REMARK VINA RESULT:      -7.7      5.461      7.436
REMARK  Name = 
REMARK  3 active torsions:
REMARK  status: ('A' for Active; 'I' for Inactive)
REMARK    1  A    between atoms: N_3  and  C_4
REMARK    2  A    between atoms: N_11  and  C_12
REMARK    3  A    between atoms: C_16  and  C_17
REMARK                            x       y       z     vdW  Elec       q    Type
REMARK                         _______ _______ _______ _____ _____    ______ ____
ROOT
ATOM      1  O   UNL     1       0.603   7.700  19.847  0.00  0.00    +0.000 OA
ATOM      2  C   UNL     1       1.348   7.467  20.787  0.00  0.00    +0.000 C 
ATOM      3  N   UNL     1       1.457   8.283  21.904  0.00  0.00    +0.000 N 
ATOM      4  N   UNL     1       2.226   6.394  20.836  0.00  0.00    +0.000 N 
ATOM      5  H   UNL     1       2.241   8.126  22.512  0.00  0.00    +0.000 HD
ATOM      6  H   UNL     1       2.852   6.344  21.621  0.00  0.00    +0.000 HD
ENDROOT
BRANCH   3   7
ATOM      7  C   UNL     1       0.758   9.504  22.080  0.00  0.00    +0.000 A 
ATOM      8  C   UNL     1      -0.228   9.695  23.055  0.00  0.00    +0.000 A 
ATOM      9  C   UNL     1      -0.967  10.878  23.110  0.00  0.00    +0.000 A 
ATOM     10  C   UNL     1      -0.706  11.893  22.196  0.00  0.00    +0.000 A 
ATOM     11 CL   UNL     1      -1.652  13.329  22.224  0.00  0.00    +0.000 Cl
ATOM     12  C   UNL     1       0.309  11.744  21.255  0.00  0.00    +0.000 A 
ATOM     13  C   UNL     1       1.048  10.556  21.204  0.00  0.00    +0.000 A 
ENDBRANCH   3   7
BRANCH   4  14
ATOM     14  C   UNL     1       2.425   5.463  19.792  0.00  0.00    +0.000 A 
ATOM     15  C   UNL     1       1.456   4.546  19.384  0.00  0.00    +0.000 A 
ATOM     16  C   UNL     1       1.694   3.690  18.315  0.00  0.00    +0.000 A 
ATOM     17  C   UNL     1       2.916   3.727  17.650  0.00  0.00    +0.000 A 
ATOM     18  C   UNL     1       3.933   4.618  18.038  0.00  0.00    +0.000 A 
ATOM     19  C   UNL     1       3.659   5.482  19.123  0.00  0.00    +0.000 A 
BRANCH  18  20
ATOM     20  C   UNL     1       5.238   4.634  17.337  0.00  0.00    +0.000 A 
ATOM     21  C   UNL     1       5.325   4.636  15.936  0.00  0.00    +0.000 A 
ATOM     22  C   UNL     1       6.569   4.604  15.324  0.00  0.00    +0.000 A 
ATOM     23  N   UNL     1       7.735   4.592  15.998  0.00  0.00    +0.000 NA
ATOM     24  C   UNL     1       7.649   4.605  17.342  0.00  0.00    +0.000 A 
ATOM     25  C   UNL     1       6.451   4.622  18.041  0.00  0.00    +0.000 A 
ENDBRANCH  18  20
ENDBRANCH   4  14
TORSDOF 3
ENDMDL
MODEL 8
REMARK VINA RESULT:      -7.7      5.499      7.427
REMARK  Name = 
REMARK  3 active torsions:
REMARK  status: ('A' for Active; 'I' for Inactive)
REMARK    1  A    between atoms: N_3  and  C_4
REMARK    2  A    between atoms: N_11  and  C_12
REMARK    3  A    between atoms: C_16  and  C_17
REMARK                            x       y       z     vdW  Elec       q    Type
REMARK                         _______ _______ _______ _____ _____    ______ ____
ROOT
ATOM      1  O   UNL     1       0.758   7.906  19.681  0.00  0.00    +0.000 OA
ATOM      2  C   UNL     1       1.288   7.622  20.745  0.00  0.00    +0.000 C 
ATOM      3  N   UNL     1       1.226   8.425  21.874  0.00  0.00    +0.000 N 
ATOM      4  N   UNL     1       2.070   6.494  20.947  0.00  0.00    +0.000 N 
ATOM      5  H   UNL     1       1.864   8.215  22.622  0.00  0.00    +0.000 HD
ATOM      6  H   UNL     1       2.524   6.400  21.840  0.00  0.00    +0.000 HD
ENDROOT
BRANCH   3   7
ATOM      7  C   UNL     1       0.584   9.688  21.930  0.00  0.00    +0.000 A 
ATOM      8  C   UNL     1       0.952  10.776  21.130  0.00  0.00    +0.000 A 
ATOM      9  C   UNL     1       0.364  12.030  21.307  0.00  0.00    +0.000 A 
ATOM     10  C   UNL     1      -0.617  12.198  22.277  0.00  0.00    +0.000 A 
ATOM     11 CL   UNL     1      -1.302  13.754  22.538  0.00  0.00    +0.000 Cl
ATOM     12  C   UNL     1      -1.035  11.114  23.045  0.00  0.00    +0.000 A 
ATOM     13  C   UNL     1      -0.444   9.858  22.863  0.00  0.00    +0.000 A 
ENDBRANCH   3   7
BRANCH   4  14
ATOM     14  C   UNL     1       2.411   5.555  19.948  0.00  0.00    +0.000 A 
ATOM     15  C   UNL     1       1.650   4.421  19.665  0.00  0.00    +0.000 A 
ATOM     16  C   UNL     1       2.010   3.562  18.634  0.00  0.00    +0.000 A 
ATOM     17  C   UNL     1       3.152   3.818  17.881  0.00  0.00    +0.000 A 
ATOM     18  C   UNL     1       3.965   4.936  18.141  0.00  0.00    +0.000 A 
ATOM     19  C   UNL     1       3.568   5.795  19.191  0.00  0.00    +0.000 A 
BRANCH  18  20
ATOM     20  C   UNL     1       5.190   5.187  17.346  0.00  0.00    +0.000 A 
ATOM     21  C   UNL     1       6.163   6.110  17.760  0.00  0.00    +0.000 A 
ATOM     22  C   UNL     1       7.271   6.346  16.958  0.00  0.00    +0.000 A 
ATOM     23  N   UNL     1       7.496   5.720  15.788  0.00  0.00    +0.000 NA
ATOM     24  C   UNL     1       6.567   4.824  15.400  0.00  0.00    +0.000 A 
ATOM     25  C   UNL     1       5.421   4.534  16.127  0.00  0.00    +0.000 A 
ENDBRANCH  18  20
ENDBRANCH   4  14
TORSDOF 3
ENDMDL
MODEL 9
REMARK VINA RESULT:      -7.6      5.529      7.391
REMARK  Name = 
REMARK  3 active torsions:
REMARK  status: ('A' for Active; 'I' for Inactive)
REMARK    1  A    between atoms: N_3  and  C_4
REMARK    2  A    between atoms: N_11  and  C_12
REMARK    3  A    between atoms: C_16  and  C_17
REMARK                            x       y       z     vdW  Elec       q    Type
REMARK                         _______ _______ _______ _____ _____    ______ ____
ROOT
ATOM      1  O   UNL     1       0.557   7.734  19.824  0.00  0.00    +0.000 OA
ATOM      2  C   UNL     1       1.289   7.573  20.789  0.00  0.00    +0.000 C 
ATOM      3  N   UNL     1       1.375   8.465  21.847  0.00  0.00    +0.000 N 
ATOM      4  N   UNL     1       2.173   6.512  20.925  0.00  0.00    +0.000 N 
ATOM      5  H   UNL     1       2.150   8.357  22.477  0.00  0.00    +0.000 HD
ATOM      6  H   UNL     1       2.787   6.522  21.722  0.00  0.00    +0.000 HD
ENDROOT
BRANCH   3   7
ATOM      7  C   UNL     1       0.665   9.690  21.928  0.00  0.00    +0.000 A 
ATOM      8  C   UNL     1       0.946  10.799  21.122  0.00  0.00    +0.000 A 
ATOM      9  C   UNL     1       0.294  12.017  21.322  0.00  0.00    +0.000 A 
ATOM     10  C   UNL     1      -0.666  12.127  22.322  0.00  0.00    +0.000 A 
ATOM     11 CL   UNL     1      -1.429  13.641  22.609  0.00  0.00    +0.000 Cl
ATOM     12  C   UNL     1      -0.999  11.019  23.096  0.00  0.00    +0.000 A 
ATOM     13  C   UNL     1      -0.344   9.798  22.892  0.00  0.00    +0.000 A 
ENDBRANCH   3   7
BRANCH   4  14
ATOM     14  C   UNL     1       2.395   5.513  19.952  0.00  0.00    +0.000 A 
ATOM     15  C   UNL     1       1.453   4.539  19.621  0.00  0.00    +0.000 A 
ATOM     16  C   UNL     1       1.710   3.612  18.617  0.00  0.00    +0.000 A 
ATOM     17  C   UNL     1       2.927   3.638  17.941  0.00  0.00    +0.000 A 
ATOM     18  C   UNL     1       3.918   4.586  18.253  0.00  0.00    +0.000 A 
ATOM     19  C   UNL     1       3.624   5.520  19.273  0.00  0.00    +0.000 A 
BRANCH  18  20
ATOM     20  C   UNL     1       5.217   4.590  17.542  0.00  0.00    +0.000 A 
ATOM     21  C   UNL     1       5.298   4.441  16.148  0.00  0.00    +0.000 A 
ATOM     22  C   UNL     1       6.540   4.404  15.532  0.00  0.00    +0.000 A 
ATOM     23  N   UNL     1       7.707   4.525  16.191  0.00  0.00    +0.000 NA
ATOM     24  C   UNL     1       7.627   4.682  17.527  0.00  0.00    +0.000 A 
ATOM     25  C   UNL     1       6.432   4.716  18.231  0.00  0.00    +0.000 A 
ENDBRANCH  18  20
ENDBRANCH   4  14
TORSDOF 3
ENDMDL
