MODEL 1
REMARK VINA RESULT:      -8.2      0.000      0.000
REMARK  Name = 
REMARK  7 active torsions:
REMARK  status: ('A' for Active; 'I' for Inactive)
REMARK    1  A    between atoms: C_1  and  O_2
REMARK    2  A    between atoms: O_2  and  C_3
REMARK    3  A    between atoms: C_5  and  C_6
REMARK    4  A    between atoms: N_8  and  N_9
REMARK    5  A    between atoms: C_10  and  C_11
REMARK    6  A    between atoms: C_14  and  O_15
REMARK    7  A    between atoms: C_24  and  O_25
REMARK                            x       y       z     vdW  Elec       q    Type
REMARK                         _______ _______ _______ _____ _____    ______ ____
ROOT
ATOM      1  C   UNL     1       2.649   7.413  18.475  0.00  0.00    +0.000 C 
ATOM      2  O   UNL     1       2.207   7.235  19.614  0.00  0.00    +0.000 OA
ATOM      3  N   UNL     1       2.339   8.518  17.663  0.00  0.00    +0.000 N 
ATOM      4  H   UNL     1       2.693   8.636  16.719  0.00  0.00    +0.000 HD
ENDROOT
BRANCH   1   7
ATOM      5  C   UNL     1       5.729   5.827  16.861  0.00  0.00    +0.000 A 
ATOM      6  C   UNL     1       4.821   6.731  17.436  0.00  0.00    +0.000 A 
ATOM      7  C   UNL     1       3.533   6.343  17.850  0.00  0.00    +0.000 A 
ATOM      8  C   UNL     1       3.159   5.001  17.674  0.00  0.00    +0.000 A 
ATOM      9  C   UNL     1       4.059   4.092  17.090  0.00  0.00    +0.000 A 
ATOM     10  C   UNL     1       5.325   4.499  16.689  0.00  0.00    +0.000 A 
BRANCH   5  12
ATOM     11  C   UNL     1       7.510   7.351  17.410  0.00  0.00    +0.000 C 
ATOM     12  O   UNL     1       6.930   6.397  16.525  0.00  0.00    +0.000 OA
ENDBRANCH   5  12
BRANCH  10  13
ATOM     13  O   UNL     1       6.135   3.578  16.127  0.00  0.00    +0.000 OA
ATOM     14  H   UNL     1       5.608   2.936  15.651  0.00  0.00    +0.000 HD
ENDBRANCH  10  13
ENDBRANCH   1   7
BRANCH   3  15
ATOM     15  N   UNL     1       1.557   9.547  18.186  0.00  0.00    +0.000 NA
ATOM     16  C   UNL     1       0.284   9.491  17.940  0.00  0.00    +0.000 C 
BRANCH  16  17
ATOM     17  C   UNL     1      -0.711  10.547  18.296  0.00  0.00    +0.000 A 
ATOM     18  C   UNL     1      -0.335  11.356  19.387  0.00  0.00    +0.000 A 
ATOM     19  C   UNL     1      -1.222  12.281  19.930  0.00  0.00    +0.000 A 
ATOM     20  C   UNL     1      -2.534  12.287  19.481  0.00  0.00    +0.000 A 
ATOM     21  C   UNL     1      -2.938  11.487  18.400  0.00  0.00    +0.000 A 
ATOM     22  C   UNL     1      -4.267  11.497  17.959  0.00  0.00    +0.000 A 
ATOM     23  C   UNL     1      -4.550  11.302  16.618  0.00  0.00    +0.000 A 
ATOM     24  C   UNL     1      -3.576  10.732  15.814  0.00  0.00    +0.000 A 
ATOM     25  C   UNL     1      -2.358  10.322  16.378  0.00  0.00    +0.000 A 
ATOM     26  C   UNL     1      -1.979  10.741  17.679  0.00  0.00    +0.000 A 
BRANCH  20  27
ATOM     27  O   UNL     1      -3.417  13.194  20.012  0.00  0.00    +0.000 OA
ATOM     28  H   UNL     1      -2.946  13.708  20.689  0.00  0.00    +0.000 HD
ENDBRANCH  20  27
ENDBRANCH  16  17
ENDBRANCH   3  15
TORSDOF 6
ENDMDL
MODEL 2
REMARK VINA RESULT:      -8.2      1.840      3.215
REMARK  Name = 
REMARK  7 active torsions:
REMARK  status: ('A' for Active; 'I' for Inactive)
REMARK    1  A    between atoms: C_1  and  O_2
REMARK    2  A    between atoms: O_2  and  C_3
REMARK    3  A    between atoms: C_5  and  C_6
REMARK    4  A    between atoms: N_8  and  N_9
REMARK    5  A    between atoms: C_10  and  C_11
REMARK    6  A    between atoms: C_14  and  O_15
REMARK    7  A    between atoms: C_24  and  O_25
REMARK                            x       y       z     vdW  Elec       q    Type
REMARK                         _______ _______ _______ _____ _____    ______ ____
ROOT
ATOM      1  C   UNL     1       3.097   6.611  18.241  0.00  0.00    +0.000 C 
ATOM      2  O   UNL     1       2.157   6.008  18.770  0.00  0.00    +0.000 OA
ATOM      3  N   UNL     1       2.997   7.883  17.652  0.00  0.00    +0.000 N 
ATOM      4  H   UNL     1       3.775   8.354  17.200  0.00  0.00    +0.000 HD
ENDROOT
BRANCH   1   7
ATOM      5  C   UNL     1       6.382   5.422  16.692  0.00  0.00    +0.000 A 
ATOM      6  C   UNL     1       5.121   6.004  16.901  0.00  0.00    +0.000 A 
ATOM      7  C   UNL     1       4.450   5.922  18.136  0.00  0.00    +0.000 A 
ATOM      8  C   UNL     1       5.078   5.230  19.184  0.00  0.00    +0.000 A 
ATOM      9  C   UNL     1       6.336   4.636  18.979  0.00  0.00    +0.000 A 
ATOM     10  C   UNL     1       6.978   4.730  17.751  0.00  0.00    +0.000 A 
BRANCH   5  12
ATOM     11  C   UNL     1       6.738   4.556  14.474  0.00  0.00    +0.000 C 
ATOM     12  O   UNL     1       6.868   5.611  15.423  0.00  0.00    +0.000 OA
ENDBRANCH   5  12
BRANCH  10  13
ATOM     13  O   UNL     1       8.179   4.129  17.619  0.00  0.00    +0.000 OA
ATOM     14  H   UNL     1       8.401   3.677  18.433  0.00  0.00    +0.000 HD
ENDBRANCH  10  13
ENDBRANCH   1   7
BRANCH   3  15
ATOM     15  N   UNL     1       1.792   8.579  17.737  0.00  0.00    +0.000 NA
ATOM     16  C   UNL     1       1.593   9.265  18.821  0.00  0.00    +0.000 C 
BRANCH  16  17
ATOM     17  C   UNL     1       0.327   9.978  19.170  0.00  0.00    +0.000 A 
ATOM     18  C   UNL     1      -0.434  10.390  18.058  0.00  0.00    +0.000 A 
ATOM     19  C   UNL     1      -1.557  11.196  18.221  0.00  0.00    +0.000 A 
ATOM     20  C   UNL     1      -1.828  11.714  19.478  0.00  0.00    +0.000 A 
ATOM     21  C   UNL     1      -1.083  11.326  20.602  0.00  0.00    +0.000 A 
ATOM     22  C   UNL     1      -1.362  11.860  21.866  0.00  0.00    +0.000 A 
ATOM     23  C   UNL     1      -1.165  11.090  22.999  0.00  0.00    +0.000 A 
ATOM     24  C   UNL     1      -0.356   9.969  22.903  0.00  0.00    +0.000 A 
ATOM     25  C   UNL     1       0.282   9.672  21.689  0.00  0.00    +0.000 A 
ATOM     26  C   UNL     1      -0.109  10.309  20.484  0.00  0.00    +0.000 A 
BRANCH  20  27
ATOM     27  O   UNL     1      -2.932  12.512  19.647  0.00  0.00    +0.000 OA
ATOM     28  H   UNL     1      -3.722  11.952  19.558  0.00  0.00    +0.000 HD
ENDBRANCH  20  27
ENDBRANCH  16  17
ENDBRANCH   3  15
TORSDOF 6
ENDMDL
MODEL 3
REMARK VINA RESULT:      -8.2      0.900      2.001
REMARK  Name = 
REMARK  7 active torsions:
REMARK  status: ('A' for Active; 'I' for Inactive)
REMARK    1  A    between atoms: C_1  and  O_2
REMARK    2  A    between atoms: O_2  and  C_3
REMARK    3  A    between atoms: C_5  and  C_6
REMARK    4  A    between atoms: N_8  and  N_9
REMARK    5  A    between atoms: C_10  and  C_11
REMARK    6  A    between atoms: C_14  and  O_15
REMARK    7  A    between atoms: C_24  and  O_25
REMARK                            x       y       z     vdW  Elec       q    Type
REMARK                         _______ _______ _______ _____ _____    ______ ____
ROOT
ATOM      1  C   UNL     1       2.683   7.356  18.434  0.00  0.00    +0.000 C 
ATOM      2  O   UNL     1       2.235   7.103  19.557  0.00  0.00    +0.000 OA
ATOM      3  N   UNL     1       2.357   8.500  17.685  0.00  0.00    +0.000 N 
ATOM      4  H   UNL     1       2.716   8.679  16.752  0.00  0.00    +0.000 HD
ENDROOT
BRANCH   1   7
ATOM      5  C   UNL     1       4.113   3.954  17.442  0.00  0.00    +0.000 A 
ATOM      6  C   UNL     1       3.350   4.980  18.023  0.00  0.00    +0.000 A 
ATOM      7  C   UNL     1       3.592   6.341  17.756  0.00  0.00    +0.000 A 
ATOM      8  C   UNL     1       4.636   6.666  16.876  0.00  0.00    +0.000 A 
ATOM      9  C   UNL     1       5.411   5.645  16.298  0.00  0.00    +0.000 A 
ATOM     10  C   UNL     1       5.154   4.308  16.577  0.00  0.00    +0.000 A 
BRANCH   5  12
ATOM     11  C   UNL     1       2.333   2.386  17.854  0.00  0.00    +0.000 C 
ATOM     12  O   UNL     1       3.724   2.696  17.826  0.00  0.00    +0.000 OA
ENDBRANCH   5  12
BRANCH  10  13
ATOM     13  O   UNL     1       5.942   3.380  15.996  0.00  0.00    +0.000 OA
ATOM     14  H   UNL     1       5.636   3.214  15.104  0.00  0.00    +0.000 HD
ENDBRANCH  10  13
ENDBRANCH   1   7
BRANCH   3  15
ATOM     15  N   UNL     1       1.551   9.482  18.260  0.00  0.00    +0.000 NA
ATOM     16  C   UNL     1       0.311   9.512  17.876  0.00  0.00    +0.000 C 
BRANCH  16  17
ATOM     17  C   UNL     1      -0.687  10.552  18.269  0.00  0.00    +0.000 A 
ATOM     18  C   UNL     1      -0.308  11.333  19.379  0.00  0.00    +0.000 A 
ATOM     19  C   UNL     1      -1.197  12.236  19.954  0.00  0.00    +0.000 A 
ATOM     20  C   UNL     1      -2.512  12.247  19.514  0.00  0.00    +0.000 A 
ATOM     21  C   UNL     1      -2.919  11.476  18.414  0.00  0.00    +0.000 A 
ATOM     22  C   UNL     1      -4.251  11.490  17.982  0.00  0.00    +0.000 A 
ATOM     23  C   UNL     1      -4.541  11.331  16.638  0.00  0.00    +0.000 A 
ATOM     24  C   UNL     1      -3.570  10.790  15.812  0.00  0.00    +0.000 A 
ATOM     25  C   UNL     1      -2.346  10.371  16.357  0.00  0.00    +0.000 A 
ATOM     26  C   UNL     1      -1.961  10.756  17.666  0.00  0.00    +0.000 A 
BRANCH  20  27
ATOM     27  O   UNL     1      -3.396  13.133  20.076  0.00  0.00    +0.000 OA
ATOM     28  H   UNL     1      -2.975  14.009  20.089  0.00  0.00    +0.000 HD
ENDBRANCH  20  27
ENDBRANCH  16  17
ENDBRANCH   3  15
TORSDOF 6
ENDMDL
MODEL 4
REMARK VINA RESULT:      -8.2      1.886      9.169
REMARK  Name = 
REMARK  7 active torsions:
REMARK  status: ('A' for Active; 'I' for Inactive)
REMARK    1  A    between atoms: C_1  and  O_2
REMARK    2  A    between atoms: O_2  and  C_3
REMARK    3  A    between atoms: C_5  and  C_6
REMARK    4  A    between atoms: N_8  and  N_9
REMARK    5  A    between atoms: C_10  and  C_11
REMARK    6  A    between atoms: C_14  and  O_15
REMARK    7  A    between atoms: C_24  and  O_25
REMARK                            x       y       z     vdW  Elec       q    Type
REMARK                         _______ _______ _______ _____ _____    ______ ____
ROOT
ATOM      1  C   UNL     1       0.477   9.761  18.867  0.00  0.00    +0.000 C 
ATOM      2  O   UNL     1       0.863   9.582  20.027  0.00  0.00    +0.000 OA
ATOM      3  N   UNL     1       1.216   9.419  17.720  0.00  0.00    +0.000 N 
ATOM      4  H   UNL     1       0.894   9.596  16.774  0.00  0.00    +0.000 HD
ENDROOT
BRANCH   1   7
ATOM      5  C   UNL     1      -2.881  10.589  17.242  0.00  0.00    +0.000 A 
ATOM      6  C   UNL     1      -1.632  10.023  17.547  0.00  0.00    +0.000 A 
ATOM      7  C   UNL     1      -0.849  10.468  18.630  0.00  0.00    +0.000 A 
ATOM      8  C   UNL     1      -1.349  11.515  19.420  0.00  0.00    +0.000 A 
ATOM      9  C   UNL     1      -2.594  12.093  19.114  0.00  0.00    +0.000 A 
ATOM     10  C   UNL     1      -3.348  11.637  18.040  0.00  0.00    +0.000 A 
BRANCH   5  12
ATOM     11  C   UNL     1      -3.157  10.500  14.852  0.00  0.00    +0.000 C 
ATOM     12  O   UNL     1      -3.488  10.019  16.152  0.00  0.00    +0.000 OA
ENDBRANCH   5  12
BRANCH  10  13
ATOM     13  O   UNL     1      -4.529  12.243  17.797  0.00  0.00    +0.000 OA
ATOM     14  H   UNL     1      -5.239  11.607  17.888  0.00  0.00    +0.000 HD
ENDBRANCH  10  13
ENDBRANCH   1   7
BRANCH   3  15
ATOM     15  N   UNL     1       2.428   8.745  17.868  0.00  0.00    +0.000 NA
ATOM     16  C   UNL     1       2.377   7.448  17.840  0.00  0.00    +0.000 C 
BRANCH  16  17
ATOM     17  C   UNL     1       3.530   6.535  18.102  0.00  0.00    +0.000 A 
ATOM     18  C   UNL     1       4.737   6.933  17.493  0.00  0.00    +0.000 A 
ATOM     19  C   UNL     1       5.857   6.107  17.520  0.00  0.00    +0.000 A 
ATOM     20  C   UNL     1       5.723   4.821  18.021  0.00  0.00    +0.000 A 
ATOM     21  C   UNL     1       4.531   4.395  18.628  0.00  0.00    +0.000 A 
ATOM     22  C   UNL     1       4.405   3.092  19.126  0.00  0.00    +0.000 A 
ATOM     23  C   UNL     1       3.614   2.852  20.235  0.00  0.00    +0.000 A 
ATOM     24  C   UNL     1       2.677   3.807  20.598  0.00  0.00    +0.000 A 
ATOM     25  C   UNL     1       2.516   4.959  19.813  0.00  0.00    +0.000 A 
ATOM     26  C   UNL     1       3.480   5.316  18.836  0.00  0.00    +0.000 A 
BRANCH  20  27
ATOM     27  O   UNL     1       6.821   3.999  18.050  0.00  0.00    +0.000 OA
ATOM     28  H   UNL     1       6.757   3.441  18.844  0.00  0.00    +0.000 HD
ENDBRANCH  20  27
ENDBRANCH  16  17
ENDBRANCH   3  15
TORSDOF 6
ENDMDL
MODEL 5
REMARK VINA RESULT:      -8.0      1.477      9.119
REMARK  Name = 
REMARK  7 active torsions:
REMARK  status: ('A' for Active; 'I' for Inactive)
REMARK    1  A    between atoms: C_1  and  O_2
REMARK    2  A    between atoms: O_2  and  C_3
REMARK    3  A    between atoms: C_5  and  C_6
REMARK    4  A    between atoms: N_8  and  N_9
REMARK    5  A    between atoms: C_10  and  C_11
REMARK    6  A    between atoms: C_14  and  O_15
REMARK    7  A    between atoms: C_24  and  O_25
REMARK                            x       y       z     vdW  Elec       q    Type
REMARK                         _______ _______ _______ _____ _____    ______ ____
ROOT
ATOM      1  C   UNL     1       0.360   9.791  19.056  0.00  0.00    +0.000 C 
ATOM      2  O   UNL     1       0.757   9.439  20.171  0.00  0.00    +0.000 OA
ATOM      3  N   UNL     1       1.053   9.565  17.854  0.00  0.00    +0.000 N 
ATOM      4  H   UNL     1       0.723   9.884  16.948  0.00  0.00    +0.000 HD
ENDROOT
BRANCH   1   7
ATOM      5  C   UNL     1      -3.005  10.971  17.681  0.00  0.00    +0.000 A 
ATOM      6  C   UNL     1      -1.783  10.305  17.871  0.00  0.00    +0.000 A 
ATOM      7  C   UNL     1      -0.928  10.595  18.951  0.00  0.00    +0.000 A 
ATOM      8  C   UNL     1      -1.326  11.588  19.860  0.00  0.00    +0.000 A 
ATOM      9  C   UNL     1      -2.543  12.267  19.671  0.00  0.00    +0.000 A 
ATOM     10  C   UNL     1      -3.370  11.963  18.597  0.00  0.00    +0.000 A 
BRANCH   5  12
ATOM     11  C   UNL     1      -3.079  10.671  15.294  0.00  0.00    +0.000 C 
ATOM     12  O   UNL     1      -3.693  10.547  16.573  0.00  0.00    +0.000 OA
ENDBRANCH   5  12
BRANCH  10  13
ATOM     13  O   UNL     1      -4.520  12.658  18.469  0.00  0.00    +0.000 OA
ATOM     14  H   UNL     1      -4.668  12.863  17.546  0.00  0.00    +0.000 HD
ENDBRANCH  10  13
ENDBRANCH   1   7
BRANCH   3  15
ATOM     15  N   UNL     1       2.226   8.811  17.877  0.00  0.00    +0.000 NA
ATOM     16  C   UNL     1       2.110   7.548  17.603  0.00  0.00    +0.000 C 
BRANCH  16  17
ATOM     17  C   UNL     1       3.211   6.542  17.692  0.00  0.00    +0.000 A 
ATOM     18  C   UNL     1       4.506   7.085  17.582  0.00  0.00    +0.000 A 
ATOM     19  C   UNL     1       5.622   6.258  17.495  0.00  0.00    +0.000 A 
ATOM     20  C   UNL     1       5.429   4.892  17.362  0.00  0.00    +0.000 A 
ATOM     21  C   UNL     1       4.149   4.323  17.461  0.00  0.00    +0.000 A 
ATOM     22  C   UNL     1       3.966   2.942  17.321  0.00  0.00    +0.000 A 
ATOM     23  C   UNL     1       2.960   2.305  18.026  0.00  0.00    +0.000 A 
ATOM     24  C   UNL     1       1.933   3.073  18.550  0.00  0.00    +0.000 A 
ATOM     25  C   UNL     1       1.905   4.456  18.313  0.00  0.00    +0.000 A 
ATOM     26  C   UNL     1       3.045   5.132  17.810  0.00  0.00    +0.000 A 
BRANCH  20  27
ATOM     27  O   UNL     1       6.524   4.069  17.273  0.00  0.00    +0.000 OA
ATOM     28  H   UNL     1       6.256   3.264  16.799  0.00  0.00    +0.000 HD
ENDBRANCH  20  27
ENDBRANCH  16  17
ENDBRANCH   3  15
TORSDOF 6
ENDMDL
MODEL 6
REMARK VINA RESULT:      -8.0      1.667      3.027
REMARK  Name = 
REMARK  7 active torsions:
REMARK  status: ('A' for Active; 'I' for Inactive)
REMARK    1  A    between atoms: C_1  and  O_2
REMARK    2  A    between atoms: O_2  and  C_3
REMARK    3  A    between atoms: C_5  and  C_6
REMARK    4  A    between atoms: N_8  and  N_9
REMARK    5  A    between atoms: C_10  and  C_11
REMARK    6  A    between atoms: C_14  and  O_15
REMARK    7  A    between atoms: C_24  and  O_25
REMARK                            x       y       z     vdW  Elec       q    Type
REMARK                         _______ _______ _______ _____ _____    ______ ____
ROOT
ATOM      1  C   UNL     1       2.848   6.604  17.859  0.00  0.00    +0.000 C 
ATOM      2  O   UNL     1       1.861   5.882  18.030  0.00  0.00    +0.000 OA
ATOM      3  N   UNL     1       2.795   7.999  17.691  0.00  0.00    +0.000 N 
ATOM      4  H   UNL     1       3.615   8.574  17.527  0.00  0.00    +0.000 HD
ENDROOT
BRANCH   1   7
ATOM      5  C   UNL     1       6.598   6.304  17.188  0.00  0.00    +0.000 A 
ATOM      6  C   UNL     1       5.284   6.783  17.319  0.00  0.00    +0.000 A 
ATOM      7  C   UNL     1       4.222   5.961  17.740  0.00  0.00    +0.000 A 
ATOM      8  C   UNL     1       4.504   4.617  18.034  0.00  0.00    +0.000 A 
ATOM      9  C   UNL     1       5.814   4.128  17.896  0.00  0.00    +0.000 A 
ATOM     10  C   UNL     1       6.847   4.959  17.478  0.00  0.00    +0.000 A 
BRANCH   5  12
ATOM     11  C   UNL     1       7.935   8.240  17.696  0.00  0.00    +0.000 C 
ATOM     12  O   UNL     1       7.489   7.258  16.766  0.00  0.00    +0.000 OA
ENDBRANCH   5  12
BRANCH  10  13
ATOM     13  O   UNL     1       8.079   4.423  17.358  0.00  0.00    +0.000 OA
ATOM     14  H   UNL     1       8.442   4.257  18.228  0.00  0.00    +0.000 HD
ENDBRANCH  10  13
ENDBRANCH   1   7
BRANCH   3  15
ATOM     15  N   UNL     1       1.570   8.653  17.816  0.00  0.00    +0.000 NA
ATOM     16  C   UNL     1       1.446   9.467  18.819  0.00  0.00    +0.000 C 
BRANCH  16  17
ATOM     17  C   UNL     1       0.187  10.171  19.207  0.00  0.00    +0.000 A 
ATOM     18  C   UNL     1      -0.578  10.637  18.120  0.00  0.00    +0.000 A 
ATOM     19  C   UNL     1      -1.696  11.441  18.326  0.00  0.00    +0.000 A 
ATOM     20  C   UNL     1      -1.956  11.903  19.607  0.00  0.00    +0.000 A 
ATOM     21  C   UNL     1      -1.206  11.460  20.708  0.00  0.00    +0.000 A 
ATOM     22  C   UNL     1      -1.475  11.938  21.997  0.00  0.00    +0.000 A 
ATOM     23  C   UNL     1      -1.276  11.115  23.092  0.00  0.00    +0.000 A 
ATOM     24  C   UNL     1      -0.474   9.996  22.940  0.00  0.00    +0.000 A 
ATOM     25  C   UNL     1       0.155   9.751  21.710  0.00  0.00    +0.000 A 
ATOM     26  C   UNL     1      -0.239  10.444  20.538  0.00  0.00    +0.000 A 
BRANCH  20  27
ATOM     27  O   UNL     1      -3.054  12.698  19.819  0.00  0.00    +0.000 OA
ATOM     28  H   UNL     1      -3.574  12.304  20.540  0.00  0.00    +0.000 HD
ENDBRANCH  20  27
ENDBRANCH  16  17
ENDBRANCH   3  15
TORSDOF 6
ENDMDL
MODEL 7
REMARK VINA RESULT:      -7.9      1.825      3.416
REMARK  Name = 
REMARK  7 active torsions:
REMARK  status: ('A' for Active; 'I' for Inactive)
REMARK    1  A    between atoms: C_1  and  O_2
REMARK    2  A    between atoms: O_2  and  C_3
REMARK    3  A    between atoms: C_5  and  C_6
REMARK    4  A    between atoms: N_8  and  N_9
REMARK    5  A    between atoms: C_10  and  C_11
REMARK    6  A    between atoms: C_14  and  O_15
REMARK    7  A    between atoms: C_24  and  O_25
REMARK                            x       y       z     vdW  Elec       q    Type
REMARK                         _______ _______ _______ _____ _____    ______ ____
ROOT
ATOM      1  C   UNL     1       2.884   7.084  17.902  0.00  0.00    +0.000 C 
ATOM      2  O   UNL     1       1.844   6.419  17.918  0.00  0.00    +0.000 OA
ATOM      3  N   UNL     1       2.933   8.485  17.800  0.00  0.00    +0.000 N 
ATOM      4  H   UNL     1       3.799   9.014  17.764  0.00  0.00    +0.000 HD
ENDROOT
BRANCH   1   7
ATOM      5  C   UNL     1       5.500   4.439  18.778  0.00  0.00    +0.000 A 
ATOM      6  C   UNL     1       4.320   5.198  18.702  0.00  0.00    +0.000 A 
ATOM      7  C   UNL     1       4.223   6.361  17.915  0.00  0.00    +0.000 A 
ATOM      8  C   UNL     1       5.355   6.763  17.189  0.00  0.00    +0.000 A 
ATOM      9  C   UNL     1       6.543   6.015  17.268  0.00  0.00    +0.000 A 
ATOM     10  C   UNL     1       6.615   4.870  18.052  0.00  0.00    +0.000 A 
BRANCH   5  12
ATOM     11  C   UNL     1       4.222   2.538  19.518  0.00  0.00    +0.000 C 
ATOM     12  O   UNL     1       5.394   3.343  19.597  0.00  0.00    +0.000 OA
ENDBRANCH   5  12
BRANCH  10  13
ATOM     13  O   UNL     1       7.788   4.204  18.091  0.00  0.00    +0.000 OA
ATOM     14  H   UNL     1       8.466   4.727  17.663  0.00  0.00    +0.000 HD
ENDBRANCH  10  13
ENDBRANCH   1   7
BRANCH   3  15
ATOM     15  N   UNL     1       1.741   9.210  17.811  0.00  0.00    +0.000 NA
ATOM     16  C   UNL     1       1.276   9.544  18.976  0.00  0.00    +0.000 C 
BRANCH  16  17
ATOM     17  C   UNL     1      -0.040  10.209  19.219  0.00  0.00    +0.000 A 
ATOM     18  C   UNL     1      -0.809  10.421  18.058  0.00  0.00    +0.000 A 
ATOM     19  C   UNL     1      -1.985  11.162  18.106  0.00  0.00    +0.000 A 
ATOM     20  C   UNL     1      -2.309  11.820  19.283  0.00  0.00    +0.000 A 
ATOM     21  C   UNL     1      -1.558  11.632  20.454  0.00  0.00    +0.000 A 
ATOM     22  C   UNL     1      -1.892  12.306  21.635  0.00  0.00    +0.000 A 
ATOM     23  C   UNL     1      -1.662  11.704  22.860  0.00  0.00    +0.000 A 
ATOM     24  C   UNL     1      -0.779  10.638  22.917  0.00  0.00    +0.000 A 
ATOM     25  C   UNL     1      -0.104  10.230  21.757  0.00  0.00    +0.000 A 
ATOM     26  C   UNL     1      -0.517  10.678  20.476  0.00  0.00    +0.000 A 
BRANCH  20  27
ATOM     27  O   UNL     1      -3.467  12.556  19.339  0.00  0.00    +0.000 OA
ATOM     28  H   UNL     1      -3.584  12.860  20.254  0.00  0.00    +0.000 HD
ENDBRANCH  20  27
ENDBRANCH  16  17
ENDBRANCH   3  15
TORSDOF 6
ENDMDL
MODEL 8
REMARK VINA RESULT:      -7.8      1.786      1.982
REMARK  Name = 
REMARK  7 active torsions:
REMARK  status: ('A' for Active; 'I' for Inactive)
REMARK    1  A    between atoms: C_1  and  O_2
REMARK    2  A    between atoms: O_2  and  C_3
REMARK    3  A    between atoms: C_5  and  C_6
REMARK    4  A    between atoms: N_8  and  N_9
REMARK    5  A    between atoms: C_10  and  C_11
REMARK    6  A    between atoms: C_14  and  O_15
REMARK    7  A    between atoms: C_24  and  O_25
REMARK                            x       y       z     vdW  Elec       q    Type
REMARK                         _______ _______ _______ _____ _____    ______ ____
ROOT
ATOM      1  C   UNL     1       2.633   7.188  18.962  0.00  0.00    +0.000 C 
ATOM      2  O   UNL     1       2.830   7.769  17.890  0.00  0.00    +0.000 OA
ATOM      3  N   UNL     1       1.976   7.756  20.067  0.00  0.00    +0.000 N 
ATOM      4  H   UNL     1       1.844   7.272  20.950  0.00  0.00    +0.000 HD
ENDROOT
BRANCH   1   7
ATOM      5  C   UNL     1       5.190   4.348  19.015  0.00  0.00    +0.000 A 
ATOM      6  C   UNL     1       4.558   5.592  18.857  0.00  0.00    +0.000 A 
ATOM      7  C   UNL     1       3.196   5.788  19.158  0.00  0.00    +0.000 A 
ATOM      8  C   UNL     1       2.460   4.689  19.629  0.00  0.00    +0.000 A 
ATOM      9  C   UNL     1       3.084   3.438  19.780  0.00  0.00    +0.000 A 
ATOM     10  C   UNL     1       4.429   3.270  19.476  0.00  0.00    +0.000 A 
BRANCH   5  12
ATOM     11  C   UNL     1       6.878   4.731  17.341  0.00  0.00    +0.000 C 
ATOM     12  O   UNL     1       6.518   4.361  18.669  0.00  0.00    +0.000 OA
ENDBRANCH   5  12
BRANCH  10  13
ATOM     13  O   UNL     1       4.962   2.041  19.634  0.00  0.00    +0.000 OA
ATOM     14  H   UNL     1       5.518   1.834  18.883  0.00  0.00    +0.000 HD
ENDBRANCH  10  13
ENDBRANCH   1   7
BRANCH   3  15
ATOM     15  N   UNL     1       1.413   9.026  19.944  0.00  0.00    +0.000 NA
ATOM     16  C   UNL     1       0.117   9.093  19.986  0.00  0.00    +0.000 C 
BRANCH  16  17
ATOM     17  C   UNL     1      -0.689  10.328  19.751  0.00  0.00    +0.000 A 
ATOM     18  C   UNL     1      -0.545  11.316  20.746  0.00  0.00    +0.000 A 
ATOM     19  C   UNL     1      -1.345  12.454  20.744  0.00  0.00    +0.000 A 
ATOM     20  C   UNL     1      -2.392  12.530  19.838  0.00  0.00    +0.000 A 
ATOM     21  C   UNL     1      -2.564  11.558  18.840  0.00  0.00    +0.000 A 
ATOM     22  C   UNL     1      -3.628  11.642  17.933  0.00  0.00    +0.000 A 
ATOM     23  C   UNL     1      -3.471  11.172  16.641  0.00  0.00    +0.000 A 
ATOM     24  C   UNL     1      -2.426  10.301  16.377  0.00  0.00    +0.000 A 
ATOM     25  C   UNL     1      -1.591   9.877  17.422  0.00  0.00    +0.000 A 
ATOM     26  C   UNL     1      -1.599  10.539  18.676  0.00  0.00    +0.000 A 
BRANCH  20  27
ATOM     27  O   UNL     1      -3.188  13.648  19.830  0.00  0.00    +0.000 OA
ATOM     28  H   UNL     1      -4.110  13.358  19.725  0.00  0.00    +0.000 HD
ENDBRANCH  20  27
ENDBRANCH  16  17
ENDBRANCH   3  15
TORSDOF 6
ENDMDL
MODEL 9
REMARK VINA RESULT:      -7.8      1.783      2.682
REMARK  Name = 
REMARK  7 active torsions:
REMARK  status: ('A' for Active; 'I' for Inactive)
REMARK    1  A    between atoms: C_1  and  O_2
REMARK    2  A    between atoms: O_2  and  C_3
REMARK    3  A    between atoms: C_5  and  C_6
REMARK    4  A    between atoms: N_8  and  N_9
REMARK    5  A    between atoms: C_10  and  C_11
REMARK    6  A    between atoms: C_14  and  O_15
REMARK    7  A    between atoms: C_24  and  O_25
REMARK                            x       y       z     vdW  Elec       q    Type
REMARK                         _______ _______ _______ _____ _____    ______ ____
ROOT
ATOM      1  C   UNL     1       2.536   7.822  18.233  0.00  0.00    +0.000 C 
ATOM      2  O   UNL     1       2.584   8.326  17.107  0.00  0.00    +0.000 OA
ATOM      3  N   UNL     1       1.867   8.389  19.332  0.00  0.00    +0.000 N 
ATOM      4  H   UNL     1       1.858   7.972  20.258  0.00  0.00    +0.000 HD
ENDROOT
BRANCH   1   7
ATOM      5  C   UNL     1       3.408   4.447  19.799  0.00  0.00    +0.000 A 
ATOM      6  C   UNL     1       2.791   5.667  19.478  0.00  0.00    +0.000 A 
ATOM      7  C   UNL     1       3.308   6.538  18.501  0.00  0.00    +0.000 A 
ATOM      8  C   UNL     1       4.483   6.158  17.834  0.00  0.00    +0.000 A 
ATOM      9  C   UNL     1       5.113   4.943  18.156  0.00  0.00    +0.000 A 
ATOM     10  C   UNL     1       4.584   4.100  19.125  0.00  0.00    +0.000 A 
BRANCH   5  12
ATOM     11  C   UNL     1       1.475   3.184  20.480  0.00  0.00    +0.000 C 
ATOM     12  O   UNL     1       2.752   3.741  20.776  0.00  0.00    +0.000 OA
ENDBRANCH   5  12
BRANCH  10  13
ATOM     13  O   UNL     1       5.243   2.954  19.393  0.00  0.00    +0.000 OA
ATOM     14  H   UNL     1       5.969   3.134  19.989  0.00  0.00    +0.000 HD
ENDBRANCH  10  13
ENDBRANCH   1   7
BRANCH   3  15
ATOM     15  N   UNL     1       1.118   9.550  19.147  0.00  0.00    +0.000 NA
ATOM     16  C   UNL     1      -0.071   9.564  19.667  0.00  0.00    +0.000 C 
BRANCH  16  17
ATOM     17  C   UNL     1      -1.079  10.651  19.484  0.00  0.00    +0.000 A 
ATOM     18  C   UNL     1      -1.102  11.605  20.520  0.00  0.00    +0.000 A 
ATOM     19  C   UNL     1      -2.086  12.587  20.566  0.00  0.00    +0.000 A 
ATOM     20  C   UNL     1      -3.135  12.520  19.661  0.00  0.00    +0.000 A 
ATOM     21  C   UNL     1      -3.142  11.577  18.622  0.00  0.00    +0.000 A 
ATOM     22  C   UNL     1      -4.210  11.515  17.718  0.00  0.00    +0.000 A 
ATOM     23  C   UNL     1      -3.981  11.135  16.407  0.00  0.00    +0.000 A 
ATOM     24  C   UNL     1      -2.803  10.469  16.108  0.00  0.00    +0.000 A 
ATOM     25  C   UNL     1      -1.902  10.150  17.136  0.00  0.00    +0.000 A 
ATOM     26  C   UNL     1      -2.017  10.747  18.417  0.00  0.00    +0.000 A 
BRANCH  20  27
ATOM     27  O   UNL     1      -4.111  13.484  19.700  0.00  0.00    +0.000 OA
ATOM     28  H   UNL     1      -4.505  13.476  20.589  0.00  0.00    +0.000 HD
ENDBRANCH  20  27
ENDBRANCH  16  17
ENDBRANCH   3  15
TORSDOF 6
ENDMDL
