MODEL 1
REMARK VINA RESULT:      -8.2      0.000      0.000
REMARK  Name = 
REMARK  7 active torsions:
REMARK  status: ('A' for Active; 'I' for Inactive)
REMARK    1  A    between atoms: C_1  and  C_2
REMARK    2  A    between atoms: C_7  and  C_8
REMARK    3  A    between atoms: C_12  and  C_13
REMARK    4  A    between atoms: N_15  and  C_16
REMARK    5  A    between atoms: C_16  and  C_17
REMARK    6  A    between atoms: C_16  and  C_24
REMARK    7  A    between atoms: C_17  and  C_18
REMARK                            x       y       z     vdW  Elec       q    Type
REMARK                         _______ _______ _______ _____ _____    ______ ____
ROOT
ATOM      1  C   UNL     1       3.709   5.264  17.066  0.00  0.00    +0.000 C 
ATOM      2  O   UNL     1       2.813   4.429  17.061  0.00  0.00    +0.000 OA
ATOM      3  N   UNL     1       3.559   6.509  17.656  0.00  0.00    +0.000 N 
ATOM      4  H   UNL     1       4.407   6.942  18.003  0.00  0.00    +0.000 HD
ENDROOT
BRANCH   1  13
ATOM      5  C   UNL     1       6.086   5.186  19.639  0.00  0.00    +0.000 C 
ATOM      6  C   UNL     1       6.731   4.821  18.355  0.00  0.00    +0.000 A 
ATOM      7  N   UNL     1       8.027   4.481  18.367  0.00  0.00    +0.000 NA
ATOM      8  O   UNL     1       8.369   4.253  17.050  0.00  0.00    +0.000 OA
ATOM      9  C   UNL     1       7.287   4.454  16.253  0.00  0.00    +0.000 A 
ATOM     10  N   UNL     1       7.333   4.321  14.919  0.00  0.00    +0.000 NA
ATOM     11  C   UNL     1       6.171   4.546  14.276  0.00  0.00    +0.000 A 
ATOM     12  C   UNL     1       4.995   4.875  14.952  0.00  0.00    +0.000 A 
ATOM     13  C   UNL     1       4.983   5.015  16.350  0.00  0.00    +0.000 A 
ATOM     14  C   UNL     1       6.194   4.798  17.035  0.00  0.00    +0.000 A 
BRANCH  11  15
ATOM     15  C   UNL     1       6.175   4.387  12.773  0.00  0.00    +0.000 C 
ATOM     16  C   UNL     1       7.143   3.465  12.070  0.00  0.00    +0.000 C 
ATOM     17  C   UNL     1       5.702   3.072  12.192  0.00  0.00    +0.000 C 
ENDBRANCH  11  15
ENDBRANCH   1  13
BRANCH   3  18
ATOM     18  C   UNL     1       2.334   6.823  18.416  0.00  0.00    +0.000 C 
BRANCH  18  19
ATOM     19  C   UNL     1       2.003   8.332  18.359  0.00  0.00    +0.000 C 
ATOM     20  N   UNL     1       1.422   8.866  19.479  0.00  0.00    +0.000 N 
ATOM     21  O   UNL     1       2.064   8.993  17.324  0.00  0.00    +0.000 OA
ATOM     22  H   UNL     1       1.638   8.442  20.370  0.00  0.00    +0.000 HD
ATOM     23  H   UNL     1       1.302   9.871  19.464  0.00  0.00    +0.000 HD
ENDBRANCH  18  19
BRANCH  18  24
ATOM     24  C   UNL     1       2.492   6.480  19.911  0.00  0.00    +0.000 C 
BRANCH  24  25
ATOM     25  C   UNL     1       2.100   5.070  20.296  0.00  0.00    +0.000 A 
ATOM     26  C   UNL     1       2.687   4.453  21.412  0.00  0.00    +0.000 A 
ATOM     27  C   UNL     1       2.276   3.181  21.818  0.00  0.00    +0.000 A 
ATOM     28  C   UNL     1       1.276   2.513  21.115  0.00  0.00    +0.000 A 
ATOM     29  C   UNL     1       0.686   3.116  20.006  0.00  0.00    +0.000 A 
ATOM     30  C   UNL     1       1.093   4.389  19.600  0.00  0.00    +0.000 A 
ENDBRANCH  24  25
ENDBRANCH  18  24
ENDBRANCH   3  18
TORSDOF 6
ENDMDL
MODEL 2
REMARK VINA RESULT:      -7.8      2.373      7.293
REMARK  Name = 
REMARK  7 active torsions:
REMARK  status: ('A' for Active; 'I' for Inactive)
REMARK    1  A    between atoms: C_1  and  C_2
REMARK    2  A    between atoms: C_7  and  C_8
REMARK    3  A    between atoms: C_12  and  C_13
REMARK    4  A    between atoms: N_15  and  C_16
REMARK    5  A    between atoms: C_16  and  C_17
REMARK    6  A    between atoms: C_16  and  C_24
REMARK    7  A    between atoms: C_17  and  C_18
REMARK                            x       y       z     vdW  Elec       q    Type
REMARK                         _______ _______ _______ _____ _____    ______ ____
ROOT
ATOM      1  C   UNL     1       4.899   4.625  19.032  0.00  0.00    +0.000 C 
ATOM      2  O   UNL     1       5.550   3.682  19.465  0.00  0.00    +0.000 OA
ATOM      3  N   UNL     1       5.452   5.594  18.211  0.00  0.00    +0.000 N 
ATOM      4  H   UNL     1       4.815   6.050  17.569  0.00  0.00    +0.000 HD
ENDROOT
BRANCH   1  13
ATOM      5  C   UNL     1       3.320   1.657  18.045  0.00  0.00    +0.000 C 
ATOM      6  C   UNL     1       2.367   2.496  18.809  0.00  0.00    +0.000 A 
ATOM      7  N   UNL     1       1.140   2.012  19.048  0.00  0.00    +0.000 NA
ATOM      8  O   UNL     1       0.463   3.013  19.714  0.00  0.00    +0.000 OA
ATOM      9  C   UNL     1       1.276   4.090  19.874  0.00  0.00    +0.000 A 
ATOM     10  N   UNL     1       0.874   5.220  20.475  0.00  0.00    +0.000 NA
ATOM     11  C   UNL     1       1.804   6.189  20.563  0.00  0.00    +0.000 A 
ATOM     12  C   UNL     1       3.104   6.023  20.081  0.00  0.00    +0.000 A 
ATOM     13  C   UNL     1       3.491   4.829  19.448  0.00  0.00    +0.000 A 
ATOM     14  C   UNL     1       2.524   3.812  19.335  0.00  0.00    +0.000 A 
BRANCH  11  15
ATOM     15  C   UNL     1       1.398   7.473  21.250  0.00  0.00    +0.000 C 
ATOM     16  C   UNL     1       1.154   8.748  20.478  0.00  0.00    +0.000 C 
ATOM     17  C   UNL     1      -0.009   7.984  21.035  0.00  0.00    +0.000 C 
ENDBRANCH  11  15
ENDBRANCH   1  13
BRANCH   3  18
ATOM     18  C   UNL     1       6.838   5.447  17.726  0.00  0.00    +0.000 C 
BRANCH  18  19
ATOM     19  C   UNL     1       7.845   6.148  18.666  0.00  0.00    +0.000 C 
ATOM     20  N   UNL     1       8.155   5.484  19.823  0.00  0.00    +0.000 N 
ATOM     21  O   UNL     1       8.211   7.311  18.509  0.00  0.00    +0.000 OA
ATOM     22  H   UNL     1       8.109   4.475  19.814  0.00  0.00    +0.000 HD
ATOM     23  H   UNL     1       8.888   5.906  20.379  0.00  0.00    +0.000 HD
ENDBRANCH  18  19
BRANCH  18  24
ATOM     24  C   UNL     1       7.025   6.098  16.341  0.00  0.00    +0.000 C 
BRANCH  24  25
ATOM     25  C   UNL     1       6.728   5.203  15.159  0.00  0.00    +0.000 A 
ATOM     26  C   UNL     1       5.598   4.371  15.167  0.00  0.00    +0.000 A 
ATOM     27  C   UNL     1       5.276   3.597  14.050  0.00  0.00    +0.000 A 
ATOM     28  C   UNL     1       6.080   3.647  12.912  0.00  0.00    +0.000 A 
ATOM     29  C   UNL     1       7.205   4.468  12.892  0.00  0.00    +0.000 A 
ATOM     30  C   UNL     1       7.526   5.245  14.007  0.00  0.00    +0.000 A 
ENDBRANCH  24  25
ENDBRANCH  18  24
ENDBRANCH   3  18
TORSDOF 6
ENDMDL
MODEL 3
REMARK VINA RESULT:      -7.7      2.167      7.618
REMARK  Name = 
REMARK  7 active torsions:
REMARK  status: ('A' for Active; 'I' for Inactive)
REMARK    1  A    between atoms: C_1  and  C_2
REMARK    2  A    between atoms: C_7  and  C_8
REMARK    3  A    between atoms: C_12  and  C_13
REMARK    4  A    between atoms: N_15  and  C_16
REMARK    5  A    between atoms: C_16  and  C_17
REMARK    6  A    between atoms: C_16  and  C_24
REMARK    7  A    between atoms: C_17  and  C_18
REMARK                            x       y       z     vdW  Elec       q    Type
REMARK                         _______ _______ _______ _____ _____    ______ ____
ROOT
ATOM      1  C   UNL     1       3.702   4.657  17.631  0.00  0.00    +0.000 C 
ATOM      2  O   UNL     1       3.266   4.029  16.675  0.00  0.00    +0.000 OA
ATOM      3  N   UNL     1       5.047   4.963  17.766  0.00  0.00    +0.000 N 
ATOM      4  H   UNL     1       5.263   5.803  18.291  0.00  0.00    +0.000 HD
ENDROOT
BRANCH   1  13
ATOM      5  C   UNL     1       2.732   1.584  19.003  0.00  0.00    +0.000 C 
ATOM      6  C   UNL     1       2.222   2.688  19.850  0.00  0.00    +0.000 A 
ATOM      7  N   UNL     1       1.559   2.379  20.972  0.00  0.00    +0.000 NA
ATOM      8  O   UNL     1       1.158   3.581  21.517  0.00  0.00    +0.000 OA
ATOM      9  C   UNL     1       1.577   4.605  20.730  0.00  0.00    +0.000 A 
ATOM     10  N   UNL     1       1.313   5.891  21.008  0.00  0.00    +0.000 NA
ATOM     11  C   UNL     1       1.809   6.784  20.132  0.00  0.00    +0.000 A 
ATOM     12  C   UNL     1       2.564   6.403  19.022  0.00  0.00    +0.000 A 
ATOM     13  C   UNL     1       2.815   5.046  18.753  0.00  0.00    +0.000 A 
ATOM     14  C   UNL     1       2.290   4.098  19.652  0.00  0.00    +0.000 A 
BRANCH  11  15
ATOM     15  C   UNL     1       1.551   8.246  20.419  0.00  0.00    +0.000 C 
ATOM     16  C   UNL     1       0.254   8.721  21.031  0.00  0.00    +0.000 C 
ATOM     17  C   UNL     1       1.499   8.692  21.864  0.00  0.00    +0.000 C 
ENDBRANCH  11  15
ENDBRANCH   1  13
BRANCH   3  18
ATOM     18  C   UNL     1       5.991   4.639  16.679  0.00  0.00    +0.000 C 
BRANCH  18  19
ATOM     19  C   UNL     1       7.438   5.044  17.044  0.00  0.00    +0.000 C 
ATOM     20  N   UNL     1       7.762   6.361  16.851  0.00  0.00    +0.000 N 
ATOM     21  O   UNL     1       8.318   4.227  17.306  0.00  0.00    +0.000 OA
ATOM     22  H   UNL     1       7.024   7.046  16.930  0.00  0.00    +0.000 HD
ATOM     23  H   UNL     1       8.679   6.632  17.186  0.00  0.00    +0.000 HD
ENDBRANCH  18  19
BRANCH  18  24
ATOM     24  C   UNL     1       5.649   5.404  15.386  0.00  0.00    +0.000 C 
BRANCH  24  25
ATOM     25  C   UNL     1       6.098   4.740  14.103  0.00  0.00    +0.000 A 
ATOM     26  C   UNL     1       5.303   3.752  13.501  0.00  0.00    +0.000 A 
ATOM     27  C   UNL     1       5.674   3.188  12.279  0.00  0.00    +0.000 A 
ATOM     28  C   UNL     1       6.841   3.606  11.643  0.00  0.00    +0.000 A 
ATOM     29  C   UNL     1       7.639   4.586  12.230  0.00  0.00    +0.000 A 
ATOM     30  C   UNL     1       7.268   5.153  13.451  0.00  0.00    +0.000 A 
ENDBRANCH  24  25
ENDBRANCH  18  24
ENDBRANCH   3  18
TORSDOF 6
ENDMDL
MODEL 4
REMARK VINA RESULT:      -7.7      2.271      7.623
REMARK  Name = 
REMARK  7 active torsions:
REMARK  status: ('A' for Active; 'I' for Inactive)
REMARK    1  A    between atoms: C_1  and  C_2
REMARK    2  A    between atoms: C_7  and  C_8
REMARK    3  A    between atoms: C_12  and  C_13
REMARK    4  A    between atoms: N_15  and  C_16
REMARK    5  A    between atoms: C_16  and  C_17
REMARK    6  A    between atoms: C_16  and  C_24
REMARK    7  A    between atoms: C_17  and  C_18
REMARK                            x       y       z     vdW  Elec       q    Type
REMARK                         _______ _______ _______ _____ _____    ______ ____
ROOT
ATOM      1  C   UNL     1       4.775   4.755  18.678  0.00  0.00    +0.000 C 
ATOM      2  O   UNL     1       5.657   4.188  19.311  0.00  0.00    +0.000 OA
ATOM      3  N   UNL     1       4.966   5.209  17.383  0.00  0.00    +0.000 N 
ATOM      4  H   UNL     1       4.139   5.252  16.799  0.00  0.00    +0.000 HD
ENDROOT
BRANCH   1  13
ATOM      5  C   UNL     1       3.336   1.604  19.199  0.00  0.00    +0.000 C 
ATOM      6  C   UNL     1       2.483   2.647  19.816  0.00  0.00    +0.000 A 
ATOM      7  N   UNL     1       1.389   2.263  20.488  0.00  0.00    +0.000 NA
ATOM      8  O   UNL     1       0.768   3.425  20.894  0.00  0.00    +0.000 OA
ATOM      9  C   UNL     1       1.481   4.500  20.470  0.00  0.00    +0.000 A 
ATOM     10  N   UNL     1       1.101   5.765  20.707  0.00  0.00    +0.000 NA
ATOM     11  C   UNL     1       1.925   6.715  20.228  0.00  0.00    +0.000 A 
ATOM     12  C   UNL     1       3.105   6.408  19.549  0.00  0.00    +0.000 A 
ATOM     13  C   UNL     1       3.471   5.072  19.309  0.00  0.00    +0.000 A 
ATOM     14  C   UNL     1       2.611   4.067  19.791  0.00  0.00    +0.000 A 
BRANCH  11  15
ATOM     15  C   UNL     1       1.543   8.154  20.491  0.00  0.00    +0.000 C 
ATOM     16  C   UNL     1       0.288   8.520  21.249  0.00  0.00    +0.000 C 
ATOM     17  C   UNL     1       1.624   8.667  21.913  0.00  0.00    +0.000 C 
ENDBRANCH  11  15
ENDBRANCH   1  13
BRANCH   3  18
ATOM     18  C   UNL     1       6.224   4.906  16.673  0.00  0.00    +0.000 C 
BRANCH  18  19
ATOM     19  C   UNL     1       7.460   5.291  17.518  0.00  0.00    +0.000 C 
ATOM     20  N   UNL     1       8.245   4.254  17.948  0.00  0.00    +0.000 N 
ATOM     21  O   UNL     1       7.645   6.424  17.958  0.00  0.00    +0.000 OA
ATOM     22  H   UNL     1       8.277   3.420  17.379  0.00  0.00    +0.000 HD
ATOM     23  H   UNL     1       9.101   4.527  18.414  0.00  0.00    +0.000 HD
ENDBRANCH  18  19
BRANCH  18  24
ATOM     24  C   UNL     1       6.340   5.708  15.361  0.00  0.00    +0.000 C 
BRANCH  24  25
ATOM     25  C   UNL     1       6.450   4.876  14.102  0.00  0.00    +0.000 A 
ATOM     26  C   UNL     1       5.442   3.957  13.771  0.00  0.00    +0.000 A 
ATOM     27  C   UNL     1       5.499   3.241  12.574  0.00  0.00    +0.000 A 
ATOM     28  C   UNL     1       6.562   3.435  11.694  0.00  0.00    +0.000 A 
ATOM     29  C   UNL     1       7.568   4.345  12.012  0.00  0.00    +0.000 A 
ATOM     30  C   UNL     1       7.512   5.065  13.207  0.00  0.00    +0.000 A 
ENDBRANCH  24  25
ENDBRANCH  18  24
ENDBRANCH   3  18
TORSDOF 6
ENDMDL
MODEL 5
REMARK VINA RESULT:      -7.6      3.132      5.303
REMARK  Name = 
REMARK  7 active torsions:
REMARK  status: ('A' for Active; 'I' for Inactive)
REMARK    1  A    between atoms: C_1  and  C_2
REMARK    2  A    between atoms: C_7  and  C_8
REMARK    3  A    between atoms: C_12  and  C_13
REMARK    4  A    between atoms: N_15  and  C_16
REMARK    5  A    between atoms: C_16  and  C_17
REMARK    6  A    between atoms: C_16  and  C_24
REMARK    7  A    between atoms: C_17  and  C_18
REMARK                            x       y       z     vdW  Elec       q    Type
REMARK                         _______ _______ _______ _____ _____    ______ ____
ROOT
ATOM      1  C   UNL     1       2.444   6.384  19.815  0.00  0.00    +0.000 C 
ATOM      2  O   UNL     1       1.702   6.215  20.773  0.00  0.00    +0.000 OA
ATOM      3  N   UNL     1       2.333   7.480  18.974  0.00  0.00    +0.000 N 
ATOM      4  H   UNL     1       3.187   7.778  18.516  0.00  0.00    +0.000 HD
ENDROOT
BRANCH   1  13
ATOM      5  C   UNL     1       0.691   3.366  20.117  0.00  0.00    +0.000 C 
ATOM      6  C   UNL     1       2.035   3.105  19.551  0.00  0.00    +0.000 A 
ATOM      7  N   UNL     1       2.348   1.849  19.204  0.00  0.00    +0.000 NA
ATOM      8  O   UNL     1       3.657   1.892  18.770  0.00  0.00    +0.000 OA
ATOM      9  C   UNL     1       4.127   3.164  18.855  0.00  0.00    +0.000 A 
ATOM     10  N   UNL     1       5.381   3.499  18.515  0.00  0.00    +0.000 NA
ATOM     11  C   UNL     1       5.686   4.803  18.648  0.00  0.00    +0.000 A 
ATOM     12  C   UNL     1       4.756   5.747  19.089  0.00  0.00    +0.000 A 
ATOM     13  C   UNL     1       3.453   5.362  19.446  0.00  0.00    +0.000 A 
ATOM     14  C   UNL     1       3.123   3.998  19.327  0.00  0.00    +0.000 A 
BRANCH  11  15
ATOM     15  C   UNL     1       7.083   5.227  18.256  0.00  0.00    +0.000 C 
ATOM     16  C   UNL     1       7.500   6.679  18.234  0.00  0.00    +0.000 C 
ATOM     17  C   UNL     1       7.988   5.785  19.333  0.00  0.00    +0.000 C 
ENDBRANCH  11  15
ENDBRANCH   1  13
BRANCH   3  18
ATOM     18  C   UNL     1       1.377   8.558  19.288  0.00  0.00    +0.000 C 
BRANCH  18  19
ATOM     19  C   UNL     1       1.231   9.549  18.111  0.00  0.00    +0.000 C 
ATOM     20  N   UNL     1      -0.050   9.862  17.740  0.00  0.00    +0.000 N 
ATOM     21  O   UNL     1       2.176   9.897  17.406  0.00  0.00    +0.000 OA
ATOM     22  H   UNL     1      -0.767   9.832  18.451  0.00  0.00    +0.000 HD
ATOM     23  H   UNL     1      -0.130  10.585  17.036  0.00  0.00    +0.000 HD
ENDBRANCH  18  19
BRANCH  18  24
ATOM     24  C   UNL     1       1.846   9.397  20.493  0.00  0.00    +0.000 C 
BRANCH  24  25
ATOM     25  C   UNL     1       0.741   9.988  21.341  0.00  0.00    +0.000 A 
ATOM     26  C   UNL     1       0.206   9.259  22.414  0.00  0.00    +0.000 A 
ATOM     27  C   UNL     1      -0.762   9.826  23.246  0.00  0.00    +0.000 A 
ATOM     28  C   UNL     1      -1.204  11.127  23.017  0.00  0.00    +0.000 A 
ATOM     29  C   UNL     1      -0.680  11.860  21.954  0.00  0.00    +0.000 A 
ATOM     30  C   UNL     1       0.290  11.297  21.123  0.00  0.00    +0.000 A 
ENDBRANCH  24  25
ENDBRANCH  18  24
ENDBRANCH   3  18
TORSDOF 6
ENDMDL
MODEL 6
REMARK VINA RESULT:      -7.5      2.028      3.108
REMARK  Name = 
REMARK  7 active torsions:
REMARK  status: ('A' for Active; 'I' for Inactive)
REMARK    1  A    between atoms: C_1  and  C_2
REMARK    2  A    between atoms: C_7  and  C_8
REMARK    3  A    between atoms: C_12  and  C_13
REMARK    4  A    between atoms: N_15  and  C_16
REMARK    5  A    between atoms: C_16  and  C_17
REMARK    6  A    between atoms: C_16  and  C_24
REMARK    7  A    between atoms: C_17  and  C_18
REMARK                            x       y       z     vdW  Elec       q    Type
REMARK                         _______ _______ _______ _____ _____    ______ ____
ROOT
ATOM      1  C   UNL     1       4.359   3.392  17.235  0.00  0.00    +0.000 C 
ATOM      2  O   UNL     1       4.317   2.173  17.343  0.00  0.00    +0.000 OA
ATOM      3  N   UNL     1       3.549   4.231  17.984  0.00  0.00    +0.000 N 
ATOM      4  H   UNL     1       3.918   5.156  18.170  0.00  0.00    +0.000 HD
ENDROOT
BRANCH   1  13
ATOM      5  C   UNL     1       6.069   5.849  19.054  0.00  0.00    +0.000 C 
ATOM      6  C   UNL     1       6.603   5.792  17.673  0.00  0.00    +0.000 A 
ATOM      7  N   UNL     1       7.630   6.591  17.352  0.00  0.00    +0.000 NA
ATOM      8  O   UNL     1       7.874   6.372  16.012  0.00  0.00    +0.000 OA
ATOM      9  C   UNL     1       7.001   5.450  15.531  0.00  0.00    +0.000 A 
ATOM     10  N   UNL     1       6.996   5.054  14.249  0.00  0.00    +0.000 NA
ATOM     11  C   UNL     1       6.074   4.125  13.935  0.00  0.00    +0.000 A 
ATOM     12  C   UNL     1       5.197   3.593  14.882  0.00  0.00    +0.000 A 
ATOM     13  C   UNL     1       5.223   4.035  16.216  0.00  0.00    +0.000 A 
ATOM     14  C   UNL     1       6.172   5.018  16.556  0.00  0.00    +0.000 A 
BRANCH  11  15
ATOM     15  C   UNL     1       6.046   3.638  12.504  0.00  0.00    +0.000 C 
ATOM     16  C   UNL     1       5.309   2.382  12.103  0.00  0.00    +0.000 C 
ATOM     17  C   UNL     1       4.739   3.721  11.746  0.00  0.00    +0.000 C 
ENDBRANCH  11  15
ENDBRANCH   1  13
BRANCH   3  18
ATOM     18  C   UNL     1       2.685   3.672  19.041  0.00  0.00    +0.000 C 
BRANCH  18  19
ATOM     19  C   UNL     1       1.228   3.502  18.551  0.00  0.00    +0.000 C 
ATOM     20  N   UNL     1       0.392   2.797  19.376  0.00  0.00    +0.000 N 
ATOM     21  O   UNL     1       0.864   3.796  17.414  0.00  0.00    +0.000 OA
ATOM     22  H   UNL     1       0.579   2.821  20.369  0.00  0.00    +0.000 HD
ATOM     23  H   UNL     1      -0.579   2.778  19.091  0.00  0.00    +0.000 HD
ENDBRANCH  18  19
BRANCH  18  24
ATOM     24  C   UNL     1       2.614   4.606  20.266  0.00  0.00    +0.000 C 
BRANCH  24  25
ATOM     25  C   UNL     1       2.219   6.036  19.968  0.00  0.00    +0.000 A 
ATOM     26  C   UNL     1       1.504   6.784  20.916  0.00  0.00    +0.000 A 
ATOM     27  C   UNL     1       1.201   8.127  20.680  0.00  0.00    +0.000 A 
ATOM     28  C   UNL     1       1.609   8.736  19.496  0.00  0.00    +0.000 A 
ATOM     29  C   UNL     1       2.319   8.003  18.547  0.00  0.00    +0.000 A 
ATOM     30  C   UNL     1       2.626   6.662  18.783  0.00  0.00    +0.000 A 
ENDBRANCH  24  25
ENDBRANCH  18  24
ENDBRANCH   3  18
TORSDOF 6
ENDMDL
MODEL 7
REMARK VINA RESULT:      -7.5      3.169      5.230
REMARK  Name = 
REMARK  7 active torsions:
REMARK  status: ('A' for Active; 'I' for Inactive)
REMARK    1  A    between atoms: C_1  and  C_2
REMARK    2  A    between atoms: C_7  and  C_8
REMARK    3  A    between atoms: C_12  and  C_13
REMARK    4  A    between atoms: N_15  and  C_16
REMARK    5  A    between atoms: C_16  and  C_17
REMARK    6  A    between atoms: C_16  and  C_24
REMARK    7  A    between atoms: C_17  and  C_18
REMARK                            x       y       z     vdW  Elec       q    Type
REMARK                         _______ _______ _______ _____ _____    ______ ____
ROOT
ATOM      1  C   UNL     1       2.456   6.552  19.649  0.00  0.00    +0.000 C 
ATOM      2  O   UNL     1       1.816   6.314  20.665  0.00  0.00    +0.000 OA
ATOM      3  N   UNL     1       2.210   7.666  18.862  0.00  0.00    +0.000 N 
ATOM      4  H   UNL     1       3.001   8.024  18.338  0.00  0.00    +0.000 HD
ENDROOT
BRANCH   1  13
ATOM      5  C   UNL     1       0.848   3.448  19.886  0.00  0.00    +0.000 C 
ATOM      6  C   UNL     1       2.159   3.279  19.215  0.00  0.00    +0.000 A 
ATOM      7  N   UNL     1       2.497   2.060  18.773  0.00  0.00    +0.000 NA
ATOM      8  O   UNL     1       3.769   2.185  18.256  0.00  0.00    +0.000 OA
ATOM      9  C   UNL     1       4.194   3.469  18.386  0.00  0.00    +0.000 A 
ATOM     10  N   UNL     1       5.406   3.878  17.983  0.00  0.00    +0.000 NA
ATOM     11  C   UNL     1       5.668   5.184  18.173  0.00  0.00    +0.000 A 
ATOM     12  C   UNL     1       4.735   6.059  18.732  0.00  0.00    +0.000 A 
ATOM     13  C   UNL     1       3.476   5.598  19.152  0.00  0.00    +0.000 A 
ATOM     14  C   UNL     1       3.193   4.230  18.974  0.00  0.00    +0.000 A 
BRANCH  11  15
ATOM     15  C   UNL     1       7.017   5.690  17.715  0.00  0.00    +0.000 C 
ATOM     16  C   UNL     1       7.343   7.165  17.673  0.00  0.00    +0.000 C 
ATOM     17  C   UNL     1       7.937   6.305  18.747  0.00  0.00    +0.000 C 
ENDBRANCH  11  15
ENDBRANCH   1  13
BRANCH   3  18
ATOM     18  C   UNL     1       1.234   8.680  19.302  0.00  0.00    +0.000 C 
BRANCH  18  19
ATOM     19  C   UNL     1       0.869   9.652  18.156  0.00  0.00    +0.000 C 
ATOM     20  N   UNL     1       1.869  10.484  17.728  0.00  0.00    +0.000 N 
ATOM     21  O   UNL     1      -0.284   9.827  17.767  0.00  0.00    +0.000 OA
ATOM     22  H   UNL     1       2.822  10.159  17.814  0.00  0.00    +0.000 HD
ATOM     23  H   UNL     1       1.646  11.042  16.913  0.00  0.00    +0.000 HD
ENDBRANCH  18  19
BRANCH  18  24
ATOM     24  C   UNL     1       1.801   9.557  20.437  0.00  0.00    +0.000 C 
BRANCH  24  25
ATOM     25  C   UNL     1       0.775  10.118  21.396  0.00  0.00    +0.000 A 
ATOM     26  C   UNL     1       0.268  11.414  21.211  0.00  0.00    +0.000 A 
ATOM     27  C   UNL     1      -0.734  11.912  22.047  0.00  0.00    +0.000 A 
ATOM     28  C   UNL     1      -1.241  11.121  23.076  0.00  0.00    +0.000 A 
ATOM     29  C   UNL     1      -0.745   9.833  23.269  0.00  0.00    +0.000 A 
ATOM     30  C   UNL     1       0.254   9.332  22.432  0.00  0.00    +0.000 A 
ENDBRANCH  24  25
ENDBRANCH  18  24
ENDBRANCH   3  18
TORSDOF 6
ENDMDL
MODEL 8
REMARK VINA RESULT:      -7.4      2.132      7.571
REMARK  Name = 
REMARK  7 active torsions:
REMARK  status: ('A' for Active; 'I' for Inactive)
REMARK    1  A    between atoms: C_1  and  C_2
REMARK    2  A    between atoms: C_7  and  C_8
REMARK    3  A    between atoms: C_12  and  C_13
REMARK    4  A    between atoms: N_15  and  C_16
REMARK    5  A    between atoms: C_16  and  C_17
REMARK    6  A    between atoms: C_16  and  C_24
REMARK    7  A    between atoms: C_17  and  C_18
REMARK                            x       y       z     vdW  Elec       q    Type
REMARK                         _______ _______ _______ _____ _____    ______ ____
ROOT
ATOM      1  C   UNL     1       4.027   5.584  17.604  0.00  0.00    +0.000 C 
ATOM      2  O   UNL     1       4.124   6.519  16.820  0.00  0.00    +0.000 OA
ATOM      3  N   UNL     1       4.801   4.440  17.494  0.00  0.00    +0.000 N 
ATOM      4  H   UNL     1       4.989   3.944  18.357  0.00  0.00    +0.000 HD
ENDROOT
BRANCH   1  13
ATOM      5  C   UNL     1       2.886   2.272  17.650  0.00  0.00    +0.000 C 
ATOM      6  C   UNL     1       2.266   3.026  18.765  0.00  0.00    +0.000 A 
ATOM      7  N   UNL     1       1.458   2.369  19.609  0.00  0.00    +0.000 NA
ATOM      8  O   UNL     1       0.987   3.317  20.494  0.00  0.00    +0.000 OA
ATOM      9  C   UNL     1       1.506   4.533  20.185  0.00  0.00    +0.000 A 
ATOM     10  N   UNL     1       1.205   5.647  20.870  0.00  0.00    +0.000 NA
ATOM     11  C   UNL     1       1.812   6.769  20.442  0.00  0.00    +0.000 A 
ATOM     12  C   UNL     1       2.710   6.772  19.373  0.00  0.00    +0.000 A 
ATOM     13  C   UNL     1       2.997   5.590  18.670  0.00  0.00    +0.000 A 
ATOM     14  C   UNL     1       2.357   4.410  19.096  0.00  0.00    +0.000 A 
BRANCH  11  15
ATOM     15  C   UNL     1       1.515   8.044  21.199  0.00  0.00    +0.000 C 
ATOM     16  C   UNL     1       0.981   9.276  20.508  0.00  0.00    +0.000 C 
ATOM     17  C   UNL     1       0.069   8.454  21.368  0.00  0.00    +0.000 C 
ENDBRANCH  11  15
ENDBRANCH   1  13
BRANCH   3  18
ATOM     18  C   UNL     1       5.871   4.367  16.480  0.00  0.00    +0.000 C 
BRANCH  18  19
ATOM     19  C   UNL     1       7.199   4.951  17.013  0.00  0.00    +0.000 C 
ATOM     20  N   UNL     1       7.398   6.289  16.804  0.00  0.00    +0.000 N 
ATOM     21  O   UNL     1       8.121   4.250  17.427  0.00  0.00    +0.000 OA
ATOM     22  H   UNL     1       6.584   6.885  16.752  0.00  0.00    +0.000 HD
ATOM     23  H   UNL     1       8.224   6.676  17.244  0.00  0.00    +0.000 HD
ENDBRANCH  18  19
BRANCH  18  24
ATOM     24  C   UNL     1       5.518   5.192  15.226  0.00  0.00    +0.000 C 
BRANCH  24  25
ATOM     25  C   UNL     1       5.954   4.586  13.909  0.00  0.00    +0.000 A 
ATOM     26  C   UNL     1       7.186   4.944  13.339  0.00  0.00    +0.000 A 
ATOM     27  C   UNL     1       7.628   4.334  12.163  0.00  0.00    +0.000 A 
ATOM     28  C   UNL     1       6.847   3.360  11.545  0.00  0.00    +0.000 A 
ATOM     29  C   UNL     1       5.622   2.997  12.102  0.00  0.00    +0.000 A 
ATOM     30  C   UNL     1       5.179   3.603  13.280  0.00  0.00    +0.000 A 
ENDBRANCH  24  25
ENDBRANCH  18  24
ENDBRANCH   3  18
TORSDOF 6
ENDMDL
MODEL 9
REMARK VINA RESULT:      -7.4      2.355      3.737
REMARK  Name = 
REMARK  7 active torsions:
REMARK  status: ('A' for Active; 'I' for Inactive)
REMARK    1  A    between atoms: C_1  and  C_2
REMARK    2  A    between atoms: C_7  and  C_8
REMARK    3  A    between atoms: C_12  and  C_13
REMARK    4  A    between atoms: N_15  and  C_16
REMARK    5  A    between atoms: C_16  and  C_17
REMARK    6  A    between atoms: C_16  and  C_24
REMARK    7  A    between atoms: C_17  and  C_18
REMARK                            x       y       z     vdW  Elec       q    Type
REMARK                         _______ _______ _______ _____ _____    ______ ____
ROOT
ATOM      1  C   UNL     1       3.643   7.057  17.969  0.00  0.00    +0.000 C 
ATOM      2  O   UNL     1       2.886   7.688  17.242  0.00  0.00    +0.000 OA
ATOM      3  N   UNL     1       3.270   6.625  19.232  0.00  0.00    +0.000 N 
ATOM      4  H   UNL     1       3.731   5.789  19.571  0.00  0.00    +0.000 HD
ENDROOT
BRANCH   1  13
ATOM      5  C   UNL     1       3.556   3.771  16.757  0.00  0.00    +0.000 C 
ATOM      6  C   UNL     1       4.898   4.352  16.521  0.00  0.00    +0.000 A 
ATOM      7  N   UNL     1       5.809   3.613  15.872  0.00  0.00    +0.000 NA
ATOM      8  O   UNL     1       6.962   4.369  15.849  0.00  0.00    +0.000 OA
ATOM      9  C   UNL     1       6.748   5.553  16.479  0.00  0.00    +0.000 A 
ATOM     10  N   UNL     1       7.704   6.483  16.623  0.00  0.00    +0.000 NA
ATOM     11  C   UNL     1       7.326   7.606  17.262  0.00  0.00    +0.000 A 
ATOM     12  C   UNL     1       6.024   7.799  17.725  0.00  0.00    +0.000 A 
ATOM     13  C   UNL     1       5.047   6.802  17.566  0.00  0.00    +0.000 A 
ATOM     14  C   UNL     1       5.431   5.615  16.913  0.00  0.00    +0.000 A 
BRANCH  11  15
ATOM     15  C   UNL     1       8.369   8.687  17.429  0.00  0.00    +0.000 C 
ATOM     16  C   UNL     1       8.026  10.045  17.995  0.00  0.00    +0.000 C 
ATOM     17  C   UNL     1       8.789   9.065  18.833  0.00  0.00    +0.000 C 
ENDBRANCH  11  15
ENDBRANCH   1  13
BRANCH   3  18
ATOM     18  C   UNL     1       1.881   6.812  19.695  0.00  0.00    +0.000 C 
BRANCH  18  19
ATOM     19  C   UNL     1       1.693   8.183  20.385  0.00  0.00    +0.000 C 
ATOM     20  N   UNL     1       1.780   8.189  21.752  0.00  0.00    +0.000 N 
ATOM     21  O   UNL     1       1.296   9.183  19.791  0.00  0.00    +0.000 OA
ATOM     22  H   UNL     1       2.368   7.493  22.190  0.00  0.00    +0.000 HD
ATOM     23  H   UNL     1       1.754   9.105  22.181  0.00  0.00    +0.000 HD
ENDBRANCH  18  19
BRANCH  18  24
ATOM     24  C   UNL     1       1.487   5.752  20.743  0.00  0.00    +0.000 C 
BRANCH  24  25
ATOM     25  C   UNL     1       1.680   4.314  20.314  0.00  0.00    +0.000 A 
ATOM     26  C   UNL     1       0.702   3.670  19.539  0.00  0.00    +0.000 A 
ATOM     27  C   UNL     1       0.906   2.369  19.076  0.00  0.00    +0.000 A 
ATOM     28  C   UNL     1       2.088   1.697  19.380  0.00  0.00    +0.000 A 
ATOM     29  C   UNL     1       3.065   2.326  20.149  0.00  0.00    +0.000 A 
ATOM     30  C   UNL     1       2.865   3.628  20.610  0.00  0.00    +0.000 A 
ENDBRANCH  24  25
ENDBRANCH  18  24
ENDBRANCH   3  18
TORSDOF 6
ENDMDL
