MODEL 1
REMARK VINA RESULT:      -5.8      0.000      0.000
REMARK  Name = 
REMARK  24 active torsions:
REMARK  status: ('A' for Active; 'I' for Inactive)
REMARK    1  A    between atoms: C_1  and  C_2
REMARK    2  A    between atoms: C_2  and  C_3
REMARK    3  A    between atoms: C_3  and  C_4
REMARK    4  A    between atoms: C_4  and  C_5
REMARK    5  A    between atoms: C_5  and  C_6
REMARK    6  A    between atoms: C_6  and  N_7
REMARK    7  A    between atoms: N_7  and  C_8
REMARK    8  A    between atoms: N_7  and  C_14
REMARK    9  A    between atoms: N_7  and  C_20
REMARK   10  A    between atoms: C_8  and  C_9
REMARK   11  A    between atoms: C_9  and  C_10
REMARK   12  A    between atoms: C_10  and  C_11
REMARK   13  A    between atoms: C_11  and  C_12
REMARK   14  A    between atoms: C_12  and  C_13
REMARK   15  A    between atoms: C_14  and  C_15
REMARK   16  A    between atoms: C_15  and  C_16
REMARK   17  A    between atoms: C_16  and  C_17
REMARK   18  A    between atoms: C_17  and  C_18
REMARK   19  A    between atoms: C_18  and  C_19
REMARK   20  A    between atoms: C_20  and  C_21
REMARK   21  A    between atoms: C_21  and  C_22
REMARK   22  A    between atoms: C_22  and  C_23
REMARK   23  A    between atoms: C_23  and  C_24
REMARK   24  A    between atoms: C_24  and  C_25
REMARK                            x       y       z     vdW  Elec       q    Type
REMARK                         _______ _______ _______ _____ _____    ______ ____
ROOT
ATOM      1  N   UNL     1       4.933   6.071  17.648  0.00  0.00    +0.000 N 
ENDROOT
BRANCH   1   2
ATOM      2  C   UNL     1       5.352   5.280  18.961  0.00  0.00    +0.000 C 
BRANCH   2   3
ATOM      3  C   UNL     1       5.374   3.770  18.813  0.00  0.00    +0.000 C 
BRANCH   3   4
ATOM      4  C   UNL     1       4.839   2.956  19.992  0.00  0.00    +0.000 C 
BRANCH   4   5
ATOM      5  C   UNL     1       3.902   1.887  19.408  0.00  0.00    +0.000 C 
BRANCH   5   6
ATOM      6  C   UNL     1       3.604   2.076  17.930  0.00  0.00    +0.000 C 
ATOM      7  C   UNL     1       2.135   2.416  17.728  0.00  0.00    +0.000 C 
ENDBRANCH   5   6
ENDBRANCH   4   5
ENDBRANCH   3   4
ENDBRANCH   2   3
ENDBRANCH   1   2
BRANCH   1   8
ATOM      8  C   UNL     1       3.554   6.819  17.801  0.00  0.00    +0.000 C 
BRANCH   8   9
ATOM      9  C   UNL     1       2.453   5.972  18.459  0.00  0.00    +0.000 C 
BRANCH   9  10
ATOM     10  C   UNL     1       2.048   6.398  19.878  0.00  0.00    +0.000 C 
BRANCH  10  11
ATOM     11  C   UNL     1       2.085   5.146  20.772  0.00  0.00    +0.000 C 
BRANCH  11  13
ATOM     12  C   UNL     1       1.163   2.907  21.386  0.00  0.00    +0.000 C 
ATOM     13  C   UNL     1       0.982   4.133  20.496  0.00  0.00    +0.000 C 
ENDBRANCH  11  13
ENDBRANCH  10  11
ENDBRANCH   9  10
ENDBRANCH   8   9
ENDBRANCH   1   8
BRANCH   1  14
ATOM     14  C   UNL     1       6.085   7.136  17.374  0.00  0.00    +0.000 C 
BRANCH  14  15
ATOM     15  C   UNL     1       7.463   6.657  17.846  0.00  0.00    +0.000 C 
BRANCH  15  16
ATOM     16  C   UNL     1       8.317   7.756  18.483  0.00  0.00    +0.000 C 
BRANCH  16  17
ATOM     17  C   UNL     1       7.953   9.093  17.826  0.00  0.00    +0.000 C 
BRANCH  17  18
ATOM     18  C   UNL     1       8.948  10.211  18.109  0.00  0.00    +0.000 C 
ATOM     19  C   UNL     1       9.311  10.230  19.589  0.00  0.00    +0.000 C 
ENDBRANCH  17  18
ENDBRANCH  16  17
ENDBRANCH  15  16
ENDBRANCH  14  15
ENDBRANCH   1  14
BRANCH   1  20
ATOM     20  C   UNL     1       4.933   5.090  16.427  0.00  0.00    +0.000 C 
BRANCH  20  21
ATOM     21  C   UNL     1       5.344   5.746  15.099  0.00  0.00    +0.000 C 
BRANCH  21  22
ATOM     22  C   UNL     1       6.471   4.963  14.409  0.00  0.00    +0.000 C 
BRANCH  22  23
ATOM     23  C   UNL     1       5.980   3.589  13.935  0.00  0.00    +0.000 C 
BRANCH  23  24
ATOM     24  C   UNL     1       6.080   3.442  12.416  0.00  0.00    +0.000 C 
ATOM     25  C   UNL     1       4.704   3.416  11.766  0.00  0.00    +0.000 C 
ENDBRANCH  23  24
ENDBRANCH  22  23
ENDBRANCH  21  22
ENDBRANCH  20  21
ENDBRANCH   1  20
TORSDOF 20
ENDMDL
MODEL 2
REMARK VINA RESULT:      -5.8      1.537      6.228
REMARK  Name = 
REMARK  24 active torsions:
REMARK  status: ('A' for Active; 'I' for Inactive)
REMARK    1  A    between atoms: C_1  and  C_2
REMARK    2  A    between atoms: C_2  and  C_3
REMARK    3  A    between atoms: C_3  and  C_4
REMARK    4  A    between atoms: C_4  and  C_5
REMARK    5  A    between atoms: C_5  and  C_6
REMARK    6  A    between atoms: C_6  and  N_7
REMARK    7  A    between atoms: N_7  and  C_8
REMARK    8  A    between atoms: N_7  and  C_14
REMARK    9  A    between atoms: N_7  and  C_20
REMARK   10  A    between atoms: C_8  and  C_9
REMARK   11  A    between atoms: C_9  and  C_10
REMARK   12  A    between atoms: C_10  and  C_11
REMARK   13  A    between atoms: C_11  and  C_12
REMARK   14  A    between atoms: C_12  and  C_13
REMARK   15  A    between atoms: C_14  and  C_15
REMARK   16  A    between atoms: C_15  and  C_16
REMARK   17  A    between atoms: C_16  and  C_17
REMARK   18  A    between atoms: C_17  and  C_18
REMARK   19  A    between atoms: C_18  and  C_19
REMARK   20  A    between atoms: C_20  and  C_21
REMARK   21  A    between atoms: C_21  and  C_22
REMARK   22  A    between atoms: C_22  and  C_23
REMARK   23  A    between atoms: C_23  and  C_24
REMARK   24  A    between atoms: C_24  and  C_25
REMARK                            x       y       z     vdW  Elec       q    Type
REMARK                         _______ _______ _______ _____ _____    ______ ____
ROOT
ATOM      1  N   UNL     1       4.310   4.678  17.330  0.00  0.00    +0.000 N 
ENDROOT
BRANCH   1   2
ATOM      2  C   UNL     1       4.171   6.248  17.536  0.00  0.00    +0.000 C 
BRANCH   2   3
ATOM      3  C   UNL     1       3.097   6.667  18.523  0.00  0.00    +0.000 C 
BRANCH   3   4
ATOM      4  C   UNL     1       1.920   7.464  17.961  0.00  0.00    +0.000 C 
BRANCH   4   5
ATOM      5  C   UNL     1       2.420   8.899  17.735  0.00  0.00    +0.000 C 
BRANCH   5   6
ATOM      6  C   UNL     1       1.487   9.966  18.282  0.00  0.00    +0.000 C 
ATOM      7  C   UNL     1       0.913   9.529  19.622  0.00  0.00    +0.000 C 
ENDBRANCH   5   6
ENDBRANCH   4   5
ENDBRANCH   3   4
ENDBRANCH   2   3
ENDBRANCH   1   2
BRANCH   1   8
ATOM      8  C   UNL     1       4.873   4.298  15.907  0.00  0.00    +0.000 C 
BRANCH   8   9
ATOM      9  C   UNL     1       6.084   5.137  15.470  0.00  0.00    +0.000 C 
BRANCH   9  10
ATOM     10  C   UNL     1       6.577   4.892  14.037  0.00  0.00    +0.000 C 
BRANCH  10  11
ATOM     11  C   UNL     1       6.080   3.503  13.600  0.00  0.00    +0.000 C 
BRANCH  11  13
ATOM     12  C   UNL     1       5.855   2.087  11.555  0.00  0.00    +0.000 C 
ATOM     13  C   UNL     1       5.530   3.439  12.181  0.00  0.00    +0.000 C 
ENDBRANCH  11  13
ENDBRANCH  10  11
ENDBRANCH   9  10
ENDBRANCH   8   9
ENDBRANCH   1   8
BRANCH   1  14
ATOM     14  C   UNL     1       5.315   4.162  18.452  0.00  0.00    +0.000 C 
BRANCH  14  15
ATOM     15  C   UNL     1       6.146   5.291  19.072  0.00  0.00    +0.000 C 
BRANCH  15  16
ATOM     16  C   UNL     1       7.598   5.329  18.588  0.00  0.00    +0.000 C 
BRANCH  16  17
ATOM     17  C   UNL     1       8.112   6.768  18.717  0.00  0.00    +0.000 C 
BRANCH  17  18
ATOM     18  C   UNL     1       7.663   7.686  17.588  0.00  0.00    +0.000 C 
ATOM     19  C   UNL     1       8.081   9.122  17.880  0.00  0.00    +0.000 C 
ENDBRANCH  17  18
ENDBRANCH  16  17
ENDBRANCH  15  16
ENDBRANCH  14  15
ENDBRANCH   1  14
BRANCH   1  20
ATOM     20  C   UNL     1       2.931   3.992  17.615  0.00  0.00    +0.000 C 
BRANCH  20  21
ATOM     21  C   UNL     1       3.012   2.464  17.757  0.00  0.00    +0.000 C 
BRANCH  21  22
ATOM     22  C   UNL     1       2.244   1.972  18.993  0.00  0.00    +0.000 C 
BRANCH  22  23
ATOM     23  C   UNL     1       1.058   2.891  19.309  0.00  0.00    +0.000 C 
BRANCH  23  24
ATOM     24  C   UNL     1       1.086   3.379  20.758  0.00  0.00    +0.000 C 
ATOM     25  C   UNL     1       2.340   2.907  21.481  0.00  0.00    +0.000 C 
ENDBRANCH  23  24
ENDBRANCH  22  23
ENDBRANCH  21  22
ENDBRANCH  20  21
ENDBRANCH   1  20
TORSDOF 20
ENDMDL
MODEL 3
REMARK VINA RESULT:      -5.8      1.510      6.214
REMARK  Name = 
REMARK  24 active torsions:
REMARK  status: ('A' for Active; 'I' for Inactive)
REMARK    1  A    between atoms: C_1  and  C_2
REMARK    2  A    between atoms: C_2  and  C_3
REMARK    3  A    between atoms: C_3  and  C_4
REMARK    4  A    between atoms: C_4  and  C_5
REMARK    5  A    between atoms: C_5  and  C_6
REMARK    6  A    between atoms: C_6  and  N_7
REMARK    7  A    between atoms: N_7  and  C_8
REMARK    8  A    between atoms: N_7  and  C_14
REMARK    9  A    between atoms: N_7  and  C_20
REMARK   10  A    between atoms: C_8  and  C_9
REMARK   11  A    between atoms: C_9  and  C_10
REMARK   12  A    between atoms: C_10  and  C_11
REMARK   13  A    between atoms: C_11  and  C_12
REMARK   14  A    between atoms: C_12  and  C_13
REMARK   15  A    between atoms: C_14  and  C_15
REMARK   16  A    between atoms: C_15  and  C_16
REMARK   17  A    between atoms: C_16  and  C_17
REMARK   18  A    between atoms: C_17  and  C_18
REMARK   19  A    between atoms: C_18  and  C_19
REMARK   20  A    between atoms: C_20  and  C_21
REMARK   21  A    between atoms: C_21  and  C_22
REMARK   22  A    between atoms: C_22  and  C_23
REMARK   23  A    between atoms: C_23  and  C_24
REMARK   24  A    between atoms: C_24  and  C_25
REMARK                            x       y       z     vdW  Elec       q    Type
REMARK                         _______ _______ _______ _____ _____    ______ ____
ROOT
ATOM      1  N   UNL     1       3.804   5.801  18.034  0.00  0.00    +0.000 N 
ENDROOT
BRANCH   1   2
ATOM      2  C   UNL     1       3.621   7.329  17.635  0.00  0.00    +0.000 C 
BRANCH   2   3
ATOM      3  C   UNL     1       2.205   7.857  17.775  0.00  0.00    +0.000 C 
BRANCH   3   4
ATOM      4  C   UNL     1       2.049   9.368  17.949  0.00  0.00    +0.000 C 
BRANCH   4   5
ATOM      5  C   UNL     1       1.095   9.583  19.134  0.00  0.00    +0.000 C 
BRANCH   5   6
ATOM      6  C   UNL     1       1.310   8.608  20.279  0.00  0.00    +0.000 C 
ATOM      7  C   UNL     1       0.442   8.991  21.468  0.00  0.00    +0.000 C 
ENDBRANCH   5   6
ENDBRANCH   4   5
ENDBRANCH   3   4
ENDBRANCH   2   3
ENDBRANCH   1   2
BRANCH   1   8
ATOM      8  C   UNL     1       4.687   5.610  19.326  0.00  0.00    +0.000 C 
BRANCH   8   9
ATOM      9  C   UNL     1       6.044   4.936  19.062  0.00  0.00    +0.000 C 
BRANCH   9  10
ATOM     10  C   UNL     1       7.279   5.810  19.321  0.00  0.00    +0.000 C 
BRANCH  10  11
ATOM     11  C   UNL     1       7.780   6.330  17.963  0.00  0.00    +0.000 C 
BRANCH  11  13
ATOM     12  C   UNL     1       8.360   8.753  18.136  0.00  0.00    +0.000 C 
ATOM     13  C   UNL     1       7.338   7.746  17.619  0.00  0.00    +0.000 C 
ENDBRANCH  11  13
ENDBRANCH  10  11
ENDBRANCH   9  10
ENDBRANCH   8   9
ENDBRANCH   1   8
BRANCH   1  14
ATOM     14  C   UNL     1       2.343   5.227  18.303  0.00  0.00    +0.000 C 
BRANCH  14  15
ATOM     15  C   UNL     1       2.059   4.995  19.791  0.00  0.00    +0.000 C 
BRANCH  15  16
ATOM     16  C   UNL     1       0.992   3.929  20.061  0.00  0.00    +0.000 C 
BRANCH  16  17
ATOM     17  C   UNL     1       1.691   2.573  20.212  0.00  0.00    +0.000 C 
BRANCH  17  18
ATOM     18  C   UNL     1       1.854   1.814  18.902  0.00  0.00    +0.000 C 
ATOM     19  C   UNL     1       3.329   1.707  18.536  0.00  0.00    +0.000 C 
ENDBRANCH  17  18
ENDBRANCH  16  17
ENDBRANCH  15  16
ENDBRANCH  14  15
ENDBRANCH   1  14
BRANCH   1  20
ATOM     20  C   UNL     1       4.377   5.008  16.812  0.00  0.00    +0.000 C 
BRANCH  20  21
ATOM     21  C   UNL     1       4.953   5.903  15.703  0.00  0.00    +0.000 C 
BRANCH  21  22
ATOM     22  C   UNL     1       6.121   5.219  14.976  0.00  0.00    +0.000 C 
BRANCH  22  23
ATOM     23  C   UNL     1       5.681   3.889  14.354  0.00  0.00    +0.000 C 
BRANCH  23  24
ATOM     24  C   UNL     1       6.225   3.717  12.934  0.00  0.00    +0.000 C 
ATOM     25  C   UNL     1       5.134   3.278  11.969  0.00  0.00    +0.000 C 
ENDBRANCH  23  24
ENDBRANCH  22  23
ENDBRANCH  21  22
ENDBRANCH  20  21
ENDBRANCH   1  20
TORSDOF 20
ENDMDL
MODEL 4
REMARK VINA RESULT:      -5.8      1.141      5.582
REMARK  Name = 
REMARK  24 active torsions:
REMARK  status: ('A' for Active; 'I' for Inactive)
REMARK    1  A    between atoms: C_1  and  C_2
REMARK    2  A    between atoms: C_2  and  C_3
REMARK    3  A    between atoms: C_3  and  C_4
REMARK    4  A    between atoms: C_4  and  C_5
REMARK    5  A    between atoms: C_5  and  C_6
REMARK    6  A    between atoms: C_6  and  N_7
REMARK    7  A    between atoms: N_7  and  C_8
REMARK    8  A    between atoms: N_7  and  C_14
REMARK    9  A    between atoms: N_7  and  C_20
REMARK   10  A    between atoms: C_8  and  C_9
REMARK   11  A    between atoms: C_9  and  C_10
REMARK   12  A    between atoms: C_10  and  C_11
REMARK   13  A    between atoms: C_11  and  C_12
REMARK   14  A    between atoms: C_12  and  C_13
REMARK   15  A    between atoms: C_14  and  C_15
REMARK   16  A    between atoms: C_15  and  C_16
REMARK   17  A    between atoms: C_16  and  C_17
REMARK   18  A    between atoms: C_17  and  C_18
REMARK   19  A    between atoms: C_18  and  C_19
REMARK   20  A    between atoms: C_20  and  C_21
REMARK   21  A    between atoms: C_21  and  C_22
REMARK   22  A    between atoms: C_22  and  C_23
REMARK   23  A    between atoms: C_23  and  C_24
REMARK   24  A    between atoms: C_24  and  C_25
REMARK                            x       y       z     vdW  Elec       q    Type
REMARK                         _______ _______ _______ _____ _____    ______ ____
ROOT
ATOM      1  N   UNL     1       5.402   4.970  17.306  0.00  0.00    +0.000 N 
ENDROOT
BRANCH   1   2
ATOM      2  C   UNL     1       4.745   6.040  18.281  0.00  0.00    +0.000 C 
BRANCH   2   3
ATOM      3  C   UNL     1       3.756   6.981  17.619  0.00  0.00    +0.000 C 
BRANCH   3   4
ATOM      4  C   UNL     1       2.387   7.120  18.285  0.00  0.00    +0.000 C 
BRANCH   4   5
ATOM      5  C   UNL     1       2.383   6.175  19.497  0.00  0.00    +0.000 C 
BRANCH   5   6
ATOM      6  C   UNL     1       1.608   6.711  20.689  0.00  0.00    +0.000 C 
ATOM      7  C   UNL     1       1.491   8.225  20.605  0.00  0.00    +0.000 C 
ENDBRANCH   5   6
ENDBRANCH   4   5
ENDBRANCH   3   4
ENDBRANCH   2   3
ENDBRANCH   1   2
BRANCH   1   8
ATOM      8  C   UNL     1       4.790   3.528  17.483  0.00  0.00    +0.000 C 
BRANCH   8   9
ATOM      9  C   UNL     1       3.289   3.442  17.159  0.00  0.00    +0.000 C 
BRANCH   9  10
ATOM     10  C   UNL     1       2.532   2.287  17.830  0.00  0.00    +0.000 C 
BRANCH  10  11
ATOM     11  C   UNL     1       2.674   2.455  19.353  0.00  0.00    +0.000 C 
BRANCH  11  13
ATOM     12  C   UNL     1       1.631   2.904  21.578  0.00  0.00    +0.000 C 
ATOM     13  C   UNL     1       1.361   2.663  20.097  0.00  0.00    +0.000 C 
ENDBRANCH  11  13
ENDBRANCH  10  11
ENDBRANCH   9  10
ENDBRANCH   8   9
ENDBRANCH   1   8
BRANCH   1  14
ATOM     14  C   UNL     1       5.128   5.483  15.823  0.00  0.00    +0.000 C 
BRANCH  14  15
ATOM     15  C   UNL     1       6.309   5.234  14.879  0.00  0.00    +0.000 C 
BRANCH  15  16
ATOM     16  C   UNL     1       6.269   3.872  14.181  0.00  0.00    +0.000 C 
BRANCH  16  17
ATOM     17  C   UNL     1       5.206   3.926  13.077  0.00  0.00    +0.000 C 
BRANCH  17  18
ATOM     18  C   UNL     1       5.491   3.001  11.901  0.00  0.00    +0.000 C 
ATOM     19  C   UNL     1       6.990   2.930  11.638  0.00  0.00    +0.000 C 
ENDBRANCH  17  18
ENDBRANCH  16  17
ENDBRANCH  15  16
ENDBRANCH  14  15
ENDBRANCH   1  14
BRANCH   1  20
ATOM     20  C   UNL     1       6.955   4.973  17.500  0.00  0.00    +0.000 C 
BRANCH  20  21
ATOM     21  C   UNL     1       7.411   5.461  18.885  0.00  0.00    +0.000 C 
BRANCH  21  22
ATOM     22  C   UNL     1       8.198   6.777  18.787  0.00  0.00    +0.000 C 
BRANCH  22  23
ATOM     23  C   UNL     1       7.844   7.539  17.505  0.00  0.00    +0.000 C 
BRANCH  23  24
ATOM     24  C   UNL     1       7.846   9.053  17.723  0.00  0.00    +0.000 C 
ATOM     25  C   UNL     1       8.858   9.461  18.784  0.00  0.00    +0.000 C 
ENDBRANCH  23  24
ENDBRANCH  22  23
ENDBRANCH  21  22
ENDBRANCH  20  21
ENDBRANCH   1  20
TORSDOF 20
ENDMDL
MODEL 5
REMARK VINA RESULT:      -5.8      1.867      6.363
REMARK  Name = 
REMARK  24 active torsions:
REMARK  status: ('A' for Active; 'I' for Inactive)
REMARK    1  A    between atoms: C_1  and  C_2
REMARK    2  A    between atoms: C_2  and  C_3
REMARK    3  A    between atoms: C_3  and  C_4
REMARK    4  A    between atoms: C_4  and  C_5
REMARK    5  A    between atoms: C_5  and  C_6
REMARK    6  A    between atoms: C_6  and  N_7
REMARK    7  A    between atoms: N_7  and  C_8
REMARK    8  A    between atoms: N_7  and  C_14
REMARK    9  A    between atoms: N_7  and  C_20
REMARK   10  A    between atoms: C_8  and  C_9
REMARK   11  A    between atoms: C_9  and  C_10
REMARK   12  A    between atoms: C_10  and  C_11
REMARK   13  A    between atoms: C_11  and  C_12
REMARK   14  A    between atoms: C_12  and  C_13
REMARK   15  A    between atoms: C_14  and  C_15
REMARK   16  A    between atoms: C_15  and  C_16
REMARK   17  A    between atoms: C_16  and  C_17
REMARK   18  A    between atoms: C_17  and  C_18
REMARK   19  A    between atoms: C_18  and  C_19
REMARK   20  A    between atoms: C_20  and  C_21
REMARK   21  A    between atoms: C_21  and  C_22
REMARK   22  A    between atoms: C_22  and  C_23
REMARK   23  A    between atoms: C_23  and  C_24
REMARK   24  A    between atoms: C_24  and  C_25
REMARK                            x       y       z     vdW  Elec       q    Type
REMARK                         _______ _______ _______ _____ _____    ______ ____
ROOT
ATOM      1  N   UNL     1       3.836   5.186  17.726  0.00  0.00    +0.000 N 
ENDROOT
BRANCH   1   2
ATOM      2  C   UNL     1       2.346   4.632  17.743  0.00  0.00    +0.000 C 
BRANCH   2   3
ATOM      3  C   UNL     1       2.230   3.121  17.671  0.00  0.00    +0.000 C 
BRANCH   3   4
ATOM      4  C   UNL     1       1.354   2.448  18.728  0.00  0.00    +0.000 C 
BRANCH   4   5
ATOM      5  C   UNL     1       0.994   3.526  19.761  0.00  0.00    +0.000 C 
BRANCH   5   6
ATOM      6  C   UNL     1       1.211   3.091  21.201  0.00  0.00    +0.000 C 
ATOM      7  C   UNL     1       2.669   2.720  21.426  0.00  0.00    +0.000 C 
ENDBRANCH   5   6
ENDBRANCH   4   5
ENDBRANCH   3   4
ENDBRANCH   2   3
ENDBRANCH   1   2
BRANCH   1   8
ATOM      8  C   UNL     1       4.759   4.483  18.794  0.00  0.00    +0.000 C 
BRANCH   8   9
ATOM      9  C   UNL     1       5.875   5.385  19.346  0.00  0.00    +0.000 C 
BRANCH   9  10
ATOM     10  C   UNL     1       7.236   5.258  18.649  0.00  0.00    +0.000 C 
BRANCH  10  11
ATOM     11  C   UNL     1       7.921   6.635  18.703  0.00  0.00    +0.000 C 
BRANCH  11  13
ATOM     12  C   UNL     1       8.095   8.964  17.817  0.00  0.00    +0.000 C 
ATOM     13  C   UNL     1       7.615   7.547  17.522  0.00  0.00    +0.000 C 
ENDBRANCH  11  13
ENDBRANCH  10  11
ENDBRANCH   9  10
ENDBRANCH   8   9
ENDBRANCH   1   8
BRANCH   1  14
ATOM     14  C   UNL     1       4.407   4.906  16.266  0.00  0.00    +0.000 C 
BRANCH  14  15
ATOM     15  C   UNL     1       5.452   3.785  16.241  0.00  0.00    +0.000 C 
BRANCH  15  16
ATOM     16  C   UNL     1       6.410   3.858  15.049  0.00  0.00    +0.000 C 
BRANCH  16  17
ATOM     17  C   UNL     1       5.610   4.281  13.811  0.00  0.00    +0.000 C 
BRANCH  17  18
ATOM     18  C   UNL     1       5.879   3.425  12.581  0.00  0.00    +0.000 C 
ATOM     19  C   UNL     1       7.109   3.938  11.842  0.00  0.00    +0.000 C 
ENDBRANCH  17  18
ENDBRANCH  16  17
ENDBRANCH  15  16
ENDBRANCH  14  15
ENDBRANCH   1  14
BRANCH   1  20
ATOM     20  C   UNL     1       3.815   6.742  17.906  0.00  0.00    +0.000 C 
BRANCH  20  21
ATOM     21  C   UNL     1       2.418   7.318  18.189  0.00  0.00    +0.000 C 
BRANCH  21  22
ATOM     22  C   UNL     1       2.329   8.799  17.791  0.00  0.00    +0.000 C 
BRANCH  22  23
ATOM     23  C   UNL     1       1.297   9.541  18.650  0.00  0.00    +0.000 C 
BRANCH  23  24
ATOM     24  C   UNL     1      -0.061   9.635  17.953  0.00  0.00    +0.000 C 
ATOM     25  C   UNL     1      -1.037  10.491  18.748  0.00  0.00    +0.000 C 
ENDBRANCH  23  24
ENDBRANCH  22  23
ENDBRANCH  21  22
ENDBRANCH  20  21
ENDBRANCH   1  20
TORSDOF 20
ENDMDL
MODEL 6
REMARK VINA RESULT:      -5.8      1.449      4.881
REMARK  Name = 
REMARK  24 active torsions:
REMARK  status: ('A' for Active; 'I' for Inactive)
REMARK    1  A    between atoms: C_1  and  C_2
REMARK    2  A    between atoms: C_2  and  C_3
REMARK    3  A    between atoms: C_3  and  C_4
REMARK    4  A    between atoms: C_4  and  C_5
REMARK    5  A    between atoms: C_5  and  C_6
REMARK    6  A    between atoms: C_6  and  N_7
REMARK    7  A    between atoms: N_7  and  C_8
REMARK    8  A    between atoms: N_7  and  C_14
REMARK    9  A    between atoms: N_7  and  C_20
REMARK   10  A    between atoms: C_8  and  C_9
REMARK   11  A    between atoms: C_9  and  C_10
REMARK   12  A    between atoms: C_10  and  C_11
REMARK   13  A    between atoms: C_11  and  C_12
REMARK   14  A    between atoms: C_12  and  C_13
REMARK   15  A    between atoms: C_14  and  C_15
REMARK   16  A    between atoms: C_15  and  C_16
REMARK   17  A    between atoms: C_16  and  C_17
REMARK   18  A    between atoms: C_17  and  C_18
REMARK   19  A    between atoms: C_18  and  C_19
REMARK   20  A    between atoms: C_20  and  C_21
REMARK   21  A    between atoms: C_21  and  C_22
REMARK   22  A    between atoms: C_22  and  C_23
REMARK   23  A    between atoms: C_23  and  C_24
REMARK   24  A    between atoms: C_24  and  C_25
REMARK                            x       y       z     vdW  Elec       q    Type
REMARK                         _______ _______ _______ _____ _____    ______ ____
ROOT
ATOM      1  N   UNL     1       3.880   4.545  17.973  0.00  0.00    +0.000 N 
ENDROOT
BRANCH   1   2
ATOM      2  C   UNL     1       4.626   5.202  16.733  0.00  0.00    +0.000 C 
BRANCH   2   3
ATOM      3  C   UNL     1       5.139   4.213  15.703  0.00  0.00    +0.000 C 
BRANCH   3   4
ATOM      4  C   UNL     1       6.596   4.369  15.265  0.00  0.00    +0.000 C 
BRANCH   4   5
ATOM      5  C   UNL     1       6.585   4.561  13.741  0.00  0.00    +0.000 C 
BRANCH   5   6
ATOM      6  C   UNL     1       6.220   3.304  12.968  0.00  0.00    +0.000 C 
ATOM      7  C   UNL     1       5.016   3.564  12.075  0.00  0.00    +0.000 C 
ENDBRANCH   5   6
ENDBRANCH   4   5
ENDBRANCH   3   4
ENDBRANCH   2   3
ENDBRANCH   1   2
BRANCH   1   8
ATOM      8  C   UNL     1       3.621   3.002  17.781  0.00  0.00    +0.000 C 
BRANCH   8   9
ATOM      9  C   UNL     1       2.134   2.613  17.782  0.00  0.00    +0.000 C 
BRANCH   9  10
ATOM     10  C   UNL     1       1.651   1.842  19.019  0.00  0.00    +0.000 C 
BRANCH  10  11
ATOM     11  C   UNL     1       0.785   2.797  19.858  0.00  0.00    +0.000 C 
BRANCH  11  13
ATOM     12  C   UNL     1       2.742   2.640  21.401  0.00  0.00    +0.000 C 
ATOM     13  C   UNL     1       1.265   3.004  21.288  0.00  0.00    +0.000 C 
ENDBRANCH  11  13
ENDBRANCH  10  11
ENDBRANCH   9  10
ENDBRANCH   8   9
ENDBRANCH   1   8
BRANCH   1  14
ATOM     14  C   UNL     1       4.822   4.770  19.238  0.00  0.00    +0.000 C 
BRANCH  14  15
ATOM     15  C   UNL     1       5.765   5.967  19.072  0.00  0.00    +0.000 C 
BRANCH  15  16
ATOM     16  C   UNL     1       7.238   5.637  19.333  0.00  0.00    +0.000 C 
BRANCH  16  17
ATOM     17  C   UNL     1       8.085   6.325  18.256  0.00  0.00    +0.000 C 
BRANCH  17  18
ATOM     18  C   UNL     1       7.393   7.507  17.589  0.00  0.00    +0.000 C 
ATOM     19  C   UNL     1       8.142   8.797  17.898  0.00  0.00    +0.000 C 
ENDBRANCH  17  18
ENDBRANCH  16  17
ENDBRANCH  15  16
ENDBRANCH  14  15
ENDBRANCH   1  14
BRANCH   1  20
ATOM     20  C   UNL     1       2.555   5.329  18.259  0.00  0.00    +0.000 C 
BRANCH  20  21
ATOM     21  C   UNL     1       2.507   5.989  19.647  0.00  0.00    +0.000 C 
BRANCH  21  22
ATOM     22  C   UNL     1       2.074   7.460  19.555  0.00  0.00    +0.000 C 
BRANCH  22  23
ATOM     23  C   UNL     1       2.512   8.083  18.224  0.00  0.00    +0.000 C 
BRANCH  23  24
ATOM     24  C   UNL     1       1.535   9.162  17.752  0.00  0.00    +0.000 C 
ATOM     25  C   UNL     1       2.004  10.553  18.156  0.00  0.00    +0.000 C 
ENDBRANCH  23  24
ENDBRANCH  22  23
ENDBRANCH  21  22
ENDBRANCH  20  21
ENDBRANCH   1  20
TORSDOF 20
ENDMDL
MODEL 7
REMARK VINA RESULT:      -5.7      1.600      2.875
REMARK  Name = 
REMARK  24 active torsions:
REMARK  status: ('A' for Active; 'I' for Inactive)
REMARK    1  A    between atoms: C_1  and  C_2
REMARK    2  A    between atoms: C_2  and  C_3
REMARK    3  A    between atoms: C_3  and  C_4
REMARK    4  A    between atoms: C_4  and  C_5
REMARK    5  A    between atoms: C_5  and  C_6
REMARK    6  A    between atoms: C_6  and  N_7
REMARK    7  A    between atoms: N_7  and  C_8
REMARK    8  A    between atoms: N_7  and  C_14
REMARK    9  A    between atoms: N_7  and  C_20
REMARK   10  A    between atoms: C_8  and  C_9
REMARK   11  A    between atoms: C_9  and  C_10
REMARK   12  A    between atoms: C_10  and  C_11
REMARK   13  A    between atoms: C_11  and  C_12
REMARK   14  A    between atoms: C_12  and  C_13
REMARK   15  A    between atoms: C_14  and  C_15
REMARK   16  A    between atoms: C_15  and  C_16
REMARK   17  A    between atoms: C_16  and  C_17
REMARK   18  A    between atoms: C_17  and  C_18
REMARK   19  A    between atoms: C_18  and  C_19
REMARK   20  A    between atoms: C_20  and  C_21
REMARK   21  A    between atoms: C_21  and  C_22
REMARK   22  A    between atoms: C_22  and  C_23
REMARK   23  A    between atoms: C_23  and  C_24
REMARK   24  A    between atoms: C_24  and  C_25
REMARK                            x       y       z     vdW  Elec       q    Type
REMARK                         _______ _______ _______ _____ _____    ______ ____
ROOT
ATOM      1  N   UNL     1       5.068   4.569  18.184  0.00  0.00    +0.000 N 
ENDROOT
BRANCH   1   2
ATOM      2  C   UNL     1       4.773   3.381  19.198  0.00  0.00    +0.000 C 
BRANCH   2   3
ATOM      3  C   UNL     1       3.736   2.381  18.721  0.00  0.00    +0.000 C 
BRANCH   3   4
ATOM      4  C   UNL     1       2.414   2.343  19.487  0.00  0.00    +0.000 C 
BRANCH   4   5
ATOM      5  C   UNL     1       2.719   2.791  20.925  0.00  0.00    +0.000 C 
BRANCH   5   6
ATOM      6  C   UNL     1       2.133   4.147  21.281  0.00  0.00    +0.000 C 
ATOM      7  C   UNL     1       0.959   4.471  20.368  0.00  0.00    +0.000 C 
ENDBRANCH   5   6
ENDBRANCH   4   5
ENDBRANCH   3   4
ENDBRANCH   2   3
ENDBRANCH   1   2
BRANCH   1   8
ATOM      8  C   UNL     1       3.760   5.323  17.732  0.00  0.00    +0.000 C 
BRANCH   8   9
ATOM      9  C   UNL     1       3.772   6.831  18.031  0.00  0.00    +0.000 C 
BRANCH   9  10
ATOM     10  C   UNL     1       2.486   7.395  18.652  0.00  0.00    +0.000 C 
BRANCH  10  11
ATOM     11  C   UNL     1       1.878   8.389  17.647  0.00  0.00    +0.000 C 
BRANCH  11  13
ATOM     12  C   UNL     1       0.227  10.088  18.442  0.00  0.00    +0.000 C 
ATOM     13  C   UNL     1       1.703   9.806  18.179  0.00  0.00    +0.000 C 
ENDBRANCH  11  13
ENDBRANCH  10  11
ENDBRANCH   9  10
ENDBRANCH   8   9
ENDBRANCH   1   8
BRANCH   1  14
ATOM     14  C   UNL     1       6.028   5.586  18.946  0.00  0.00    +0.000 C 
BRANCH  14  15
ATOM     15  C   UNL     1       7.386   5.754  18.255  0.00  0.00    +0.000 C 
BRANCH  15  16
ATOM     16  C   UNL     1       7.557   7.098  17.542  0.00  0.00    +0.000 C 
BRANCH  16  17
ATOM     17  C   UNL     1       8.357   8.032  18.458  0.00  0.00    +0.000 C 
BRANCH  17  18
ATOM     18  C   UNL     1       8.331   9.492  18.023  0.00  0.00    +0.000 C 
ATOM     19  C   UNL     1       9.192  10.334  18.956  0.00  0.00    +0.000 C 
ENDBRANCH  17  18
ENDBRANCH  16  17
ENDBRANCH  15  16
ENDBRANCH  14  15
ENDBRANCH   1  14
BRANCH   1  20
ATOM     20  C   UNL     1       5.878   4.021  16.961  0.00  0.00    +0.000 C 
BRANCH  20  21
ATOM     21  C   UNL     1       5.270   4.383  15.596  0.00  0.00    +0.000 C 
BRANCH  21  22
ATOM     22  C   UNL     1       6.312   4.287  14.472  0.00  0.00    +0.000 C 
BRANCH  22  23
ATOM     23  C   UNL     1       5.728   3.595  13.235  0.00  0.00    +0.000 C 
BRANCH  23  24
ATOM     24  C   UNL     1       6.678   3.670  12.039  0.00  0.00    +0.000 C 
ATOM     25  C   UNL     1       7.505   4.948  12.063  0.00  0.00    +0.000 C 
ENDBRANCH  23  24
ENDBRANCH  22  23
ENDBRANCH  21  22
ENDBRANCH  20  21
ENDBRANCH   1  20
TORSDOF 20
ENDMDL
MODEL 8
REMARK VINA RESULT:      -5.7      1.147      6.503
REMARK  Name = 
REMARK  24 active torsions:
REMARK  status: ('A' for Active; 'I' for Inactive)
REMARK    1  A    between atoms: C_1  and  C_2
REMARK    2  A    between atoms: C_2  and  C_3
REMARK    3  A    between atoms: C_3  and  C_4
REMARK    4  A    between atoms: C_4  and  C_5
REMARK    5  A    between atoms: C_5  and  C_6
REMARK    6  A    between atoms: C_6  and  N_7
REMARK    7  A    between atoms: N_7  and  C_8
REMARK    8  A    between atoms: N_7  and  C_14
REMARK    9  A    between atoms: N_7  and  C_20
REMARK   10  A    between atoms: C_8  and  C_9
REMARK   11  A    between atoms: C_9  and  C_10
REMARK   12  A    between atoms: C_10  and  C_11
REMARK   13  A    between atoms: C_11  and  C_12
REMARK   14  A    between atoms: C_12  and  C_13
REMARK   15  A    between atoms: C_14  and  C_15
REMARK   16  A    between atoms: C_15  and  C_16
REMARK   17  A    between atoms: C_16  and  C_17
REMARK   18  A    between atoms: C_17  and  C_18
REMARK   19  A    between atoms: C_18  and  C_19
REMARK   20  A    between atoms: C_20  and  C_21
REMARK   21  A    between atoms: C_21  and  C_22
REMARK   22  A    between atoms: C_22  and  C_23
REMARK   23  A    between atoms: C_23  and  C_24
REMARK   24  A    between atoms: C_24  and  C_25
REMARK                            x       y       z     vdW  Elec       q    Type
REMARK                         _______ _______ _______ _____ _____    ______ ____
ROOT
ATOM      1  N   UNL     1       5.491   4.786  17.371  0.00  0.00    +0.000 N 
ENDROOT
BRANCH   1   2
ATOM      2  C   UNL     1       4.755   3.815  18.392  0.00  0.00    +0.000 C 
BRANCH   2   3
ATOM      3  C   UNL     1       3.632   2.992  17.788  0.00  0.00    +0.000 C 
BRANCH   3   4
ATOM      4  C   UNL     1       2.235   3.199  18.375  0.00  0.00    +0.000 C 
BRANCH   4   5
ATOM      5  C   UNL     1       2.078   2.186  19.520  0.00  0.00    +0.000 C 
BRANCH   5   6
ATOM      6  C   UNL     1       1.291   2.719  20.705  0.00  0.00    +0.000 C 
ATOM      7  C   UNL     1       0.949   4.187  20.494  0.00  0.00    +0.000 C 
ENDBRANCH   5   6
ENDBRANCH   4   5
ENDBRANCH   3   4
ENDBRANCH   2   3
ENDBRANCH   1   2
BRANCH   1   8
ATOM      8  C   UNL     1       6.813   5.406  17.965  0.00  0.00    +0.000 C 
BRANCH   8   9
ATOM      9  C   UNL     1       7.463   6.471  17.067  0.00  0.00    +0.000 C 
BRANCH   9  10
ATOM     10  C   UNL     1       7.220   7.928  17.484  0.00  0.00    +0.000 C 
BRANCH  10  11
ATOM     11  C   UNL     1       8.431   8.387  18.315  0.00  0.00    +0.000 C 
BRANCH  11  13
ATOM     12  C   UNL     1       9.329  10.353  19.565  0.00  0.00    +0.000 C 
ATOM     13  C   UNL     1       8.722   9.880  18.248  0.00  0.00    +0.000 C 
ENDBRANCH  11  13
ENDBRANCH  10  11
ENDBRANCH   9  10
ENDBRANCH   8   9
ENDBRANCH   1   8
BRANCH   1  14
ATOM     14  C   UNL     1       5.846   3.910  16.090  0.00  0.00    +0.000 C 
BRANCH  14  15
ATOM     15  C   UNL     1       5.712   4.691  14.778  0.00  0.00    +0.000 C 
BRANCH  15  16
ATOM     16  C   UNL     1       6.987   4.706  13.931  0.00  0.00    +0.000 C 
BRANCH  16  17
ATOM     17  C   UNL     1       6.623   4.290  12.501  0.00  0.00    +0.000 C 
BRANCH  17  18
ATOM     18  C   UNL     1       5.746   3.047  12.425  0.00  0.00    +0.000 C 
ATOM     19  C   UNL     1       4.546   3.305  11.522  0.00  0.00    +0.000 C 
ENDBRANCH  17  18
ENDBRANCH  16  17
ENDBRANCH  15  16
ENDBRANCH  14  15
ENDBRANCH   1  14
BRANCH   1  20
ATOM     20  C   UNL     1       4.491   5.892  16.892  0.00  0.00    +0.000 C 
BRANCH  20  21
ATOM     21  C   UNL     1       3.775   6.625  18.038  0.00  0.00    +0.000 C 
BRANCH  21  22
ATOM     22  C   UNL     1       3.008   7.855  17.528  0.00  0.00    +0.000 C 
BRANCH  22  23
ATOM     23  C   UNL     1       2.001   8.350  18.573  0.00  0.00    +0.000 C 
BRANCH  23  24
ATOM     24  C   UNL     1       2.078   7.539  19.867  0.00  0.00    +0.000 C 
ATOM     25  C   UNL     1       1.330   8.226  21.001  0.00  0.00    +0.000 C 
ENDBRANCH  23  24
ENDBRANCH  22  23
ENDBRANCH  21  22
ENDBRANCH  20  21
ENDBRANCH   1  20
TORSDOF 20
ENDMDL
MODEL 9
REMARK VINA RESULT:      -5.7      1.700      4.836
REMARK  Name = 
REMARK  24 active torsions:
REMARK  status: ('A' for Active; 'I' for Inactive)
REMARK    1  A    between atoms: C_1  and  C_2
REMARK    2  A    between atoms: C_2  and  C_3
REMARK    3  A    between atoms: C_3  and  C_4
REMARK    4  A    between atoms: C_4  and  C_5
REMARK    5  A    between atoms: C_5  and  C_6
REMARK    6  A    between atoms: C_6  and  N_7
REMARK    7  A    between atoms: N_7  and  C_8
REMARK    8  A    between atoms: N_7  and  C_14
REMARK    9  A    between atoms: N_7  and  C_20
REMARK   10  A    between atoms: C_8  and  C_9
REMARK   11  A    between atoms: C_9  and  C_10
REMARK   12  A    between atoms: C_10  and  C_11
REMARK   13  A    between atoms: C_11  and  C_12
REMARK   14  A    between atoms: C_12  and  C_13
REMARK   15  A    between atoms: C_14  and  C_15
REMARK   16  A    between atoms: C_15  and  C_16
REMARK   17  A    between atoms: C_16  and  C_17
REMARK   18  A    between atoms: C_17  and  C_18
REMARK   19  A    between atoms: C_18  and  C_19
REMARK   20  A    between atoms: C_20  and  C_21
REMARK   21  A    between atoms: C_21  and  C_22
REMARK   22  A    between atoms: C_22  and  C_23
REMARK   23  A    between atoms: C_23  and  C_24
REMARK   24  A    between atoms: C_24  and  C_25
REMARK                            x       y       z     vdW  Elec       q    Type
REMARK                         _______ _______ _______ _____ _____    ______ ____
ROOT
ATOM      1  N   UNL     1       4.570   4.672  17.905  0.00  0.00    +0.000 N 
ENDROOT
BRANCH   1   2
ATOM      2  C   UNL     1       4.631   3.656  16.684  0.00  0.00    +0.000 C 
BRANCH   2   3
ATOM      3  C   UNL     1       5.780   3.889  15.721  0.00  0.00    +0.000 C 
BRANCH   3   4
ATOM      4  C   UNL     1       5.411   4.316  14.300  0.00  0.00    +0.000 C 
BRANCH   4   5
ATOM      5  C   UNL     1       6.624   4.003  13.411  0.00  0.00    +0.000 C 
BRANCH   5   6
ATOM      6  C   UNL     1       6.261   3.369  12.079  0.00  0.00    +0.000 C 
ATOM      7  C   UNL     1       4.750   3.244  11.949  0.00  0.00    +0.000 C 
ENDBRANCH   5   6
ENDBRANCH   4   5
ENDBRANCH   3   4
ENDBRANCH   2   3
ENDBRANCH   1   2
BRANCH   1   8
ATOM      8  C   UNL     1       4.731   3.957  19.301  0.00  0.00    +0.000 C 
BRANCH   8   9
ATOM      9  C   UNL     1       3.679   2.869  19.571  0.00  0.00    +0.000 C 
BRANCH   9  10
ATOM     10  C   UNL     1       3.334   2.632  21.048  0.00  0.00    +0.000 C 
BRANCH  10  11
ATOM     11  C   UNL     1       1.803   2.698  21.188  0.00  0.00    +0.000 C 
BRANCH  11  13
ATOM     12  C   UNL     1       1.184   5.060  20.664  0.00  0.00    +0.000 C 
ATOM     13  C   UNL     1       1.109   3.613  20.188  0.00  0.00    +0.000 C 
ENDBRANCH  11  13
ENDBRANCH  10  11
ENDBRANCH   9  10
ENDBRANCH   8   9
ENDBRANCH   1   8
BRANCH   1  14
ATOM     14  C   UNL     1       5.767   5.701  17.697  0.00  0.00    +0.000 C 
BRANCH  14  15
ATOM     15  C   UNL     1       6.776   5.683  18.851  0.00  0.00    +0.000 C 
BRANCH  15  16
ATOM     16  C   UNL     1       7.936   6.667  18.677  0.00  0.00    +0.000 C 
BRANCH  16  17
ATOM     17  C   UNL     1       7.614   7.589  17.494  0.00  0.00    +0.000 C 
BRANCH  17  18
ATOM     18  C   UNL     1       8.091   9.023  17.683  0.00  0.00    +0.000 C 
ATOM     19  C   UNL     1       8.857   9.154  18.993  0.00  0.00    +0.000 C 
ENDBRANCH  17  18
ENDBRANCH  16  17
ENDBRANCH  15  16
ENDBRANCH  14  15
ENDBRANCH   1  14
BRANCH   1  20
ATOM     20  C   UNL     1       3.246   5.505  17.824  0.00  0.00    +0.000 C 
BRANCH  20  21
ATOM     21  C   UNL     1       3.468   7.012  17.619  0.00  0.00    +0.000 C 
BRANCH  21  22
ATOM     22  C   UNL     1       2.578   7.844  18.554  0.00  0.00    +0.000 C 
BRANCH  22  23
ATOM     23  C   UNL     1       1.707   8.824  17.760  0.00  0.00    +0.000 C 
BRANCH  23  24
ATOM     24  C   UNL     1       0.798   9.648  18.674  0.00  0.00    +0.000 C 
ATOM     25  C   UNL     1      -0.485  10.056  17.963  0.00  0.00    +0.000 C 
ENDBRANCH  23  24
ENDBRANCH  22  23
ENDBRANCH  21  22
ENDBRANCH  20  21
ENDBRANCH   1  20
TORSDOF 20
ENDMDL
