MODEL 1
REMARK VINA RESULT:      -6.9      0.000      0.000
REMARK  Name = 
REMARK  5 active torsions:
REMARK  status: ('A' for Active; 'I' for Inactive)
REMARK    1  A    between atoms: C_2  and  C_15
REMARK    2  A    between atoms: N_3  and  C_4
REMARK    3  A    between atoms: C_4  and  C_5
REMARK    4  A    between atoms: C_5  and  O_6
REMARK    5  A    between atoms: O_6  and  C_7
REMARK                            x       y       z     vdW  Elec       q    Type
REMARK                         _______ _______ _______ _____ _____    ______ ____
ROOT
ATOM      1  O   UNL     1       7.747   4.440  16.506  0.00  0.00    +0.000 OA
ATOM      2  C   UNL     1       7.065   5.115  15.749  0.00  0.00    +0.000 C 
ATOM      3  N   UNL     1       6.293   6.192  16.139  0.00  0.00    +0.000 N 
ATOM      4  H   UNL     1       5.583   6.526  15.502  0.00  0.00    +0.000 HD
ENDROOT
BRANCH   2   5
ATOM      5  C   UNL     1       7.057   4.769  14.313  0.00  0.00    +0.000 A 
ATOM      6  C   UNL     1       7.923   5.456  13.468  0.00  0.00    +0.000 A 
ATOM      7  N   UNL     1       7.985   5.259  12.127  0.00  0.00    +0.000 NA
ATOM      8  C   UNL     1       7.124   4.348  11.614  0.00  0.00    +0.000 A 
ATOM      9  C   UNL     1       6.219   3.628  12.380  0.00  0.00    +0.000 A 
ATOM     10 BR   UNL     1       5.044   2.395  11.571  0.00  0.00    +0.000 Br
ATOM     11  C   UNL     1       6.179   3.838  13.754  0.00  0.00    +0.000 A 
ENDBRANCH   2   5
BRANCH   3  12
ATOM     12  C   UNL     1       6.135   6.588  17.535  0.00  0.00    +0.000 C 
BRANCH  12  13
ATOM     13  C   UNL     1       5.250   5.666  18.376  0.00  0.00    +0.000 C 
BRANCH  13  14
ATOM     14  O   UNL     1       3.894   5.752  17.937  0.00  0.00    +0.000 OA
BRANCH  14  15
ATOM     15  C   UNL     1       2.949   5.236  18.794  0.00  0.00    +0.000 A 
ATOM     16  C   UNL     1       2.576   5.839  20.007  0.00  0.00    +0.000 A 
ATOM     17  C   UNL     1       1.575   5.284  20.802  0.00  0.00    +0.000 A 
ATOM     18  C   UNL     1       0.934   4.119  20.397  0.00  0.00    +0.000 A 
ATOM     19  C   UNL     1       1.307   3.492  19.205  0.00  0.00    +0.000 A 
ATOM     20 CL   UNL     1       0.462   2.043  18.777  0.00  0.00    +0.000 Cl
ATOM     21  C   UNL     1       2.318   4.039  18.402  0.00  0.00    +0.000 A 
ATOM     22 CL   UNL     1       2.811   3.258  16.931  0.00  0.00    +0.000 Cl
ENDBRANCH  14  15
ENDBRANCH  13  14
ENDBRANCH  12  13
ENDBRANCH   3  12
TORSDOF 5
ENDMDL
MODEL 2
REMARK VINA RESULT:      -6.8      3.595      4.501
REMARK  Name = 
REMARK  5 active torsions:
REMARK  status: ('A' for Active; 'I' for Inactive)
REMARK    1  A    between atoms: C_2  and  C_15
REMARK    2  A    between atoms: N_3  and  C_4
REMARK    3  A    between atoms: C_4  and  C_5
REMARK    4  A    between atoms: C_5  and  O_6
REMARK    5  A    between atoms: O_6  and  C_7
REMARK                            x       y       z     vdW  Elec       q    Type
REMARK                         _______ _______ _______ _____ _____    ______ ____
ROOT
ATOM      1  O   UNL     1       3.251   3.428  17.092  0.00  0.00    +0.000 OA
ATOM      2  C   UNL     1       4.204   4.135  17.383  0.00  0.00    +0.000 C 
ATOM      3  N   UNL     1       4.392   4.731  18.615  0.00  0.00    +0.000 N 
ATOM      4  H   UNL     1       5.062   5.484  18.684  0.00  0.00    +0.000 HD
ENDROOT
BRANCH   2   5
ATOM      5  C   UNL     1       5.238   4.378  16.356  0.00  0.00    +0.000 A 
ATOM      6  C   UNL     1       6.269   5.262  16.660  0.00  0.00    +0.000 A 
ATOM      7  N   UNL     1       7.255   5.598  15.791  0.00  0.00    +0.000 NA
ATOM      8  C   UNL     1       7.189   5.036  14.561  0.00  0.00    +0.000 A 
ATOM      9  C   UNL     1       6.191   4.156  14.169  0.00  0.00    +0.000 A 
ATOM     10 BR   UNL     1       6.172   3.441  12.425  0.00  0.00    +0.000 Br
ATOM     11  C   UNL     1       5.195   3.817  15.079  0.00  0.00    +0.000 A 
ENDBRANCH   2   5
BRANCH   3  12
ATOM     12  C   UNL     1       3.408   4.652  19.691  0.00  0.00    +0.000 C 
BRANCH  12  13
ATOM     13  C   UNL     1       2.244   5.638  19.580  0.00  0.00    +0.000 C 
BRANCH  13  14
ATOM     14  O   UNL     1       2.652   6.931  20.028  0.00  0.00    +0.000 OA
BRANCH  14  15
ATOM     15  C   UNL     1       1.985   8.000  19.472  0.00  0.00    +0.000 A 
ATOM     16  C   UNL     1       2.040   8.336  18.109  0.00  0.00    +0.000 A 
ATOM     17  C   UNL     1       1.299   9.405  17.608  0.00  0.00    +0.000 A 
ATOM     18  C   UNL     1       0.495  10.153  18.461  0.00  0.00    +0.000 A 
ATOM     19  C   UNL     1       0.447   9.848  19.825  0.00  0.00    +0.000 A 
ATOM     20 CL   UNL     1      -0.574  10.832  20.818  0.00  0.00    +0.000 Cl
ATOM     21  C   UNL     1       1.194   8.778  20.339  0.00  0.00    +0.000 A 
ATOM     22 CL   UNL     1       1.164   8.403  22.035  0.00  0.00    +0.000 Cl
ENDBRANCH  14  15
ENDBRANCH  13  14
ENDBRANCH  12  13
ENDBRANCH   3  12
TORSDOF 5
ENDMDL
MODEL 3
REMARK VINA RESULT:      -6.7      2.703      3.792
REMARK  Name = 
REMARK  5 active torsions:
REMARK  status: ('A' for Active; 'I' for Inactive)
REMARK    1  A    between atoms: C_2  and  C_15
REMARK    2  A    between atoms: N_3  and  C_4
REMARK    3  A    between atoms: C_4  and  C_5
REMARK    4  A    between atoms: C_5  and  O_6
REMARK    5  A    between atoms: O_6  and  C_7
REMARK                            x       y       z     vdW  Elec       q    Type
REMARK                         _______ _______ _______ _____ _____    ______ ____
ROOT
ATOM      1  O   UNL     1       3.086   3.708  16.923  0.00  0.00    +0.000 OA
ATOM      2  C   UNL     1       4.254   3.747  17.282  0.00  0.00    +0.000 C 
ATOM      3  N   UNL     1       4.693   3.442  18.556  0.00  0.00    +0.000 N 
ATOM      4  H   UNL     1       5.621   3.738  18.824  0.00  0.00    +0.000 HD
ENDROOT
BRANCH   2   5
ATOM      5  C   UNL     1       5.279   4.145  16.296  0.00  0.00    +0.000 A 
ATOM      6  C   UNL     1       6.225   5.091  16.679  0.00  0.00    +0.000 A 
ATOM      7  N   UNL     1       7.193   5.566  15.856  0.00  0.00    +0.000 NA
ATOM      8  C   UNL     1       7.195   5.086  14.590  0.00  0.00    +0.000 A 
ATOM      9  C   UNL     1       6.282   4.152  14.120  0.00  0.00    +0.000 A 
ATOM     10 BR   UNL     1       6.352   3.558  12.332  0.00  0.00    +0.000 Br
ATOM     11  C   UNL     1       5.304   3.670  14.984  0.00  0.00    +0.000 A 
ENDBRANCH   2   5
BRANCH   3  12
ATOM     12  C   UNL     1       3.783   3.123  19.652  0.00  0.00    +0.000 C 
BRANCH  12  13
ATOM     13  C   UNL     1       2.987   4.308  20.202  0.00  0.00    +0.000 C 
BRANCH  13  14
ATOM     14  O   UNL     1       3.400   5.515  19.562  0.00  0.00    +0.000 OA
BRANCH  14  15
ATOM     15  C   UNL     1       2.581   6.607  19.748  0.00  0.00    +0.000 A 
ATOM     16  C   UNL     1       1.744   6.779  20.863  0.00  0.00    +0.000 A 
ATOM     17  C   UNL     1       0.979   7.934  21.008  0.00  0.00    +0.000 A 
ATOM     18  C   UNL     1       1.037   8.932  20.042  0.00  0.00    +0.000 A 
ATOM     19  C   UNL     1       1.847   8.768  18.914  0.00  0.00    +0.000 A 
ATOM     20 CL   UNL     1       1.858  10.055  17.756  0.00  0.00    +0.000 Cl
ATOM     21  C   UNL     1       2.615   7.605  18.756  0.00  0.00    +0.000 A 
ATOM     22 CL   UNL     1       3.607   7.376  17.347  0.00  0.00    +0.000 Cl
ENDBRANCH  14  15
ENDBRANCH  13  14
ENDBRANCH  12  13
ENDBRANCH   3  12
TORSDOF 5
ENDMDL
MODEL 4
REMARK VINA RESULT:      -6.6      5.899      8.341
REMARK  Name = 
REMARK  5 active torsions:
REMARK  status: ('A' for Active; 'I' for Inactive)
REMARK    1  A    between atoms: C_2  and  C_15
REMARK    2  A    between atoms: N_3  and  C_4
REMARK    3  A    between atoms: C_4  and  C_5
REMARK    4  A    between atoms: C_5  and  O_6
REMARK    5  A    between atoms: O_6  and  C_7
REMARK                            x       y       z     vdW  Elec       q    Type
REMARK                         _______ _______ _______ _____ _____    ______ ____
ROOT
ATOM      1  O   UNL     1       0.792   9.509  18.102  0.00  0.00    +0.000 OA
ATOM      2  C   UNL     1      -0.078   9.979  18.818  0.00  0.00    +0.000 C 
ATOM      3  N   UNL     1       0.008  10.081  20.193  0.00  0.00    +0.000 N 
ATOM      4  H   UNL     1      -0.842  10.247  20.714  0.00  0.00    +0.000 HD
ENDROOT
BRANCH   2   5
ATOM      5  C   UNL     1      -1.315  10.481  18.185  0.00  0.00    +0.000 A 
ATOM      6  C   UNL     1      -2.156  11.293  18.940  0.00  0.00    +0.000 A 
ATOM      7  N   UNL     1      -3.336  11.786  18.488  0.00  0.00    +0.000 NA
ATOM      8  C   UNL     1      -3.693  11.429  17.232  0.00  0.00    +0.000 A 
ATOM      9  C   UNL     1      -2.923  10.613  16.414  0.00  0.00    +0.000 A 
ATOM     10 BR   UNL     1      -3.517  10.153  14.685  0.00  0.00    +0.000 Br
ATOM     11  C   UNL     1      -1.712  10.127  16.894  0.00  0.00    +0.000 A 
ENDBRANCH   2   5
BRANCH   3  12
ATOM     12  C   UNL     1       1.129   9.543  20.958  0.00  0.00    +0.000 C 
BRANCH  12  13
ATOM     13  C   UNL     1       1.176   8.017  21.058  0.00  0.00    +0.000 C 
BRANCH  13  14
ATOM     14  O   UNL     1       2.215   7.503  20.226  0.00  0.00    +0.000 OA
BRANCH  14  15
ATOM     15  C   UNL     1       2.144   6.159  19.934  0.00  0.00    +0.000 A 
ATOM     16  C   UNL     1       1.464   5.219  20.725  0.00  0.00    +0.000 A 
ATOM     17  C   UNL     1       1.393   3.881  20.341  0.00  0.00    +0.000 A 
ATOM     18  C   UNL     1       2.003   3.464  19.163  0.00  0.00    +0.000 A 
ATOM     19  C   UNL     1       2.705   4.381  18.375  0.00  0.00    +0.000 A 
ATOM     20 CL   UNL     1       3.440   3.778  16.928  0.00  0.00    +0.000 Cl
ATOM     21  C   UNL     1       2.787   5.727  18.758  0.00  0.00    +0.000 A 
ATOM     22 CL   UNL     1       3.678   6.873  17.802  0.00  0.00    +0.000 Cl
ENDBRANCH  14  15
ENDBRANCH  13  14
ENDBRANCH  12  13
ENDBRANCH   3  12
TORSDOF 5
ENDMDL
MODEL 5
REMARK VINA RESULT:      -6.6      6.139      8.685
REMARK  Name = 
REMARK  5 active torsions:
REMARK  status: ('A' for Active; 'I' for Inactive)
REMARK    1  A    between atoms: C_2  and  C_15
REMARK    2  A    between atoms: N_3  and  C_4
REMARK    3  A    between atoms: C_4  and  C_5
REMARK    4  A    between atoms: C_5  and  O_6
REMARK    5  A    between atoms: O_6  and  C_7
REMARK                            x       y       z     vdW  Elec       q    Type
REMARK                         _______ _______ _______ _____ _____    ______ ____
ROOT
ATOM      1  O   UNL     1       5.789   7.239  16.238  0.00  0.00    +0.000 OA
ATOM      2  C   UNL     1       6.145   6.762  17.305  0.00  0.00    +0.000 C 
ATOM      3  N   UNL     1       7.271   7.156  18.003  0.00  0.00    +0.000 N 
ATOM      4  H   UNL     1       7.616   6.548  18.733  0.00  0.00    +0.000 HD
ENDROOT
BRANCH   2   5
ATOM      5  C   UNL     1       5.323   5.692  17.907  0.00  0.00    +0.000 A 
ATOM      6  C   UNL     1       5.942   4.803  18.780  0.00  0.00    +0.000 A 
ATOM      7  N   UNL     1       5.307   3.757  19.367  0.00  0.00    +0.000 NA
ATOM      8  C   UNL     1       4.003   3.587  19.043  0.00  0.00    +0.000 A 
ATOM      9  C   UNL     1       3.312   4.417  18.172  0.00  0.00    +0.000 A 
ATOM     10 BR   UNL     1       1.501   4.087  17.766  0.00  0.00    +0.000 Br
ATOM     11  C   UNL     1       3.979   5.490  17.590  0.00  0.00    +0.000 A 
ENDBRANCH   2   5
BRANCH   3  12
ATOM     12  C   UNL     1       8.221   8.135  17.485  0.00  0.00    +0.000 C 
BRANCH  12  13
ATOM     13  C   UNL     1       8.056   9.554  18.032  0.00  0.00    +0.000 C 
BRANCH  13  14
ATOM     14  O   UNL     1       9.017   9.799  19.059  0.00  0.00    +0.000 OA
BRANCH  14  15
ATOM     15  C   UNL     1       9.740  10.965  18.941  0.00  0.00    +0.000 A 
ATOM     16  C   UNL     1      10.463  11.328  17.794  0.00  0.00    +0.000 A 
ATOM     17  C   UNL     1      11.133  12.549  17.729  0.00  0.00    +0.000 A 
ATOM     18  C   UNL     1      11.091  13.422  18.810  0.00  0.00    +0.000 A 
ATOM     19  C   UNL     1      10.396  13.067  19.970  0.00  0.00    +0.000 A 
ATOM     20 CL   UNL     1      10.397  14.209  21.272  0.00  0.00    +0.000 Cl
ATOM     21  C   UNL     1       9.725  11.838  20.047  0.00  0.00    +0.000 A 
ATOM     22 CL   UNL     1       8.878  11.372  21.491  0.00  0.00    +0.000 Cl
ENDBRANCH  14  15
ENDBRANCH  13  14
ENDBRANCH  12  13
ENDBRANCH   3  12
TORSDOF 5
ENDMDL
MODEL 6
REMARK VINA RESULT:      -6.6      6.085      8.547
REMARK  Name = 
REMARK  5 active torsions:
REMARK  status: ('A' for Active; 'I' for Inactive)
REMARK    1  A    between atoms: C_2  and  C_15
REMARK    2  A    between atoms: N_3  and  C_4
REMARK    3  A    between atoms: C_4  and  C_5
REMARK    4  A    between atoms: C_5  and  O_6
REMARK    5  A    between atoms: O_6  and  C_7
REMARK                            x       y       z     vdW  Elec       q    Type
REMARK                         _______ _______ _______ _____ _____    ______ ____
ROOT
ATOM      1  O   UNL     1       5.731   7.070  16.177  0.00  0.00    +0.000 OA
ATOM      2  C   UNL     1       6.049   6.697  17.297  0.00  0.00    +0.000 C 
ATOM      3  N   UNL     1       7.091   7.227  18.033  0.00  0.00    +0.000 N 
ATOM      4  H   UNL     1       7.431   6.700  18.825  0.00  0.00    +0.000 HD
ENDROOT
BRANCH   2   5
ATOM      5  C   UNL     1       5.273   5.607  17.922  0.00  0.00    +0.000 A 
ATOM      6  C   UNL     1       5.948   4.705  18.738  0.00  0.00    +0.000 A 
ATOM      7  N   UNL     1       5.358   3.642  19.338  0.00  0.00    +0.000 NA
ATOM      8  C   UNL     1       4.038   3.467  19.088  0.00  0.00    +0.000 A 
ATOM      9  C   UNL     1       3.291   4.309  18.277  0.00  0.00    +0.000 A 
ATOM     10 BR   UNL     1       1.461   3.971  17.971  0.00  0.00    +0.000 Br
ATOM     11  C   UNL     1       3.914   5.399  17.680  0.00  0.00    +0.000 A 
ENDBRANCH   2   5
BRANCH   3  12
ATOM     12  C   UNL     1       7.997   8.243  17.505  0.00  0.00    +0.000 C 
BRANCH  12  13
ATOM     13  C   UNL     1       8.518   9.248  18.535  0.00  0.00    +0.000 C 
BRANCH  13  14
ATOM     14  O   UNL     1       9.290  10.259  17.887  0.00  0.00    +0.000 OA
BRANCH  14  15
ATOM     15  C   UNL     1       9.630  11.346  18.661  0.00  0.00    +0.000 A 
ATOM     16  C   UNL     1      10.580  11.308  19.695  0.00  0.00    +0.000 A 
ATOM     17  C   UNL     1      10.909  12.461  20.404  0.00  0.00    +0.000 A 
ATOM     18  C   UNL     1      10.291  13.667  20.093  0.00  0.00    +0.000 A 
ATOM     19  C   UNL     1       9.326  13.720  19.084  0.00  0.00    +0.000 A 
ATOM     20 CL   UNL     1       8.602  15.260  18.763  0.00  0.00    +0.000 Cl
ATOM     21  C   UNL     1       8.984  12.563  18.369  0.00  0.00    +0.000 A 
ATOM     22 CL   UNL     1       7.767  12.607  17.129  0.00  0.00    +0.000 Cl
ENDBRANCH  14  15
ENDBRANCH  13  14
ENDBRANCH  12  13
ENDBRANCH   3  12
TORSDOF 5
ENDMDL
MODEL 7
REMARK VINA RESULT:      -6.6      1.340      1.357
REMARK  Name = 
REMARK  5 active torsions:
REMARK  status: ('A' for Active; 'I' for Inactive)
REMARK    1  A    between atoms: C_2  and  C_15
REMARK    2  A    between atoms: N_3  and  C_4
REMARK    3  A    between atoms: C_4  and  C_5
REMARK    4  A    between atoms: C_5  and  O_6
REMARK    5  A    between atoms: O_6  and  C_7
REMARK                            x       y       z     vdW  Elec       q    Type
REMARK                         _______ _______ _______ _____ _____    ______ ____
ROOT
ATOM      1  O   UNL     1       5.682   6.030  16.159  0.00  0.00    +0.000 OA
ATOM      2  C   UNL     1       6.415   5.093  15.879  0.00  0.00    +0.000 C 
ATOM      3  N   UNL     1       7.134   4.358  16.801  0.00  0.00    +0.000 N 
ATOM      4  H   UNL     1       7.890   3.778  16.464  0.00  0.00    +0.000 HD
ENDROOT
BRANCH   2   5
ATOM      5  C   UNL     1       6.549   4.705  14.461  0.00  0.00    +0.000 A 
ATOM      6  C   UNL     1       7.664   5.154  13.760  0.00  0.00    +0.000 A 
ATOM      7  N   UNL     1       7.883   4.899  12.446  0.00  0.00    +0.000 NA
ATOM      8  C   UNL     1       6.929   4.180  11.806  0.00  0.00    +0.000 A 
ATOM      9  C   UNL     1       5.781   3.705  12.423  0.00  0.00    +0.000 A 
ATOM     10 BR   UNL     1       4.498   2.730  11.443  0.00  0.00    +0.000 Br
ATOM     11  C   UNL     1       5.581   3.969  13.774  0.00  0.00    +0.000 A 
ENDBRANCH   2   5
BRANCH   3  12
ATOM     12  C   UNL     1       7.169   4.687  18.223  0.00  0.00    +0.000 C 
BRANCH  12  13
ATOM     13  C   UNL     1       5.812   5.023  18.846  0.00  0.00    +0.000 C 
BRANCH  13  14
ATOM     14  O   UNL     1       5.159   3.828  19.274  0.00  0.00    +0.000 OA
BRANCH  14  15
ATOM     15  C   UNL     1       3.821   3.947  19.576  0.00  0.00    +0.000 A 
ATOM     16  C   UNL     1       3.281   4.986  20.352  0.00  0.00    +0.000 A 
ATOM     17  C   UNL     1       1.908   5.069  20.575  0.00  0.00    +0.000 A 
ATOM     18  C   UNL     1       1.056   4.115  20.029  0.00  0.00    +0.000 A 
ATOM     19  C   UNL     1       1.578   3.061  19.274  0.00  0.00    +0.000 A 
ATOM     20 CL   UNL     1       0.450   1.913  18.635  0.00  0.00    +0.000 Cl
ATOM     21  C   UNL     1       2.959   2.965  19.050  0.00  0.00    +0.000 A 
ATOM     22 CL   UNL     1       3.625   1.647  18.135  0.00  0.00    +0.000 Cl
ENDBRANCH  14  15
ENDBRANCH  13  14
ENDBRANCH  12  13
ENDBRANCH   3  12
TORSDOF 5
ENDMDL
MODEL 8
REMARK VINA RESULT:      -6.6      5.524      7.101
REMARK  Name = 
REMARK  5 active torsions:
REMARK  status: ('A' for Active; 'I' for Inactive)
REMARK    1  A    between atoms: C_2  and  C_15
REMARK    2  A    between atoms: N_3  and  C_4
REMARK    3  A    between atoms: C_4  and  C_5
REMARK    4  A    between atoms: C_5  and  O_6
REMARK    5  A    between atoms: O_6  and  C_7
REMARK                            x       y       z     vdW  Elec       q    Type
REMARK                         _______ _______ _______ _____ _____    ______ ____
ROOT
ATOM      1  O   UNL     1       4.165   6.897  17.027  0.00  0.00    +0.000 OA
ATOM      2  C   UNL     1       3.288   6.594  17.821  0.00  0.00    +0.000 C 
ATOM      3  N   UNL     1       2.315   7.459  18.282  0.00  0.00    +0.000 N 
ATOM      4  H   UNL     1       1.796   7.196  19.109  0.00  0.00    +0.000 HD
ENDROOT
BRANCH   2   5
ATOM      5  C   UNL     1       3.250   5.208  18.331  0.00  0.00    +0.000 A 
ATOM      6  C   UNL     1       3.832   4.208  17.558  0.00  0.00    +0.000 A 
ATOM      7  N   UNL     1       3.829   2.894  17.897  0.00  0.00    +0.000 NA
ATOM      8  C   UNL     1       3.197   2.573  19.050  0.00  0.00    +0.000 A 
ATOM      9  C   UNL     1       2.579   3.502  19.875  0.00  0.00    +0.000 A 
ATOM     10 BR   UNL     1       1.704   2.954  21.453  0.00  0.00    +0.000 Br
ATOM     11  C   UNL     1       2.602   4.845  19.514  0.00  0.00    +0.000 A 
ENDBRANCH   2   5
BRANCH   3  12
ATOM     12  C   UNL     1       2.286   8.877  17.934  0.00  0.00    +0.000 C 
BRANCH  12  13
ATOM     13  C   UNL     1       0.979   9.600  18.263  0.00  0.00    +0.000 C 
BRANCH  13  14
ATOM     14  O   UNL     1       1.204  10.585  19.272  0.00  0.00    +0.000 OA
BRANCH  14  15
ATOM     15  C   UNL     1       0.651  10.322  20.505  0.00  0.00    +0.000 A 
ATOM     16  C   UNL     1       0.892   9.150  21.241  0.00  0.00    +0.000 A 
ATOM     17  C   UNL     1       0.335   8.974  22.506  0.00  0.00    +0.000 A 
ATOM     18  C   UNL     1      -0.473   9.965  23.052  0.00  0.00    +0.000 A 
ATOM     19  C   UNL     1      -0.743  11.128  22.326  0.00  0.00    +0.000 A 
ATOM     20 CL   UNL     1      -1.763  12.309  23.076  0.00  0.00    +0.000 Cl
ATOM     21  C   UNL     1      -0.193  11.310  21.049  0.00  0.00    +0.000 A 
ATOM     22 CL   UNL     1      -0.541  12.739  20.123  0.00  0.00    +0.000 Cl
ENDBRANCH  14  15
ENDBRANCH  13  14
ENDBRANCH  12  13
ENDBRANCH   3  12
TORSDOF 5
ENDMDL
MODEL 9
REMARK VINA RESULT:      -6.5      4.003      5.371
REMARK  Name = 
REMARK  5 active torsions:
REMARK  status: ('A' for Active; 'I' for Inactive)
REMARK    1  A    between atoms: C_2  and  C_15
REMARK    2  A    between atoms: N_3  and  C_4
REMARK    3  A    between atoms: C_4  and  C_5
REMARK    4  A    between atoms: C_5  and  O_6
REMARK    5  A    between atoms: O_6  and  C_7
REMARK                            x       y       z     vdW  Elec       q    Type
REMARK                         _______ _______ _______ _____ _____    ______ ____
ROOT
ATOM      1  O   UNL     1       2.870   2.978  18.342  0.00  0.00    +0.000 OA
ATOM      2  C   UNL     1       3.496   4.021  18.461  0.00  0.00    +0.000 C 
ATOM      3  N   UNL     1       3.081   5.103  19.212  0.00  0.00    +0.000 N 
ATOM      4  H   UNL     1       3.531   5.994  19.054  0.00  0.00    +0.000 HD
ENDROOT
BRANCH   2   5
ATOM      5  C   UNL     1       4.791   4.147  17.761  0.00  0.00    +0.000 A 
ATOM      6  C   UNL     1       5.922   4.432  18.520  0.00  0.00    +0.000 A 
ATOM      7  N   UNL     1       7.159   4.609  17.993  0.00  0.00    +0.000 NA
ATOM      8  C   UNL     1       7.257   4.518  16.646  0.00  0.00    +0.000 A 
ATOM      9  C   UNL     1       6.180   4.251  15.812  0.00  0.00    +0.000 A 
ATOM     10 BR   UNL     1       6.413   4.163  13.943  0.00  0.00    +0.000 Br
ATOM     11  C   UNL     1       4.922   4.062  16.374  0.00  0.00    +0.000 A 
ENDBRANCH   2   5
BRANCH   3  12
ATOM     12  C   UNL     1       1.784   5.153  19.881  0.00  0.00    +0.000 C 
BRANCH  12  13
ATOM     13  C   UNL     1       1.599   6.318  20.854  0.00  0.00    +0.000 C 
BRANCH  13  14
ATOM     14  O   UNL     1       1.967   7.546  20.225  0.00  0.00    +0.000 OA
BRANCH  14  15
ATOM     15  C   UNL     1       1.222   8.650  20.575  0.00  0.00    +0.000 A 
ATOM     16  C   UNL     1       0.755   8.902  21.876  0.00  0.00    +0.000 A 
ATOM     17  C   UNL     1       0.048  10.066  22.167  0.00  0.00    +0.000 A 
ATOM     18  C   UNL     1      -0.205  10.994  21.163  0.00  0.00    +0.000 A 
ATOM     19  C   UNL     1       0.231  10.749  19.857  0.00  0.00    +0.000 A 
ATOM     20 CL   UNL     1      -0.129  11.953  18.666  0.00  0.00    +0.000 Cl
ATOM     21  C   UNL     1       0.938   9.577  19.554  0.00  0.00    +0.000 A 
ATOM     22 CL   UNL     1       1.464   9.247  17.931  0.00  0.00    +0.000 Cl
ENDBRANCH  14  15
ENDBRANCH  13  14
ENDBRANCH  12  13
ENDBRANCH   3  12
TORSDOF 5
ENDMDL
