MODEL 1
REMARK VINA RESULT:      -6.2      0.000      0.000
REMARK  Name = 
REMARK  11 active torsions:
REMARK  status: ('A' for Active; 'I' for Inactive)
REMARK    1  A    between atoms: C_1  and  O_2
REMARK    2  A    between atoms: O_2  and  C_3
REMARK    3  A    between atoms: C_6  and  S_7
REMARK    4  A    between atoms: S_7  and  N_10
REMARK    5  A    between atoms: N_10  and  C_11
REMARK    6  A    between atoms: N_10  and  C_20
REMARK    7  A    between atoms: C_11  and  C_12
REMARK    8  A    between atoms: C_20  and  C_21
REMARK    9  A    between atoms: C_20  and  C_27
REMARK   10  A    between atoms: C_21  and  C_22
REMARK   11  A    between atoms: N_29  and  O_30
REMARK                            x       y       z     vdW  Elec       q    Type
REMARK                         _______ _______ _______ _____ _____    ______ ____
ROOT
ATOM      1  N   UNL     1       4.817   5.306  18.095  0.00  0.00    +0.000 NA
ENDROOT
BRANCH   1   2
ATOM      2  S   UNL     1       6.475   5.141  18.470  0.00  0.00    +0.000 S 
ATOM      3  O   UNL     1       7.089   4.319  17.458  0.00  0.00    +0.000 OA
ATOM      4  O   UNL     1       6.541   4.741  19.864  0.00  0.00    +0.000 OA
BRANCH   2   8
ATOM      5  C   UNL     1       8.339   9.308  18.054  0.00  0.00    +0.000 A 
ATOM      6  C   UNL     1       8.876   8.393  18.967  0.00  0.00    +0.000 A 
ATOM      7  C   UNL     1       8.329   7.111  19.097  0.00  0.00    +0.000 A 
ATOM      8  C   UNL     1       7.226   6.751  18.318  0.00  0.00    +0.000 A 
ATOM      9  C   UNL     1       6.746   7.633  17.349  0.00  0.00    +0.000 A 
ATOM     10  C   UNL     1       7.269   8.922  17.248  0.00  0.00    +0.000 A 
BRANCH   5  12
ATOM     11  C   UNL     1       9.457  10.993  19.282  0.00  0.00    +0.000 C 
ATOM     12  O   UNL     1       8.925  10.545  18.040  0.00  0.00    +0.000 OA
ENDBRANCH   5  12
ENDBRANCH   2   8
ENDBRANCH   1   2
BRANCH   1  13
ATOM     13  C   UNL     1       3.877   5.737  19.151  0.00  0.00    +0.000 C 
BRANCH  13  14
ATOM     14  C   UNL     1       3.137   7.037  18.964  0.00  0.00    +0.000 A 
ATOM     15  C   UNL     1       3.210   7.789  17.783  0.00  0.00    +0.000 A 
ATOM     16  C   UNL     1       2.334   8.855  17.562  0.00  0.00    +0.000 A 
ATOM     17  C   UNL     1       1.359   9.173  18.509  0.00  0.00    +0.000 A 
ATOM     18  C   UNL     1       1.295   8.447  19.690  0.00  0.00    +0.000 A 
ATOM     19  F   UNL     1       0.348   8.738  20.592  0.00  0.00    +0.000 F 
ATOM     20  C   UNL     1       2.179   7.397  19.921  0.00  0.00    +0.000 A 
ATOM     21  F   UNL     1       2.077   6.687  21.055  0.00  0.00    +0.000 F 
ENDBRANCH  13  14
ENDBRANCH   1  13
BRANCH   1  22
ATOM     22  C   UNL     1       4.298   4.545  16.897  0.00  0.00    +0.000 C 
BRANCH  22  23
ATOM     23  C   UNL     1       5.130   4.585  15.619  0.00  0.00    +0.000 C 
ATOM     24  O   UNL     1       5.363   5.611  14.981  0.00  0.00    +0.000 OA
ATOM     25  N   UNL     1       5.685   3.382  15.239  0.00  0.00    +0.000 N 
ATOM     26  H   UNL     1       5.286   2.482  15.487  0.00  0.00    +0.000 HD
BRANCH  25  27
ATOM     27  O   UNL     1       6.414   3.419  14.026  0.00  0.00    +0.000 OA
ATOM     28  H   UNL     1       6.080   4.240  13.598  0.00  0.00    +0.000 HD
ENDBRANCH  25  27
ENDBRANCH  22  23
BRANCH  22  29
ATOM     29  C   UNL     1       3.833   3.093  17.157  0.00  0.00    +0.000 C 
BRANCH  29  30
ATOM     30  C   UNL     1       2.969   2.850  18.381  0.00  0.00    +0.000 A 
ATOM     31  C   UNL     1       3.278   2.355  19.636  0.00  0.00    +0.000 A 
ATOM     32  C   UNL     1       2.164   2.342  20.520  0.00  0.00    +0.000 A 
ATOM     33  C   UNL     1       1.025   2.817  19.916  0.00  0.00    +0.000 A 
ATOM     34  S   UNL     1       1.304   3.279  18.295  0.00  0.00    +0.000 S 
ENDBRANCH  29  30
ENDBRANCH  22  29
ENDBRANCH   1  22
TORSDOF 10
ENDMDL
MODEL 2
REMARK VINA RESULT:      -6.2      6.828      9.640
REMARK  Name = 
REMARK  11 active torsions:
REMARK  status: ('A' for Active; 'I' for Inactive)
REMARK    1  A    between atoms: C_1  and  O_2
REMARK    2  A    between atoms: O_2  and  C_3
REMARK    3  A    between atoms: C_6  and  S_7
REMARK    4  A    between atoms: S_7  and  N_10
REMARK    5  A    between atoms: N_10  and  C_11
REMARK    6  A    between atoms: N_10  and  C_20
REMARK    7  A    between atoms: C_11  and  C_12
REMARK    8  A    between atoms: C_20  and  C_21
REMARK    9  A    between atoms: C_20  and  C_27
REMARK   10  A    between atoms: C_21  and  C_22
REMARK   11  A    between atoms: N_29  and  O_30
REMARK                            x       y       z     vdW  Elec       q    Type
REMARK                         _______ _______ _______ _____ _____    ______ ____
ROOT
ATOM      1  N   UNL     1       0.640  11.622  19.420  0.00  0.00    +0.000 NA
ENDROOT
BRANCH   1   2
ATOM      2  S   UNL     1       1.747  12.856  19.831  0.00  0.00    +0.000 S 
ATOM      3  O   UNL     1       2.729  12.953  18.779  0.00  0.00    +0.000 OA
ATOM      4  O   UNL     1       2.171  12.588  21.193  0.00  0.00    +0.000 OA
BRANCH   2   8
ATOM      5  C   UNL     1      -0.488  16.859  19.853  0.00  0.00    +0.000 A 
ATOM      6  C   UNL     1      -0.467  16.079  18.692  0.00  0.00    +0.000 A 
ATOM      7  C   UNL     1       0.197  14.847  18.671  0.00  0.00    +0.000 A 
ATOM      8  C   UNL     1       0.860  14.403  19.818  0.00  0.00    +0.000 A 
ATOM      9  C   UNL     1       0.767  15.140  21.000  0.00  0.00    +0.000 A 
ATOM     10  C   UNL     1       0.135  16.384  21.006  0.00  0.00    +0.000 A 
BRANCH   5  12
ATOM     11  C   UNL     1      -2.005  18.203  18.633  0.00  0.00    +0.000 C 
ATOM     12  O   UNL     1      -1.131  18.062  19.749  0.00  0.00    +0.000 OA
ENDBRANCH   5  12
ENDBRANCH   2   8
ENDBRANCH   1   2
BRANCH   1  13
ATOM     13  C   UNL     1       1.082  10.517  18.544  0.00  0.00    +0.000 C 
BRANCH  13  14
ATOM     14  C   UNL     1       1.544   9.235  19.187  0.00  0.00    +0.000 A 
ATOM     15  C   UNL     1       1.169   8.858  20.484  0.00  0.00    +0.000 A 
ATOM     16  C   UNL     1       1.423   7.565  20.951  0.00  0.00    +0.000 A 
ATOM     17  C   UNL     1       2.037   6.625  20.124  0.00  0.00    +0.000 A 
ATOM     18  C   UNL     1       2.433   6.998  18.846  0.00  0.00    +0.000 A 
ATOM     19  F   UNL     1       3.005   6.091  18.042  0.00  0.00    +0.000 F 
ATOM     20  C   UNL     1       2.198   8.290  18.385  0.00  0.00    +0.000 A 
ATOM     21  F   UNL     1       2.557   8.619  17.135  0.00  0.00    +0.000 F 
ENDBRANCH  13  14
ENDBRANCH   1  13
BRANCH   1  22
ATOM     22  C   UNL     1      -0.832  11.947  19.528  0.00  0.00    +0.000 C 
BRANCH  22  23
ATOM     23  C   UNL     1      -1.737  11.520  18.377  0.00  0.00    +0.000 C 
ATOM     24  O   UNL     1      -2.618  10.666  18.473  0.00  0.00    +0.000 OA
ATOM     25  N   UNL     1      -1.558  12.213  17.199  0.00  0.00    +0.000 N 
ATOM     26  H   UNL     1      -0.683  12.657  16.941  0.00  0.00    +0.000 HD
BRANCH  25  27
ATOM     27  O   UNL     1      -2.368  11.777  16.122  0.00  0.00    +0.000 OA
ATOM     28  H   UNL     1      -2.187  12.452  15.429  0.00  0.00    +0.000 HD
ENDBRANCH  25  27
ENDBRANCH  22  23
BRANCH  22  29
ATOM     29  C   UNL     1      -1.513  11.592  20.871  0.00  0.00    +0.000 C 
BRANCH  29  30
ATOM     30  C   UNL     1      -1.840  12.741  21.808  0.00  0.00    +0.000 A 
ATOM     31  C   UNL     1      -1.404  13.028  23.089  0.00  0.00    +0.000 A 
ATOM     32  C   UNL     1      -1.923  14.253  23.593  0.00  0.00    +0.000 A 
ATOM     33  C   UNL     1      -2.753  14.868  22.688  0.00  0.00    +0.000 A 
ATOM     34  S   UNL     1      -2.900  13.973  21.240  0.00  0.00    +0.000 S 
ENDBRANCH  29  30
ENDBRANCH  22  29
ENDBRANCH   1  22
TORSDOF 10
ENDMDL
MODEL 3
REMARK VINA RESULT:      -6.2      2.875      5.744
REMARK  Name = 
REMARK  11 active torsions:
REMARK  status: ('A' for Active; 'I' for Inactive)
REMARK    1  A    between atoms: C_1  and  O_2
REMARK    2  A    between atoms: O_2  and  C_3
REMARK    3  A    between atoms: C_6  and  S_7
REMARK    4  A    between atoms: S_7  and  N_10
REMARK    5  A    between atoms: N_10  and  C_11
REMARK    6  A    between atoms: N_10  and  C_20
REMARK    7  A    between atoms: C_11  and  C_12
REMARK    8  A    between atoms: C_20  and  C_21
REMARK    9  A    between atoms: C_20  and  C_27
REMARK   10  A    between atoms: C_21  and  C_22
REMARK   11  A    between atoms: N_29  and  O_30
REMARK                            x       y       z     vdW  Elec       q    Type
REMARK                         _______ _______ _______ _____ _____    ______ ____
ROOT
ATOM      1  N   UNL     1       4.245   5.439  16.937  0.00  0.00    +0.000 NA
ENDROOT
BRANCH   1   2
ATOM      2  S   UNL     1       4.649   6.546  18.175  0.00  0.00    +0.000 S 
ATOM      3  O   UNL     1       5.599   7.492  17.645  0.00  0.00    +0.000 OA
ATOM      4  O   UNL     1       4.993   5.749  19.339  0.00  0.00    +0.000 OA
BRANCH   2   8
ATOM      5  C   UNL     1       0.896   8.957  19.234  0.00  0.00    +0.000 A 
ATOM      6  C   UNL     1       1.488   9.106  17.974  0.00  0.00    +0.000 A 
ATOM      7  C   UNL     1       2.625   8.367  17.628  0.00  0.00    +0.000 A 
ATOM      8  C   UNL     1       3.183   7.485  18.558  0.00  0.00    +0.000 A 
ATOM      9  C   UNL     1       2.543   7.274  19.780  0.00  0.00    +0.000 A 
ATOM     10  C   UNL     1       1.432   8.039  20.135  0.00  0.00    +0.000 A 
BRANCH   5  12
ATOM     11  C   UNL     1      -0.190  11.016  18.812  0.00  0.00    +0.000 C 
ATOM     12  O   UNL     1      -0.186   9.758  19.480  0.00  0.00    +0.000 OA
ENDBRANCH   5  12
ENDBRANCH   2   8
ENDBRANCH   1   2
BRANCH   1  13
ATOM     13  C   UNL     1       3.106   4.519  17.135  0.00  0.00    +0.000 C 
BRANCH  13  14
ATOM     14  C   UNL     1       3.110   3.624  18.348  0.00  0.00    +0.000 A 
ATOM     15  C   UNL     1       4.206   2.821  18.695  0.00  0.00    +0.000 A 
ATOM     16  C   UNL     1       4.261   2.191  19.941  0.00  0.00    +0.000 A 
ATOM     17  C   UNL     1       3.232   2.370  20.866  0.00  0.00    +0.000 A 
ATOM     18  C   UNL     1       2.133   3.145  20.521  0.00  0.00    +0.000 A 
ATOM     19  F   UNL     1       1.153   3.334  21.415  0.00  0.00    +0.000 F 
ATOM     20  C   UNL     1       2.067   3.758  19.273  0.00  0.00    +0.000 A 
ATOM     21  F   UNL     1       1.012   4.530  18.973  0.00  0.00    +0.000 F 
ENDBRANCH  13  14
ENDBRANCH   1  13
BRANCH   1  22
ATOM     22  C   UNL     1       5.326   5.089  15.941  0.00  0.00    +0.000 C 
BRANCH  22  23
ATOM     23  C   UNL     1       6.767   5.062  16.440  0.00  0.00    +0.000 C 
ATOM     24  O   UNL     1       7.631   5.865  16.092  0.00  0.00    +0.000 OA
ATOM     25  N   UNL     1       7.044   4.100  17.388  0.00  0.00    +0.000 N 
ATOM     26  H   UNL     1       6.524   3.232  17.468  0.00  0.00    +0.000 HD
BRANCH  25  27
ATOM     27  O   UNL     1       8.395   4.050  17.809  0.00  0.00    +0.000 OA
ATOM     28  H   UNL     1       8.336   4.315  18.754  0.00  0.00    +0.000 HD
ENDBRANCH  25  27
ENDBRANCH  22  23
BRANCH  22  29
ATOM     29  C   UNL     1       5.067   3.844  15.062  0.00  0.00    +0.000 C 
BRANCH  29  30
ATOM     30  C   UNL     1       5.711   3.818  13.687  0.00  0.00    +0.000 A 
ATOM     31  C   UNL     1       6.971   4.197  13.261  0.00  0.00    +0.000 A 
ATOM     32  C   UNL     1       7.188   3.952  11.876  0.00  0.00    +0.000 A 
ATOM     33  C   UNL     1       6.083   3.400  11.274  0.00  0.00    +0.000 A 
ATOM     34  S   UNL     1       4.796   3.178  12.376  0.00  0.00    +0.000 S 
ENDBRANCH  29  30
ENDBRANCH  22  29
ENDBRANCH   1  22
TORSDOF 10
ENDMDL
MODEL 4
REMARK VINA RESULT:      -6.2      5.699      8.581
REMARK  Name = 
REMARK  11 active torsions:
REMARK  status: ('A' for Active; 'I' for Inactive)
REMARK    1  A    between atoms: C_1  and  O_2
REMARK    2  A    between atoms: O_2  and  C_3
REMARK    3  A    between atoms: C_6  and  S_7
REMARK    4  A    between atoms: S_7  and  N_10
REMARK    5  A    between atoms: N_10  and  C_11
REMARK    6  A    between atoms: N_10  and  C_20
REMARK    7  A    between atoms: C_11  and  C_12
REMARK    8  A    between atoms: C_20  and  C_21
REMARK    9  A    between atoms: C_20  and  C_27
REMARK   10  A    between atoms: C_21  and  C_22
REMARK   11  A    between atoms: N_29  and  O_30
REMARK                            x       y       z     vdW  Elec       q    Type
REMARK                         _______ _______ _______ _____ _____    ______ ____
ROOT
ATOM      1  N   UNL     1       0.163  10.882  19.700  0.00  0.00    +0.000 NA
ENDROOT
BRANCH   1   2
ATOM      2  S   UNL     1       0.521   9.684  20.864  0.00  0.00    +0.000 S 
ATOM      3  O   UNL     1      -0.716   9.077  21.285  0.00  0.00    +0.000 OA
ATOM      4  O   UNL     1       1.390  10.312  21.843  0.00  0.00    +0.000 OA
BRANCH   2   8
ATOM      5  C   UNL     1       2.936   6.429  18.722  0.00  0.00    +0.000 A 
ATOM      6  C   UNL     1       2.384   6.171  19.981  0.00  0.00    +0.000 A 
ATOM      7  C   UNL     1       1.631   7.148  20.644  0.00  0.00    +0.000 A 
ATOM      8  C   UNL     1       1.446   8.397  20.045  0.00  0.00    +0.000 A 
ATOM      9  C   UNL     1       1.924   8.623  18.754  0.00  0.00    +0.000 A 
ATOM     10  C   UNL     1       2.704   7.661  18.113  0.00  0.00    +0.000 A 
BRANCH   5  12
ATOM     11  C   UNL     1       4.769   4.956  18.988  0.00  0.00    +0.000 C 
ATOM     12  O   UNL     1       3.687   5.418  18.185  0.00  0.00    +0.000 OA
ENDBRANCH   5  12
ENDBRANCH   2   8
ENDBRANCH   1   2
BRANCH   1  13
ATOM     13  C   UNL     1      -0.443  10.481  18.414  0.00  0.00    +0.000 C 
BRANCH  13  14
ATOM     14  C   UNL     1      -1.913  10.741  18.202  0.00  0.00    +0.000 A 
ATOM     15  C   UNL     1      -2.675  11.538  19.067  0.00  0.00    +0.000 A 
ATOM     16  C   UNL     1      -3.965  11.942  18.712  0.00  0.00    +0.000 A 
ATOM     17  C   UNL     1      -4.504  11.573  17.479  0.00  0.00    +0.000 A 
ATOM     18  C   UNL     1      -3.764  10.765  16.627  0.00  0.00    +0.000 A 
ATOM     19  F   UNL     1      -4.272  10.425  15.435  0.00  0.00    +0.000 F 
ATOM     20  C   UNL     1      -2.487  10.345  16.987  0.00  0.00    +0.000 A 
ATOM     21  F   UNL     1      -1.776   9.592  16.133  0.00  0.00    +0.000 F 
ENDBRANCH  13  14
ENDBRANCH   1  13
BRANCH   1  22
ATOM     22  C   UNL     1       0.913  12.191  19.798  0.00  0.00    +0.000 C 
BRANCH  22  23
ATOM     23  C   UNL     1       1.948  12.495  18.720  0.00  0.00    +0.000 C 
ATOM     24  O   UNL     1       2.513  11.635  18.046  0.00  0.00    +0.000 OA
ATOM     25  N   UNL     1       2.176  13.834  18.483  0.00  0.00    +0.000 N 
ATOM     26  H   UNL     1       2.029  14.555  19.181  0.00  0.00    +0.000 HD
BRANCH  25  27
ATOM     27  O   UNL     1       3.174  14.106  17.516  0.00  0.00    +0.000 OA
ATOM     28  H   UNL     1       3.077  13.355  16.888  0.00  0.00    +0.000 HD
ENDBRANCH  25  27
ENDBRANCH  22  23
BRANCH  22  29
ATOM     29  C   UNL     1       0.056  13.452  20.053  0.00  0.00    +0.000 C 
BRANCH  29  30
ATOM     30  C   UNL     1      -0.540  13.618  21.439  0.00  0.00    +0.000 A 
ATOM     31  C   UNL     1      -1.322  12.772  22.205  0.00  0.00    +0.000 A 
ATOM     32  C   UNL     1      -1.624  13.303  23.491  0.00  0.00    +0.000 A 
ATOM     33  C   UNL     1      -1.073  14.549  23.672  0.00  0.00    +0.000 A 
ATOM     34  S   UNL     1      -0.197  15.069  22.301  0.00  0.00    +0.000 S 
ENDBRANCH  29  30
ENDBRANCH  22  29
ENDBRANCH   1  22
TORSDOF 10
ENDMDL
MODEL 5
REMARK VINA RESULT:      -6.0      7.099      9.686
REMARK  Name = 
REMARK  11 active torsions:
REMARK  status: ('A' for Active; 'I' for Inactive)
REMARK    1  A    between atoms: C_1  and  O_2
REMARK    2  A    between atoms: O_2  and  C_3
REMARK    3  A    between atoms: C_6  and  S_7
REMARK    4  A    between atoms: S_7  and  N_10
REMARK    5  A    between atoms: N_10  and  C_11
REMARK    6  A    between atoms: N_10  and  C_20
REMARK    7  A    between atoms: C_11  and  C_12
REMARK    8  A    between atoms: C_20  and  C_21
REMARK    9  A    between atoms: C_20  and  C_27
REMARK   10  A    between atoms: C_21  and  C_22
REMARK   11  A    between atoms: N_29  and  O_30
REMARK                            x       y       z     vdW  Elec       q    Type
REMARK                         _______ _______ _______ _____ _____    ______ ____
ROOT
ATOM      1  N   UNL     1       0.127  12.110  19.779  0.00  0.00    +0.000 NA
ENDROOT
BRANCH   1   2
ATOM      2  S   UNL     1       0.871  13.327  20.718  0.00  0.00    +0.000 S 
ATOM      3  O   UNL     1       2.184  12.867  21.099  0.00  0.00    +0.000 OA
ATOM      4  O   UNL     1      -0.089  13.699  21.741  0.00  0.00    +0.000 OA
BRANCH   2   8
ATOM      5  C   UNL     1       1.493  16.995  18.040  0.00  0.00    +0.000 A 
ATOM      6  C   UNL     1       2.536  16.080  18.221  0.00  0.00    +0.000 A 
ATOM      7  C   UNL     1       2.360  14.946  19.023  0.00  0.00    +0.000 A 
ATOM      8  C   UNL     1       1.134  14.739  19.662  0.00  0.00    +0.000 A 
ATOM      9  C   UNL     1       0.069  15.605  19.411  0.00  0.00    +0.000 A 
ATOM     10  C   UNL     1       0.260  16.753  18.641  0.00  0.00    +0.000 A 
BRANCH   5  12
ATOM     11  C   UNL     1       0.727  18.578  16.457  0.00  0.00    +0.000 C 
ATOM     12  O   UNL     1       1.789  18.087  17.269  0.00  0.00    +0.000 OA
ENDBRANCH   5  12
ENDBRANCH   2   8
ENDBRANCH   1   2
BRANCH   1  13
ATOM     13  C   UNL     1       0.968  11.219  18.953  0.00  0.00    +0.000 C 
BRANCH  13  14
ATOM     14  C   UNL     1       1.357   9.876  19.516  0.00  0.00    +0.000 A 
ATOM     15  C   UNL     1       0.993   9.458  20.804  0.00  0.00    +0.000 A 
ATOM     16  C   UNL     1       1.169   8.129  21.198  0.00  0.00    +0.000 A 
ATOM     17  C   UNL     1       1.692   7.193  20.305  0.00  0.00    +0.000 A 
ATOM     18  C   UNL     1       2.075   7.604  19.036  0.00  0.00    +0.000 A 
ATOM     19  F   UNL     1       2.560   6.703  18.170  0.00  0.00    +0.000 F 
ATOM     20  C   UNL     1       1.919   8.931  18.647  0.00  0.00    +0.000 A 
ATOM     21  F   UNL     1       2.265   9.299  17.404  0.00  0.00    +0.000 F 
ENDBRANCH  13  14
ENDBRANCH   1  13
BRANCH   1  22
ATOM     22  C   UNL     1      -1.331  12.299  19.428  0.00  0.00    +0.000 C 
BRANCH  22  23
ATOM     23  C   UNL     1      -1.880  11.515  18.240  0.00  0.00    +0.000 C 
ATOM     24  O   UNL     1      -2.369  10.389  18.325  0.00  0.00    +0.000 OA
ATOM     25  N   UNL     1      -1.862  12.183  17.034  0.00  0.00    +0.000 N 
ATOM     26  H   UNL     1      -1.203  12.923  16.818  0.00  0.00    +0.000 HD
BRANCH  25  27
ATOM     27  O   UNL     1      -2.327  11.430  15.929  0.00  0.00    +0.000 OA
ATOM     28  H   UNL     1      -2.673  12.125  15.325  0.00  0.00    +0.000 HD
ENDBRANCH  25  27
ENDBRANCH  22  23
BRANCH  22  29
ATOM     29  C   UNL     1      -2.333  12.213  20.603  0.00  0.00    +0.000 C 
BRANCH  29  30
ATOM     30  C   UNL     1      -3.596  13.049  20.500  0.00  0.00    +0.000 A 
ATOM     31  C   UNL     1      -4.860  12.742  20.030  0.00  0.00    +0.000 A 
ATOM     32  C   UNL     1      -5.782  13.817  20.166  0.00  0.00    +0.000 A 
ATOM     33  C   UNL     1      -5.197  14.925  20.728  0.00  0.00    +0.000 A 
ATOM     34  S   UNL     1      -3.548  14.666  21.091  0.00  0.00    +0.000 S 
ENDBRANCH  29  30
ENDBRANCH  22  29
ENDBRANCH   1  22
TORSDOF 10
ENDMDL
MODEL 6
REMARK VINA RESULT:      -6.0      5.286      8.163
REMARK  Name = 
REMARK  11 active torsions:
REMARK  status: ('A' for Active; 'I' for Inactive)
REMARK    1  A    between atoms: C_1  and  O_2
REMARK    2  A    between atoms: O_2  and  C_3
REMARK    3  A    between atoms: C_6  and  S_7
REMARK    4  A    between atoms: S_7  and  N_10
REMARK    5  A    between atoms: N_10  and  C_11
REMARK    6  A    between atoms: N_10  and  C_20
REMARK    7  A    between atoms: C_11  and  C_12
REMARK    8  A    between atoms: C_20  and  C_21
REMARK    9  A    between atoms: C_20  and  C_27
REMARK   10  A    between atoms: C_21  and  C_22
REMARK   11  A    between atoms: N_29  and  O_30
REMARK                            x       y       z     vdW  Elec       q    Type
REMARK                         _______ _______ _______ _____ _____    ______ ____
ROOT
ATOM      1  N   UNL     1       1.048   8.907  20.089  0.00  0.00    +0.000 NA
ENDROOT
BRANCH   1   2
ATOM      2  S   UNL     1       0.517   9.341  21.654  0.00  0.00    +0.000 S 
ATOM      3  O   UNL     1       1.639   9.247  22.555  0.00  0.00    +0.000 OA
ATOM      4  O   UNL     1      -0.682   8.563  21.908  0.00  0.00    +0.000 OA
BRANCH   2   8
ATOM      5  C   UNL     1      -0.598  13.784  21.490  0.00  0.00    +0.000 A 
ATOM      6  C   UNL     1      -1.533  12.848  21.943  0.00  0.00    +0.000 A 
ATOM      7  C   UNL     1      -1.205  11.489  22.015  0.00  0.00    +0.000 A 
ATOM      8  C   UNL     1       0.064  11.065  21.611  0.00  0.00    +0.000 A 
ATOM      9  C   UNL     1       1.023  12.009  21.242  0.00  0.00    +0.000 A 
ATOM     10  C   UNL     1       0.681  13.357  21.137  0.00  0.00    +0.000 A 
BRANCH   5  12
ATOM     11  C   UNL     1      -0.901  15.842  22.617  0.00  0.00    +0.000 C 
ATOM     12  O   UNL     1      -1.038  15.079  21.423  0.00  0.00    +0.000 OA
ENDBRANCH   5  12
ENDBRANCH   2   8
ENDBRANCH   1   2
BRANCH   1  13
ATOM     13  C   UNL     1       2.273   8.094  19.941  0.00  0.00    +0.000 C 
BRANCH  13  14
ATOM     14  C   UNL     1       2.129   6.601  19.797  0.00  0.00    +0.000 A 
ATOM     15  C   UNL     1       1.544   5.796  20.784  0.00  0.00    +0.000 A 
ATOM     16  C   UNL     1       1.219   4.463  20.516  0.00  0.00    +0.000 A 
ATOM     17  C   UNL     1       1.454   3.922  19.252  0.00  0.00    +0.000 A 
ATOM     18  C   UNL     1       2.053   4.706  18.276  0.00  0.00    +0.000 A 
ATOM     19  F   UNL     1       2.263   4.194  17.055  0.00  0.00    +0.000 F 
ATOM     20  C   UNL     1       2.396   6.028  18.546  0.00  0.00    +0.000 A 
ATOM     21  F   UNL     1       2.943   6.778  17.578  0.00  0.00    +0.000 F 
ENDBRANCH  13  14
ENDBRANCH   1  13
BRANCH   1  22
ATOM     22  C   UNL     1       0.571   9.758  18.934  0.00  0.00    +0.000 C 
BRANCH  22  23
ATOM     23  C   UNL     1       1.629  10.474  18.100  0.00  0.00    +0.000 C 
ATOM     24  O   UNL     1       2.477   9.897  17.421  0.00  0.00    +0.000 OA
ATOM     25  N   UNL     1       1.539  11.850  18.090  0.00  0.00    +0.000 N 
ATOM     26  H   UNL     1       1.124  12.386  18.845  0.00  0.00    +0.000 HD
BRANCH  25  27
ATOM     27  O   UNL     1       2.554  12.508  17.354  0.00  0.00    +0.000 OA
ATOM     28  H   UNL     1       3.269  12.616  18.020  0.00  0.00    +0.000 HD
ENDBRANCH  25  27
ENDBRANCH  22  23
BRANCH  22  29
ATOM     29  C   UNL     1      -0.470   9.110  17.992  0.00  0.00    +0.000 C 
BRANCH  29  30
ATOM     30  C   UNL     1      -1.631   9.977  17.540  0.00  0.00    +0.000 A 
ATOM     31  C   UNL     1      -2.417   9.933  16.402  0.00  0.00    +0.000 A 
ATOM     32  C   UNL     1      -3.450  10.912  16.399  0.00  0.00    +0.000 A 
ATOM     33  C   UNL     1      -3.422  11.688  17.532  0.00  0.00    +0.000 A 
ATOM     34  S   UNL     1      -2.160  11.235  18.591  0.00  0.00    +0.000 S 
ENDBRANCH  29  30
ENDBRANCH  22  29
ENDBRANCH   1  22
TORSDOF 10
ENDMDL
MODEL 7
REMARK VINA RESULT:      -6.0      6.705      9.393
REMARK  Name = 
REMARK  11 active torsions:
REMARK  status: ('A' for Active; 'I' for Inactive)
REMARK    1  A    between atoms: C_1  and  O_2
REMARK    2  A    between atoms: O_2  and  C_3
REMARK    3  A    between atoms: C_6  and  S_7
REMARK    4  A    between atoms: S_7  and  N_10
REMARK    5  A    between atoms: N_10  and  C_11
REMARK    6  A    between atoms: N_10  and  C_20
REMARK    7  A    between atoms: C_11  and  C_12
REMARK    8  A    between atoms: C_20  and  C_21
REMARK    9  A    between atoms: C_20  and  C_27
REMARK   10  A    between atoms: C_21  and  C_22
REMARK   11  A    between atoms: N_29  and  O_30
REMARK                            x       y       z     vdW  Elec       q    Type
REMARK                         _______ _______ _______ _____ _____    ______ ____
ROOT
ATOM      1  N   UNL     1       0.077  11.864  19.746  0.00  0.00    +0.000 NA
ENDROOT
BRANCH   1   2
ATOM      2  S   UNL     1       0.288  10.513  20.770  0.00  0.00    +0.000 S 
ATOM      3  O   UNL     1      -1.010   9.953  21.055  0.00  0.00    +0.000 OA
ATOM      4  O   UNL     1       1.140  10.954  21.859  0.00  0.00    +0.000 OA
BRANCH   2   8
ATOM      5  C   UNL     1       2.522   7.258  18.440  0.00  0.00    +0.000 A 
ATOM      6  C   UNL     1       2.128   8.433  17.791  0.00  0.00    +0.000 A 
ATOM      7  C   UNL     1       1.458   9.444  18.490  0.00  0.00    +0.000 A 
ATOM      8  C   UNL     1       1.167   9.267  19.845  0.00  0.00    +0.000 A 
ATOM      9  C   UNL     1       1.636   8.134  20.511  0.00  0.00    +0.000 A 
ATOM     10  C   UNL     1       2.270   7.113  19.803  0.00  0.00    +0.000 A 
BRANCH   5  12
ATOM     11  C   UNL     1       2.733   4.972  17.870  0.00  0.00    +0.000 C 
ATOM     12  O   UNL     1       3.133   6.321  17.652  0.00  0.00    +0.000 OA
ENDBRANCH   5  12
ENDBRANCH   2   8
ENDBRANCH   1   2
BRANCH   1  13
ATOM     13  C   UNL     1       1.216  12.775  19.509  0.00  0.00    +0.000 C 
BRANCH  13  14
ATOM     14  C   UNL     1       0.982  14.260  19.625  0.00  0.00    +0.000 A 
ATOM     15  C   UNL     1       0.199  14.978  18.710  0.00  0.00    +0.000 A 
ATOM     16  C   UNL     1      -0.184  16.295  18.981  0.00  0.00    +0.000 A 
ATOM     17  C   UNL     1       0.194  16.906  20.176  0.00  0.00    +0.000 A 
ATOM     18  C   UNL     1       0.988  16.209  21.077  0.00  0.00    +0.000 A 
ATOM     19  F   UNL     1       1.335  16.787  22.234  0.00  0.00    +0.000 F 
ATOM     20  C   UNL     1       1.386  14.904  20.801  0.00  0.00    +0.000 A 
ATOM     21  F   UNL     1       2.125  14.237  21.701  0.00  0.00    +0.000 F 
ENDBRANCH  13  14
ENDBRANCH   1  13
BRANCH   1  22
ATOM     22  C   UNL     1      -1.335  12.361  19.535  0.00  0.00    +0.000 C 
BRANCH  22  23
ATOM     23  C   UNL     1      -2.112  11.800  18.348  0.00  0.00    +0.000 C 
ATOM     24  O   UNL     1      -3.145  11.139  18.452  0.00  0.00    +0.000 OA
ATOM     25  N   UNL     1      -1.618  12.140  17.107  0.00  0.00    +0.000 N 
ATOM     26  H   UNL     1      -0.644  12.367  16.938  0.00  0.00    +0.000 HD
BRANCH  25  27
ATOM     27  O   UNL     1      -2.316  11.574  16.013  0.00  0.00    +0.000 OA
ATOM     28  H   UNL     1      -2.995  11.016  16.455  0.00  0.00    +0.000 HD
ENDBRANCH  25  27
ENDBRANCH  22  23
BRANCH  22  29
ATOM     29  C   UNL     1      -2.248  12.374  20.782  0.00  0.00    +0.000 C 
BRANCH  29  30
ATOM     30  C   UNL     1      -1.966  13.428  21.838  0.00  0.00    +0.000 A 
ATOM     31  C   UNL     1      -1.149  13.408  22.954  0.00  0.00    +0.000 A 
ATOM     32  C   UNL     1      -1.133  14.646  23.655  0.00  0.00    +0.000 A 
ATOM     33  C   UNL     1      -1.947  15.581  23.063  0.00  0.00    +0.000 A 
ATOM     34  S   UNL     1      -2.721  14.966  21.669  0.00  0.00    +0.000 S 
ENDBRANCH  29  30
ENDBRANCH  22  29
ENDBRANCH   1  22
TORSDOF 10
ENDMDL
MODEL 8
REMARK VINA RESULT:      -6.0      2.501      5.335
REMARK  Name = 
REMARK  11 active torsions:
REMARK  status: ('A' for Active; 'I' for Inactive)
REMARK    1  A    between atoms: C_1  and  O_2
REMARK    2  A    between atoms: O_2  and  C_3
REMARK    3  A    between atoms: C_6  and  S_7
REMARK    4  A    between atoms: S_7  and  N_10
REMARK    5  A    between atoms: N_10  and  C_11
REMARK    6  A    between atoms: N_10  and  C_20
REMARK    7  A    between atoms: C_11  and  C_12
REMARK    8  A    between atoms: C_20  and  C_21
REMARK    9  A    between atoms: C_20  and  C_27
REMARK   10  A    between atoms: C_21  and  C_22
REMARK   11  A    between atoms: N_29  and  O_30
REMARK                            x       y       z     vdW  Elec       q    Type
REMARK                         _______ _______ _______ _____ _____    ______ ____
ROOT
ATOM      1  N   UNL     1       3.846   5.518  18.119  0.00  0.00    +0.000 NA
ENDROOT
BRANCH   1   2
ATOM      2  S   UNL     1       5.170   4.439  18.080  0.00  0.00    +0.000 S 
ATOM      3  O   UNL     1       4.689   3.118  18.401  0.00  0.00    +0.000 OA
ATOM      4  O   UNL     1       6.214   5.044  18.888  0.00  0.00    +0.000 OA
BRANCH   2   8
ATOM      5  C   UNL     1       6.590   4.242  13.726  0.00  0.00    +0.000 A 
ATOM      6  C   UNL     1       7.503   4.540  14.743  0.00  0.00    +0.000 A 
ATOM      7  C   UNL     1       7.091   4.589  16.080  0.00  0.00    +0.000 A 
ATOM      8  C   UNL     1       5.750   4.356  16.396  0.00  0.00    +0.000 A 
ATOM      9  C   UNL     1       4.859   3.975  15.391  0.00  0.00    +0.000 A 
ATOM     10  C   UNL     1       5.265   3.963  14.057  0.00  0.00    +0.000 A 
BRANCH   5  12
ATOM     11  C   UNL     1       6.798   3.119  11.654  0.00  0.00    +0.000 C 
ATOM     12  O   UNL     1       7.093   4.260  12.453  0.00  0.00    +0.000 OA
ENDBRANCH   5  12
ENDBRANCH   2   8
ENDBRANCH   1   2
BRANCH   1  13
ATOM     13  C   UNL     1       2.485   4.998  17.874  0.00  0.00    +0.000 C 
BRANCH  13  14
ATOM     14  C   UNL     1       1.847   4.133  18.931  0.00  0.00    +0.000 A 
ATOM     15  C   UNL     1       1.074   3.005  18.623  0.00  0.00    +0.000 A 
ATOM     16  C   UNL     1       0.701   2.102  19.623  0.00  0.00    +0.000 A 
ATOM     17  C   UNL     1       1.111   2.304  20.941  0.00  0.00    +0.000 A 
ATOM     18  C   UNL     1       1.857   3.431  21.258  0.00  0.00    +0.000 A 
ATOM     19  F   UNL     1       2.268   3.616  22.520  0.00  0.00    +0.000 F 
ATOM     20  C   UNL     1       2.214   4.340  20.267  0.00  0.00    +0.000 A 
ATOM     21  F   UNL     1       2.965   5.405  20.589  0.00  0.00    +0.000 F 
ENDBRANCH  13  14
ENDBRANCH   1  13
BRANCH   1  22
ATOM     22  C   UNL     1       4.139   6.984  17.896  0.00  0.00    +0.000 C 
BRANCH  22  23
ATOM     23  C   UNL     1       5.333   7.341  17.017  0.00  0.00    +0.000 C 
ATOM     24  O   UNL     1       5.290   7.399  15.789  0.00  0.00    +0.000 OA
ATOM     25  N   UNL     1       6.486   7.673  17.695  0.00  0.00    +0.000 N 
ATOM     26  H   UNL     1       6.700   7.336  18.628  0.00  0.00    +0.000 HD
BRANCH  25  27
ATOM     27  O   UNL     1       7.602   7.955  16.870  0.00  0.00    +0.000 OA
ATOM     28  H   UNL     1       8.355   7.614  17.403  0.00  0.00    +0.000 HD
ENDBRANCH  25  27
ENDBRANCH  22  23
BRANCH  22  29
ATOM     29  C   UNL     1       2.934   7.870  17.505  0.00  0.00    +0.000 C 
BRANCH  29  30
ATOM     30  C   UNL     1       2.098   8.444  18.635  0.00  0.00    +0.000 A 
ATOM     31  C   UNL     1       1.890   8.007  19.931  0.00  0.00    +0.000 A 
ATOM     32  C   UNL     1       1.065   8.885  20.689  0.00  0.00    +0.000 A 
ATOM     33  C   UNL     1       0.653   9.966  19.949  0.00  0.00    +0.000 A 
ATOM     34  S   UNL     1       1.263   9.923  18.354  0.00  0.00    +0.000 S 
ENDBRANCH  29  30
ENDBRANCH  22  29
ENDBRANCH   1  22
TORSDOF 10
ENDMDL
MODEL 9
REMARK VINA RESULT:      -5.9      6.033      8.665
REMARK  Name = 
REMARK  11 active torsions:
REMARK  status: ('A' for Active; 'I' for Inactive)
REMARK    1  A    between atoms: C_1  and  O_2
REMARK    2  A    between atoms: O_2  and  C_3
REMARK    3  A    between atoms: C_6  and  S_7
REMARK    4  A    between atoms: S_7  and  N_10
REMARK    5  A    between atoms: N_10  and  C_11
REMARK    6  A    between atoms: N_10  and  C_20
REMARK    7  A    between atoms: C_11  and  C_12
REMARK    8  A    between atoms: C_20  and  C_21
REMARK    9  A    between atoms: C_20  and  C_27
REMARK   10  A    between atoms: C_21  and  C_22
REMARK   11  A    between atoms: N_29  and  O_30
REMARK                            x       y       z     vdW  Elec       q    Type
REMARK                         _______ _______ _______ _____ _____    ______ ____
ROOT
ATOM      1  N   UNL     1       0.399  10.869  20.997  0.00  0.00    +0.000 NA
ENDROOT
BRANCH   1   2
ATOM      2  S   UNL     1       0.665   9.244  21.451  0.00  0.00    +0.000 S 
ATOM      3  O   UNL     1      -0.613   8.579  21.523  0.00  0.00    +0.000 OA
ATOM      4  O   UNL     1       1.528   9.281  22.617  0.00  0.00    +0.000 OA
BRANCH   2   8
ATOM      5  C   UNL     1       2.973   7.276  18.013  0.00  0.00    +0.000 A 
ATOM      6  C   UNL     1       2.813   6.594  19.225  0.00  0.00    +0.000 A 
ATOM      7  C   UNL     1       2.098   7.173  20.280  0.00  0.00    +0.000 A 
ATOM      8  C   UNL     1       1.556   8.452  20.124  0.00  0.00    +0.000 A 
ATOM      9  C   UNL     1       1.643   9.094  18.888  0.00  0.00    +0.000 A 
ATOM     10  C   UNL     1       2.387   8.530  17.852  0.00  0.00    +0.000 A 
BRANCH   5  12
ATOM     11  C   UNL     1       5.043   6.270  17.462  0.00  0.00    +0.000 C 
ATOM     12  O   UNL     1       3.724   6.634  17.066  0.00  0.00    +0.000 OA
ENDBRANCH   5  12
ENDBRANCH   2   8
ENDBRANCH   1   2
BRANCH   1  13
ATOM     13  C   UNL     1       1.490  11.852  21.160  0.00  0.00    +0.000 C 
BRANCH  13  14
ATOM     14  C   UNL     1       1.400  13.154  20.406  0.00  0.00    +0.000 A 
ATOM     15  C   UNL     1       0.904  14.332  20.982  0.00  0.00    +0.000 A 
ATOM     16  C   UNL     1       1.055  15.560  20.333  0.00  0.00    +0.000 A 
ATOM     17  C   UNL     1       1.720  15.633  19.109  0.00  0.00    +0.000 A 
ATOM     18  C   UNL     1       2.195  14.468  18.522  0.00  0.00    +0.000 A 
ATOM     19  F   UNL     1       2.851  14.538  17.356  0.00  0.00    +0.000 F 
ATOM     20  C   UNL     1       2.029  13.241  19.157  0.00  0.00    +0.000 A 
ATOM     21  F   UNL     1       2.525  12.132  18.588  0.00  0.00    +0.000 F 
ENDBRANCH  13  14
ENDBRANCH   1  13
BRANCH   1  22
ATOM     22  C   UNL     1      -1.033  11.346  20.932  0.00  0.00    +0.000 C 
BRANCH  22  23
ATOM     23  C   UNL     1      -1.592  12.075  22.149  0.00  0.00    +0.000 C 
ATOM     24  O   UNL     1      -1.217  11.874  23.304  0.00  0.00    +0.000 OA
ATOM     25  N   UNL     1      -2.523  13.054  21.875  0.00  0.00    +0.000 N 
ATOM     26  H   UNL     1      -3.110  13.047  21.047  0.00  0.00    +0.000 HD
BRANCH  25  27
ATOM     27  O   UNL     1      -3.072  13.691  23.014  0.00  0.00    +0.000 OA
ATOM     28  H   UNL     1      -3.830  14.192  22.636  0.00  0.00    +0.000 HD
ENDBRANCH  25  27
ENDBRANCH  22  23
BRANCH  22  29
ATOM     29  C   UNL     1      -1.443  12.107  19.649  0.00  0.00    +0.000 C 
BRANCH  29  30
ATOM     30  C   UNL     1      -2.021  11.286  18.510  0.00  0.00    +0.000 A 
ATOM     31  C   UNL     1      -1.459  10.303  17.715  0.00  0.00    +0.000 A 
ATOM     32  C   UNL     1      -2.380   9.744  16.786  0.00  0.00    +0.000 A 
ATOM     33  C   UNL     1      -3.623  10.321  16.886  0.00  0.00    +0.000 A 
ATOM     34  S   UNL     1      -3.674  11.526  18.096  0.00  0.00    +0.000 S 
ENDBRANCH  29  30
ENDBRANCH  22  29
ENDBRANCH   1  22
TORSDOF 10
ENDMDL
