MODEL 1
REMARK VINA RESULT:      -8.0      0.000      0.000
REMARK  Name = 
REMARK  7 active torsions:
REMARK  status: ('A' for Active; 'I' for Inactive)
REMARK    1  A    between atoms: C_1  and  C_2
REMARK    2  A    between atoms: C_2  and  N_3
REMARK    3  A    between atoms: N_6  and  C_7
REMARK    4  A    between atoms: C_7  and  C_8
REMARK    5  A    between atoms: N_10  and  C_11
REMARK    6  A    between atoms: C_15  and  O_16
REMARK    7  A    between atoms: O_16  and  C_17
REMARK                            x       y       z     vdW  Elec       q    Type
REMARK                         _______ _______ _______ _____ _____    ______ ____
ROOT
ATOM      1  N   UNL     1       6.691   4.968  17.943  0.00  0.00    +0.000 N 
ATOM      2  C   UNL     1       5.718   4.819  18.927  0.00  0.00    +0.000 A 
ATOM      3  O   UNL     1       5.867   5.265  20.071  0.00  0.00    +0.000 OA
ATOM      4  N   UNL     1       4.557   4.149  18.573  0.00  0.00    +0.000 N 
ATOM      5  C   UNL     1       4.242   3.732  17.289  0.00  0.00    +0.000 A 
ATOM      6  O   UNL     1       3.191   3.172  16.987  0.00  0.00    +0.000 OA
ATOM      7  C   UNL     1       5.220   4.053  16.236  0.00  0.00    +0.000 A 
ATOM      8  C   UNL     1       4.892   3.802  14.894  0.00  0.00    +0.000 A 
ATOM      9  C   UNL     1       5.791   4.127  13.882  0.00  0.00    +0.000 A 
ATOM     10  C   UNL     1       7.027   4.669  14.216  0.00  0.00    +0.000 A 
ATOM     11  C   UNL     1       7.354   4.906  15.555  0.00  0.00    +0.000 A 
ATOM     12  C   UNL     1       6.439   4.632  16.584  0.00  0.00    +0.000 A 
ENDROOT
BRANCH   1  14
ATOM     13  C   UNL     1       7.915   7.119  18.202  0.00  0.00    +0.000 C 
ATOM     14  C   UNL     1       7.952   5.603  18.335  0.00  0.00    +0.000 C 
ENDBRANCH   1  14
BRANCH   4  15
ATOM     15  C   UNL     1       3.578   3.939  19.627  0.00  0.00    +0.000 C 
BRANCH  15  16
ATOM     16  C   UNL     1       2.503   5.026  19.573  0.00  0.00    +0.000 C 
ATOM     17  O   UNL     1       1.309   4.738  19.509  0.00  0.00    +0.000 OA
ATOM     18  N   UNL     1       3.014   6.322  19.575  0.00  0.00    +0.000 N 
ATOM     19  H   UNL     1       4.013   6.434  19.449  0.00  0.00    +0.000 HD
BRANCH  18  20
ATOM     20  C   UNL     1       2.217   7.473  19.406  0.00  0.00    +0.000 A 
ATOM     21  C   UNL     1       2.110   8.124  18.175  0.00  0.00    +0.000 A 
ATOM     22  C   UNL     1       1.400   9.318  18.073  0.00  0.00    +0.000 A 
ATOM     23  C   UNL     1       0.823   9.877  19.211  0.00  0.00    +0.000 A 
ATOM     24  C   UNL     1       0.901   9.223  20.443  0.00  0.00    +0.000 A 
ATOM     25  C   UNL     1       1.555   7.993  20.528  0.00  0.00    +0.000 A 
BRANCH  24  26
ATOM     26  O   UNL     1       0.336   9.912  21.482  0.00  0.00    +0.000 OA
ATOM     27  C   UNL     1       0.457   9.350  22.775  0.00  0.00    +0.000 C 
ENDBRANCH  24  26
ENDBRANCH  18  20
ENDBRANCH  15  16
ENDBRANCH   4  15
TORSDOF 5
ENDMDL
MODEL 2
REMARK VINA RESULT:      -7.9      2.301      7.331
REMARK  Name = 
REMARK  7 active torsions:
REMARK  status: ('A' for Active; 'I' for Inactive)
REMARK    1  A    between atoms: C_1  and  C_2
REMARK    2  A    between atoms: C_2  and  N_3
REMARK    3  A    between atoms: N_6  and  C_7
REMARK    4  A    between atoms: C_7  and  C_8
REMARK    5  A    between atoms: N_10  and  C_11
REMARK    6  A    between atoms: C_15  and  O_16
REMARK    7  A    between atoms: O_16  and  C_17
REMARK                            x       y       z     vdW  Elec       q    Type
REMARK                         _______ _______ _______ _____ _____    ______ ____
ROOT
ATOM      1  N   UNL     1       3.125   6.410  18.300  0.00  0.00    +0.000 N 
ATOM      2  C   UNL     1       4.481   6.619  18.065  0.00  0.00    +0.000 A 
ATOM      3  O   UNL     1       4.906   7.659  17.546  0.00  0.00    +0.000 OA
ATOM      4  N   UNL     1       5.352   5.608  18.441  0.00  0.00    +0.000 N 
ATOM      5  C   UNL     1       4.990   4.471  19.145  0.00  0.00    +0.000 A 
ATOM      6  O   UNL     1       5.782   3.603  19.503  0.00  0.00    +0.000 OA
ATOM      7  C   UNL     1       3.572   4.358  19.527  0.00  0.00    +0.000 A 
ATOM      8  C   UNL     1       3.169   3.314  20.374  0.00  0.00    +0.000 A 
ATOM      9  C   UNL     1       1.839   3.210  20.771  0.00  0.00    +0.000 A 
ATOM     10  C   UNL     1       0.910   4.127  20.293  0.00  0.00    +0.000 A 
ATOM     11  C   UNL     1       1.314   5.158  19.439  0.00  0.00    +0.000 A 
ATOM     12  C   UNL     1       2.661   5.308  19.070  0.00  0.00    +0.000 A 
ENDROOT
BRANCH   1  14
ATOM     13  C   UNL     1       1.884   8.484  18.893  0.00  0.00    +0.000 C 
ATOM     14  C   UNL     1       2.195   7.440  17.830  0.00  0.00    +0.000 C 
ENDBRANCH   1  14
BRANCH   4  15
ATOM     15  C   UNL     1       6.758   5.808  18.127  0.00  0.00    +0.000 C 
BRANCH  15  16
ATOM     16  C   UNL     1       7.131   5.033  16.862  0.00  0.00    +0.000 C 
ATOM     17  O   UNL     1       7.967   4.131  16.891  0.00  0.00    +0.000 OA
ATOM     18  N   UNL     1       6.464   5.468  15.719  0.00  0.00    +0.000 N 
ATOM     19  H   UNL     1       5.936   6.331  15.783  0.00  0.00    +0.000 HD
BRANCH  18  20
ATOM     20  C   UNL     1       6.741   4.985  14.424  0.00  0.00    +0.000 A 
ATOM     21  C   UNL     1       7.712   5.569  13.609  0.00  0.00    +0.000 A 
ATOM     22  C   UNL     1       7.882   5.131  12.297  0.00  0.00    +0.000 A 
ATOM     23  C   UNL     1       7.057   4.128  11.792  0.00  0.00    +0.000 A 
ATOM     24  C   UNL     1       6.099   3.518  12.605  0.00  0.00    +0.000 A 
ATOM     25  C   UNL     1       5.977   3.913  13.939  0.00  0.00    +0.000 A 
BRANCH  24  26
ATOM     26  O   UNL     1       5.326   2.589  11.963  0.00  0.00    +0.000 OA
ATOM     27  C   UNL     1       4.196   3.062  11.255  0.00  0.00    +0.000 C 
ENDBRANCH  24  26
ENDBRANCH  18  20
ENDBRANCH  15  16
ENDBRANCH   4  15
TORSDOF 5
ENDMDL
MODEL 3
REMARK VINA RESULT:      -7.3      0.929      1.636
REMARK  Name = 
REMARK  7 active torsions:
REMARK  status: ('A' for Active; 'I' for Inactive)
REMARK    1  A    between atoms: C_1  and  C_2
REMARK    2  A    between atoms: C_2  and  N_3
REMARK    3  A    between atoms: N_6  and  C_7
REMARK    4  A    between atoms: C_7  and  C_8
REMARK    5  A    between atoms: N_10  and  C_11
REMARK    6  A    between atoms: C_15  and  O_16
REMARK    7  A    between atoms: O_16  and  C_17
REMARK                            x       y       z     vdW  Elec       q    Type
REMARK                         _______ _______ _______ _____ _____    ______ ____
ROOT
ATOM      1  N   UNL     1       6.615   4.780  17.920  0.00  0.00    +0.000 N 
ATOM      2  C   UNL     1       5.655   4.539  18.899  0.00  0.00    +0.000 A 
ATOM      3  O   UNL     1       5.814   4.885  20.075  0.00  0.00    +0.000 OA
ATOM      4  N   UNL     1       4.495   3.891  18.501  0.00  0.00    +0.000 N 
ATOM      5  C   UNL     1       4.168   3.584  17.190  0.00  0.00    +0.000 A 
ATOM      6  O   UNL     1       3.118   3.042  16.853  0.00  0.00    +0.000 OA
ATOM      7  C   UNL     1       5.130   4.002  16.158  0.00  0.00    +0.000 A 
ATOM      8  C   UNL     1       4.789   3.865  14.803  0.00  0.00    +0.000 A 
ATOM      9  C   UNL     1       5.672   4.284  13.813  0.00  0.00    +0.000 A 
ATOM     10  C   UNL     1       6.908   4.806  14.178  0.00  0.00    +0.000 A 
ATOM     11  C   UNL     1       7.249   4.930  15.528  0.00  0.00    +0.000 A 
ATOM     12  C   UNL     1       6.349   4.560  16.540  0.00  0.00    +0.000 A 
ENDROOT
BRANCH   1  14
ATOM     13  C   UNL     1       7.849   6.910  18.280  0.00  0.00    +0.000 C 
ATOM     14  C   UNL     1       7.876   5.390  18.351  0.00  0.00    +0.000 C 
ENDBRANCH   1  14
BRANCH   4  15
ATOM     15  C   UNL     1       3.530   3.582  19.545  0.00  0.00    +0.000 C 
BRANCH  15  16
ATOM     16  C   UNL     1       2.477   4.688  19.633  0.00  0.00    +0.000 C 
ATOM     17  O   UNL     1       1.317   4.493  19.273  0.00  0.00    +0.000 OA
ATOM     18  N   UNL     1       2.970   5.896  20.121  0.00  0.00    +0.000 N 
ATOM     19  H   UNL     1       3.974   5.990  20.216  0.00  0.00    +0.000 HD
BRANCH  18  20
ATOM     20  C   UNL     1       2.211   7.083  20.171  0.00  0.00    +0.000 A 
ATOM     21  C   UNL     1       1.477   7.444  21.302  0.00  0.00    +0.000 A 
ATOM     22  C   UNL     1       0.655   8.569  21.275  0.00  0.00    +0.000 A 
ATOM     23  C   UNL     1       0.545   9.315  20.103  0.00  0.00    +0.000 A 
ATOM     24  C   UNL     1       1.294   8.979  18.972  0.00  0.00    +0.000 A 
ATOM     25  C   UNL     1       2.167   7.891  19.025  0.00  0.00    +0.000 A 
BRANCH  24  26
ATOM     26  O   UNL     1       1.046   9.765  17.880  0.00  0.00    +0.000 OA
ATOM     27  C   UNL     1      -0.133  10.547  17.898  0.00  0.00    +0.000 C 
ENDBRANCH  24  26
ENDBRANCH  18  20
ENDBRANCH  15  16
ENDBRANCH   4  15
TORSDOF 5
ENDMDL
MODEL 4
REMARK VINA RESULT:      -7.2      2.235      7.409
REMARK  Name = 
REMARK  7 active torsions:
REMARK  status: ('A' for Active; 'I' for Inactive)
REMARK    1  A    between atoms: C_1  and  C_2
REMARK    2  A    between atoms: C_2  and  N_3
REMARK    3  A    between atoms: N_6  and  C_7
REMARK    4  A    between atoms: C_7  and  C_8
REMARK    5  A    between atoms: N_10  and  C_11
REMARK    6  A    between atoms: C_15  and  O_16
REMARK    7  A    between atoms: O_16  and  C_17
REMARK                            x       y       z     vdW  Elec       q    Type
REMARK                         _______ _______ _______ _____ _____    ______ ____
ROOT
ATOM      1  N   UNL     1       2.713   6.347  18.912  0.00  0.00    +0.000 N 
ATOM      2  C   UNL     1       3.914   6.785  18.361  0.00  0.00    +0.000 A 
ATOM      3  O   UNL     1       4.076   7.950  17.979  0.00  0.00    +0.000 OA
ATOM      4  N   UNL     1       4.938   5.856  18.258  0.00  0.00    +0.000 N 
ATOM      5  C   UNL     1       4.899   4.571  18.775  0.00  0.00    +0.000 A 
ATOM      6  O   UNL     1       5.832   3.774  18.707  0.00  0.00    +0.000 OA
ATOM      7  C   UNL     1       3.675   4.192  19.500  0.00  0.00    +0.000 A 
ATOM      8  C   UNL     1       3.632   2.966  20.183  0.00  0.00    +0.000 A 
ATOM      9  C   UNL     1       2.496   2.605  20.901  0.00  0.00    +0.000 A 
ATOM     10  C   UNL     1       1.393   3.452  20.904  0.00  0.00    +0.000 A 
ATOM     11  C   UNL     1       1.436   4.666  20.212  0.00  0.00    +0.000 A 
ATOM     12  C   UNL     1       2.593   5.070  19.527  0.00  0.00    +0.000 A 
ENDROOT
BRANCH   1  14
ATOM     13  C   UNL     1       1.622   8.184  20.188  0.00  0.00    +0.000 C 
ATOM     14  C   UNL     1       1.602   7.302  18.948  0.00  0.00    +0.000 C 
ENDBRANCH   1  14
BRANCH   4  15
ATOM     15  C   UNL     1       6.164   6.306  17.618  0.00  0.00    +0.000 C 
BRANCH  15  16
ATOM     16  C   UNL     1       6.073   6.106  16.104  0.00  0.00    +0.000 C 
ATOM     17  O   UNL     1       5.197   6.660  15.441  0.00  0.00    +0.000 OA
ATOM     18  N   UNL     1       7.036   5.241  15.592  0.00  0.00    +0.000 N 
ATOM     19  H   UNL     1       7.589   4.708  16.253  0.00  0.00    +0.000 HD
BRANCH  18  20
ATOM     20  C   UNL     1       7.065   4.815  14.248  0.00  0.00    +0.000 A 
ATOM     21  C   UNL     1       7.889   5.421  13.297  0.00  0.00    +0.000 A 
ATOM     22  C   UNL     1       7.810   5.042  11.959  0.00  0.00    +0.000 A 
ATOM     23  C   UNL     1       6.883   4.079  11.567  0.00  0.00    +0.000 A 
ATOM     24  C   UNL     1       6.070   3.448  12.512  0.00  0.00    +0.000 A 
ATOM     25  C   UNL     1       6.199   3.781  13.862  0.00  0.00    +0.000 A 
BRANCH  24  26
ATOM     26  O   UNL     1       5.172   2.564  11.979  0.00  0.00    +0.000 OA
ATOM     27  C   UNL     1       4.076   3.104  11.265  0.00  0.00    +0.000 C 
ENDBRANCH  24  26
ENDBRANCH  18  20
ENDBRANCH  15  16
ENDBRANCH   4  15
TORSDOF 5
ENDMDL
MODEL 5
REMARK VINA RESULT:      -7.1      3.701      9.152
REMARK  Name = 
REMARK  7 active torsions:
REMARK  status: ('A' for Active; 'I' for Inactive)
REMARK    1  A    between atoms: C_1  and  C_2
REMARK    2  A    between atoms: C_2  and  N_3
REMARK    3  A    between atoms: N_6  and  C_7
REMARK    4  A    between atoms: C_7  and  C_8
REMARK    5  A    between atoms: N_10  and  C_11
REMARK    6  A    between atoms: C_15  and  O_16
REMARK    7  A    between atoms: O_16  and  C_17
REMARK                            x       y       z     vdW  Elec       q    Type
REMARK                         _______ _______ _______ _____ _____    ______ ____
ROOT
ATOM      1  N   UNL     1      -0.785  11.796  20.017  0.00  0.00    +0.000 N 
ATOM      2  C   UNL     1       0.283  10.945  20.289  0.00  0.00    +0.000 A 
ATOM      3  O   UNL     1       1.180  10.732  19.465  0.00  0.00    +0.000 OA
ATOM      4  N   UNL     1       0.307  10.340  21.536  0.00  0.00    +0.000 N 
ATOM      5  C   UNL     1      -0.574  10.615  22.570  0.00  0.00    +0.000 A 
ATOM      6  O   UNL     1      -0.513  10.096  23.681  0.00  0.00    +0.000 OA
ATOM      7  C   UNL     1      -1.593  11.645  22.306  0.00  0.00    +0.000 A 
ATOM      8  C   UNL     1      -2.414  12.084  23.357  0.00  0.00    +0.000 A 
ATOM      9  C   UNL     1      -3.361  13.079  23.135  0.00  0.00    +0.000 A 
ATOM     10  C   UNL     1      -3.511  13.606  21.857  0.00  0.00    +0.000 A 
ATOM     11  C   UNL     1      -2.700  13.156  20.810  0.00  0.00    +0.000 A 
ATOM     12  C   UNL     1      -1.704  12.191  21.029  0.00  0.00    +0.000 A 
ENDROOT
BRANCH   1  14
ATOM     13  C   UNL     1      -1.790  11.599  17.749  0.00  0.00    +0.000 C 
ATOM     14  C   UNL     1      -0.859  12.373  18.672  0.00  0.00    +0.000 C 
ENDBRANCH   1  14
BRANCH   4  15
ATOM     15  C   UNL     1       1.390   9.400  21.784  0.00  0.00    +0.000 C 
BRANCH  15  16
ATOM     16  C   UNL     1       1.105   8.071  21.082  0.00  0.00    +0.000 C 
ATOM     17  O   UNL     1       0.018   7.508  21.202  0.00  0.00    +0.000 OA
ATOM     18  N   UNL     1       2.182   7.582  20.346  0.00  0.00    +0.000 N 
ATOM     19  H   UNL     1       3.079   8.039  20.465  0.00  0.00    +0.000 HD
BRANCH  18  20
ATOM     20  C   UNL     1       2.188   6.318  19.721  0.00  0.00    +0.000 A 
ATOM     21  C   UNL     1       2.392   6.174  18.347  0.00  0.00    +0.000 A 
ATOM     22  C   UNL     1       2.285   4.919  17.751  0.00  0.00    +0.000 A 
ATOM     23  C   UNL     1       1.941   3.813  18.526  0.00  0.00    +0.000 A 
ATOM     24  C   UNL     1       1.760   3.940  19.906  0.00  0.00    +0.000 A 
ATOM     25  C   UNL     1       1.935   5.187  20.510  0.00  0.00    +0.000 A 
BRANCH  24  26
ATOM     26  O   UNL     1       1.375   2.786  20.530  0.00  0.00    +0.000 OA
ATOM     27  C   UNL     1       1.635   2.681  21.918  0.00  0.00    +0.000 C 
ENDBRANCH  24  26
ENDBRANCH  18  20
ENDBRANCH  15  16
ENDBRANCH   4  15
TORSDOF 5
ENDMDL
MODEL 6
REMARK VINA RESULT:      -6.8      3.537      5.614
REMARK  Name = 
REMARK  7 active torsions:
REMARK  status: ('A' for Active; 'I' for Inactive)
REMARK    1  A    between atoms: C_1  and  C_2
REMARK    2  A    between atoms: C_2  and  N_3
REMARK    3  A    between atoms: N_6  and  C_7
REMARK    4  A    between atoms: C_7  and  C_8
REMARK    5  A    between atoms: N_10  and  C_11
REMARK    6  A    between atoms: C_15  and  O_16
REMARK    7  A    between atoms: O_16  and  C_17
REMARK                            x       y       z     vdW  Elec       q    Type
REMARK                         _______ _______ _______ _____ _____    ______ ____
ROOT
ATOM      1  N   UNL     1       2.233   6.452  19.908  0.00  0.00    +0.000 N 
ATOM      2  C   UNL     1       1.703   7.673  20.316  0.00  0.00    +0.000 A 
ATOM      3  O   UNL     1       1.199   7.830  21.434  0.00  0.00    +0.000 OA
ATOM      4  N   UNL     1       1.767   8.723  19.412  0.00  0.00    +0.000 N 
ATOM      5  C   UNL     1       2.427   8.683  18.194  0.00  0.00    +0.000 A 
ATOM      6  O   UNL     1       2.504   9.636  17.423  0.00  0.00    +0.000 OA
ATOM      7  C   UNL     1       3.121   7.427  17.865  0.00  0.00    +0.000 A 
ATOM      8  C   UNL     1       3.938   7.372  16.724  0.00  0.00    +0.000 A 
ATOM      9  C   UNL     1       4.627   6.204  16.414  0.00  0.00    +0.000 A 
ATOM     10  C   UNL     1       4.470   5.083  17.222  0.00  0.00    +0.000 A 
ATOM     11  C   UNL     1       3.645   5.139  18.350  0.00  0.00    +0.000 A 
ATOM     12  C   UNL     1       2.984   6.325  18.707  0.00  0.00    +0.000 A 
ENDROOT
BRANCH   1  14
ATOM     13  C   UNL     1       0.973   4.370  20.430  0.00  0.00    +0.000 C 
ATOM     14  C   UNL     1       2.095   5.319  20.827  0.00  0.00    +0.000 C 
ENDBRANCH   1  14
BRANCH   4  15
ATOM     15  C   UNL     1       1.149   9.974  19.822  0.00  0.00    +0.000 C 
BRANCH  15  16
ATOM     16  C   UNL     1      -0.327   9.991  19.418  0.00  0.00    +0.000 C 
ATOM     17  O   UNL     1      -1.193   9.520  20.153  0.00  0.00    +0.000 OA
ATOM     18  N   UNL     1      -0.560  10.551  18.165  0.00  0.00    +0.000 N 
ATOM     19  H   UNL     1       0.244  10.741  17.578  0.00  0.00    +0.000 HD
BRANCH  18  20
ATOM     20  C   UNL     1      -1.823  10.559  17.538  0.00  0.00    +0.000 A 
ATOM     21  C   UNL     1      -2.045   9.925  16.314  0.00  0.00    +0.000 A 
ATOM     22  C   UNL     1      -3.277  10.046  15.675  0.00  0.00    +0.000 A 
ATOM     23  C   UNL     1      -4.278  10.828  16.249  0.00  0.00    +0.000 A 
ATOM     24  C   UNL     1      -4.077  11.446  17.486  0.00  0.00    +0.000 A 
ATOM     25  C   UNL     1      -2.865  11.267  18.155  0.00  0.00    +0.000 A 
BRANCH  24  26
ATOM     26  O   UNL     1      -5.124  12.224  17.902  0.00  0.00    +0.000 OA
ATOM     27  C   UNL     1      -5.127  12.635  19.256  0.00  0.00    +0.000 C 
ENDBRANCH  24  26
ENDBRANCH  18  20
ENDBRANCH  15  16
ENDBRANCH   4  15
TORSDOF 5
ENDMDL
MODEL 7
REMARK VINA RESULT:      -6.8      2.948      5.103
REMARK  Name = 
REMARK  7 active torsions:
REMARK  status: ('A' for Active; 'I' for Inactive)
REMARK    1  A    between atoms: C_1  and  C_2
REMARK    2  A    between atoms: C_2  and  N_3
REMARK    3  A    between atoms: N_6  and  C_7
REMARK    4  A    between atoms: C_7  and  C_8
REMARK    5  A    between atoms: N_10  and  C_11
REMARK    6  A    between atoms: C_15  and  O_16
REMARK    7  A    between atoms: O_16  and  C_17
REMARK                            x       y       z     vdW  Elec       q    Type
REMARK                         _______ _______ _______ _____ _____    ______ ____
ROOT
ATOM      1  N   UNL     1       3.539   5.024  17.826  0.00  0.00    +0.000 N 
ATOM      2  C   UNL     1       3.515   6.411  17.944  0.00  0.00    +0.000 A 
ATOM      3  O   UNL     1       4.088   7.150  17.135  0.00  0.00    +0.000 OA
ATOM      4  N   UNL     1       2.813   6.943  19.015  0.00  0.00    +0.000 N 
ATOM      5  C   UNL     1       2.033   6.210  19.895  0.00  0.00    +0.000 A 
ATOM      6  O   UNL     1       1.387   6.703  20.816  0.00  0.00    +0.000 OA
ATOM      7  C   UNL     1       1.944   4.762  19.643  0.00  0.00    +0.000 A 
ATOM      8  C   UNL     1       1.048   3.987  20.397  0.00  0.00    +0.000 A 
ATOM      9  C   UNL     1       0.927   2.622  20.152  0.00  0.00    +0.000 A 
ATOM     10  C   UNL     1       1.725   2.030  19.180  0.00  0.00    +0.000 A 
ATOM     11  C   UNL     1       2.625   2.803  18.440  0.00  0.00    +0.000 A 
ATOM     12  C   UNL     1       2.722   4.190  18.639  0.00  0.00    +0.000 A 
ENDROOT
BRANCH   1  14
ATOM     13  C   UNL     1       5.806   4.263  17.137  0.00  0.00    +0.000 C 
ATOM     14  C   UNL     1       4.348   4.455  16.745  0.00  0.00    +0.000 C 
ENDBRANCH   1  14
BRANCH   4  15
ATOM     15  C   UNL     1       2.853   8.389  19.167  0.00  0.00    +0.000 C 
BRANCH  15  16
ATOM     16  C   UNL     1       1.689   9.031  18.411  0.00  0.00    +0.000 C 
ATOM     17  O   UNL     1       1.708   9.141  17.186  0.00  0.00    +0.000 OA
ATOM     18  N   UNL     1       0.663   9.483  19.237  0.00  0.00    +0.000 N 
ATOM     19  H   UNL     1       0.836   9.501  20.235  0.00  0.00    +0.000 HD
BRANCH  18  20
ATOM     20  C   UNL     1      -0.448  10.216  18.770  0.00  0.00    +0.000 A 
ATOM     21  C   UNL     1      -0.905  11.362  19.423  0.00  0.00    +0.000 A 
ATOM     22  C   UNL     1      -2.068  11.997  18.993  0.00  0.00    +0.000 A 
ATOM     23  C   UNL     1      -2.792  11.464  17.928  0.00  0.00    +0.000 A 
ATOM     24  C   UNL     1      -2.332  10.332  17.250  0.00  0.00    +0.000 A 
ATOM     25  C   UNL     1      -1.130   9.739  17.641  0.00  0.00    +0.000 A 
BRANCH  24  26
ATOM     26  O   UNL     1      -3.168   9.891  16.262  0.00  0.00    +0.000 OA
ATOM     27  C   UNL     1      -3.329  10.723  15.129  0.00  0.00    +0.000 C 
ENDBRANCH  24  26
ENDBRANCH  18  20
ENDBRANCH  15  16
ENDBRANCH   4  15
TORSDOF 5
ENDMDL
MODEL 8
REMARK VINA RESULT:      -6.8      3.672      6.265
REMARK  Name = 
REMARK  7 active torsions:
REMARK  status: ('A' for Active; 'I' for Inactive)
REMARK    1  A    between atoms: C_1  and  C_2
REMARK    2  A    between atoms: C_2  and  N_3
REMARK    3  A    between atoms: N_6  and  C_7
REMARK    4  A    between atoms: C_7  and  C_8
REMARK    5  A    between atoms: N_10  and  C_11
REMARK    6  A    between atoms: C_15  and  O_16
REMARK    7  A    between atoms: O_16  and  C_17
REMARK                            x       y       z     vdW  Elec       q    Type
REMARK                         _______ _______ _______ _____ _____    ______ ____
ROOT
ATOM      1  N   UNL     1       5.584   4.903  16.138  0.00  0.00    +0.000 N 
ATOM      2  C   UNL     1       6.725   5.591  16.545  0.00  0.00    +0.000 A 
ATOM      3  O   UNL     1       7.500   6.114  15.736  0.00  0.00    +0.000 OA
ATOM      4  N   UNL     1       6.961   5.673  17.908  0.00  0.00    +0.000 N 
ATOM      5  C   UNL     1       6.088   5.238  18.893  0.00  0.00    +0.000 A 
ATOM      6  O   UNL     1       6.298   5.353  20.097  0.00  0.00    +0.000 OA
ATOM      7  C   UNL     1       4.812   4.665  18.432  0.00  0.00    +0.000 A 
ATOM      8  C   UNL     1       3.820   4.351  19.374  0.00  0.00    +0.000 A 
ATOM      9  C   UNL     1       2.596   3.838  18.955  0.00  0.00    +0.000 A 
ATOM     10  C   UNL     1       2.380   3.606  17.601  0.00  0.00    +0.000 A 
ATOM     11  C   UNL     1       3.376   3.909  16.668  0.00  0.00    +0.000 A 
ATOM     12  C   UNL     1       4.597   4.476  17.068  0.00  0.00    +0.000 A 
ENDROOT
BRANCH   1  14
ATOM     13  C   UNL     1       6.186   3.599  14.106  0.00  0.00    +0.000 C 
ATOM     14  C   UNL     1       5.374   4.743  14.697  0.00  0.00    +0.000 C 
ENDBRANCH   1  14
BRANCH   4  15
ATOM     15  C   UNL     1       8.190   6.334  18.318  0.00  0.00    +0.000 C 
BRANCH  15  16
ATOM     16  C   UNL     1       8.012   7.852  18.280  0.00  0.00    +0.000 C 
ATOM     17  O   UNL     1       7.127   8.372  17.600  0.00  0.00    +0.000 OA
ATOM     18  N   UNL     1       8.942   8.547  19.047  0.00  0.00    +0.000 N 
ATOM     19  H   UNL     1       9.729   8.027  19.418  0.00  0.00    +0.000 HD
BRANCH  18  20
ATOM     20  C   UNL     1       9.045   9.954  19.062  0.00  0.00    +0.000 A 
ATOM     21  C   UNL     1       8.872  10.720  17.907  0.00  0.00    +0.000 A 
ATOM     22  C   UNL     1       9.087  12.096  17.940  0.00  0.00    +0.000 A 
ATOM     23  C   UNL     1       9.506  12.701  19.123  0.00  0.00    +0.000 A 
ATOM     24  C   UNL     1       9.658  11.950  20.291  0.00  0.00    +0.000 A 
ATOM     25  C   UNL     1       9.376  10.582  20.271  0.00  0.00    +0.000 A 
BRANCH  24  26
ATOM     26  O   UNL     1      10.124  12.663  21.362  0.00  0.00    +0.000 OA
ATOM     27  C   UNL     1       9.480  13.889  21.654  0.00  0.00    +0.000 C 
ENDBRANCH  24  26
ENDBRANCH  18  20
ENDBRANCH  15  16
ENDBRANCH   4  15
TORSDOF 5
ENDMDL
MODEL 9
REMARK VINA RESULT:      -6.8      4.529      7.378
REMARK  Name = 
REMARK  7 active torsions:
REMARK  status: ('A' for Active; 'I' for Inactive)
REMARK    1  A    between atoms: C_1  and  C_2
REMARK    2  A    between atoms: C_2  and  N_3
REMARK    3  A    between atoms: N_6  and  C_7
REMARK    4  A    between atoms: C_7  and  C_8
REMARK    5  A    between atoms: N_10  and  C_11
REMARK    6  A    between atoms: C_15  and  O_16
REMARK    7  A    between atoms: O_16  and  C_17
REMARK                            x       y       z     vdW  Elec       q    Type
REMARK                         _______ _______ _______ _____ _____    ______ ____
ROOT
ATOM      1  N   UNL     1       1.128   9.390  21.199  0.00  0.00    +0.000 N 
ATOM      2  C   UNL     1       1.107  10.686  20.691  0.00  0.00    +0.000 A 
ATOM      3  O   UNL     1       0.915  11.672  21.413  0.00  0.00    +0.000 OA
ATOM      4  N   UNL     1       1.314  10.836  19.328  0.00  0.00    +0.000 N 
ATOM      5  C   UNL     1       1.667   9.812  18.463  0.00  0.00    +0.000 A 
ATOM      6  O   UNL     1       1.883   9.971  17.264  0.00  0.00    +0.000 OA
ATOM      7  C   UNL     1       1.846   8.479  19.061  0.00  0.00    +0.000 A 
ATOM      8  C   UNL     1       2.355   7.435  18.272  0.00  0.00    +0.000 A 
ATOM      9  C   UNL     1       2.561   6.176  18.828  0.00  0.00    +0.000 A 
ATOM     10  C   UNL     1       2.225   5.954  20.159  0.00  0.00    +0.000 A 
ATOM     11  C   UNL     1       1.706   6.994  20.937  0.00  0.00    +0.000 A 
ATOM     12  C   UNL     1       1.542   8.283  20.406  0.00  0.00    +0.000 A 
ENDROOT
BRANCH   1  14
ATOM     13  C   UNL     1      -0.664   9.254  22.919  0.00  0.00    +0.000 C 
ATOM     14  C   UNL     1       0.828   9.221  22.623  0.00  0.00    +0.000 C 
ENDBRANCH   1  14
BRANCH   4  15
ATOM     15  C   UNL     1       1.220  12.187  18.799  0.00  0.00    +0.000 C 
BRANCH  15  16
ATOM     16  C   UNL     1      -0.198  12.459  18.295  0.00  0.00    +0.000 C 
ATOM     17  O   UNL     1      -0.631  13.607  18.199  0.00  0.00    +0.000 OA
ATOM     18  N   UNL     1      -0.919  11.305  17.997  0.00  0.00    +0.000 N 
ATOM     19  H   UNL     1      -0.525  10.417  18.283  0.00  0.00    +0.000 HD
BRANCH  18  20
ATOM     20  C   UNL     1      -2.283  11.311  17.637  0.00  0.00    +0.000 A 
ATOM     21  C   UNL     1      -2.703  11.060  16.329  0.00  0.00    +0.000 A 
ATOM     22  C   UNL     1      -4.050  11.180  15.991  0.00  0.00    +0.000 A 
ATOM     23  C   UNL     1      -4.971  11.582  16.957  0.00  0.00    +0.000 A 
ATOM     24  C   UNL     1      -4.567  11.811  18.274  0.00  0.00    +0.000 A 
ATOM     25  C   UNL     1      -3.228  11.623  18.625  0.00  0.00    +0.000 A 
BRANCH  24  26
ATOM     26  O   UNL     1      -5.566  12.249  19.100  0.00  0.00    +0.000 OA
ATOM     27  C   UNL     1      -6.621  11.348  19.377  0.00  0.00    +0.000 C 
ENDBRANCH  24  26
ENDBRANCH  18  20
ENDBRANCH  15  16
ENDBRANCH   4  15
TORSDOF 5
ENDMDL
