MODEL 1
REMARK VINA RESULT:      -7.5      0.000      0.000
REMARK  Name = 
REMARK  9 active torsions:
REMARK  status: ('A' for Active; 'I' for Inactive)
REMARK    1  A    between atoms: C_1  and  O_2
REMARK    2  A    between atoms: O_2  and  C_3
REMARK    3  A    between atoms: C_7  and  O_8
REMARK    4  A    between atoms: O_8  and  C_9
REMARK    5  A    between atoms: C_9  and  C_10
REMARK    6  A    between atoms: C_19  and  O_20
REMARK    7  A    between atoms: O_20  and  C_21
REMARK    8  A    between atoms: C_22  and  O_23
REMARK    9  A    between atoms: O_23  and  C_24
REMARK                            x       y       z     vdW  Elec       q    Type
REMARK                         _______ _______ _______ _____ _____    ______ ____
ROOT
ATOM      1  C   UNL     1      -0.075   9.742  20.956  0.00  0.00    +0.000 A 
ATOM      2  C   UNL     1       0.362   8.485  21.361  0.00  0.00    +0.000 A 
ATOM      3  C   UNL     1       1.266   7.731  20.610  0.00  0.00    +0.000 A 
ATOM      4  C   UNL     1       1.544   6.451  21.091  0.00  0.00    +0.000 A 
ATOM      5  C   UNL     1       2.370   5.580  20.399  0.00  0.00    +0.000 A 
ATOM      6  C   UNL     1       2.978   5.981  19.195  0.00  0.00    +0.000 A 
ATOM      7  C   UNL     1       3.825   5.090  18.484  0.00  0.00    +0.000 A 
ATOM      8  C   UNL     1       4.409   5.507  17.310  0.00  0.00    +0.000 A 
ATOM      9  C   UNL     1       4.179   6.757  16.820  0.00  0.00    +0.000 A 
ATOM     10  C   UNL     1       3.360   7.649  17.470  0.00  0.00    +0.000 A 
ATOM     11  C   UNL     1       2.721   7.310  18.689  0.00  0.00    +0.000 A 
ATOM     12  C   UNL     1       1.832   8.231  19.417  0.00  0.00    +0.000 A 
ATOM     13  C   UNL     1       1.447   9.597  19.066  0.00  0.00    +0.000 A 
ATOM     14  C   UNL     1       0.513  10.343  19.837  0.00  0.00    +0.000 A 
ATOM     15  O   UNL     1       4.832   6.998  15.653  0.00  0.00    +0.000 OA
ATOM     16  C   UNL     1       5.539   5.755  15.483  0.00  0.00    +0.000 C 
ATOM     17  O   UNL     1       5.247   4.787  16.515  0.00  0.00    +0.000 OA
ENDROOT
BRANCH   1  19
ATOM     18  C   UNL     1      -0.878  10.541  23.034  0.00  0.00    +0.000 C 
ATOM     19  O   UNL     1      -1.078  10.395  21.629  0.00  0.00    +0.000 OA
ENDBRANCH   1  19
BRANCH  13  20
ATOM     20  O   UNL     1       2.062  10.075  17.931  0.00  0.00    +0.000 OA
ATOM     21  C   UNL     1       2.585  11.386  17.826  0.00  0.00    +0.000 C 
ENDBRANCH  13  20
BRANCH  14  22
ATOM     22  O   UNL     1       0.157  11.587  19.379  0.00  0.00    +0.000 OA
ATOM     23  C   UNL     1      -1.008  11.708  18.573  0.00  0.00    +0.000 C 
ENDBRANCH  14  22
BRANCH   5  24
ATOM     24  O   UNL     1       2.615   4.252  20.883  0.00  0.00    +0.000 OA
BRANCH  24  25
ATOM     25  C   UNL     1       1.678   3.232  21.111  0.00  0.00    +0.000 C 
ATOM     26  C   UNL     1       0.904   2.941  19.859  0.00  0.00    +0.000 C 
ATOM     27  O   UNL     1       1.477   2.639  22.162  0.00  0.00    +0.000 OA
ENDBRANCH  24  25
ENDBRANCH   5  24
TORSDOF 5
ENDMDL
MODEL 2
REMARK VINA RESULT:      -7.4      1.372      4.596
REMARK  Name = 
REMARK  9 active torsions:
REMARK  status: ('A' for Active; 'I' for Inactive)
REMARK    1  A    between atoms: C_1  and  O_2
REMARK    2  A    between atoms: O_2  and  C_3
REMARK    3  A    between atoms: C_7  and  O_8
REMARK    4  A    between atoms: O_8  and  C_9
REMARK    5  A    between atoms: C_9  and  C_10
REMARK    6  A    between atoms: C_19  and  O_20
REMARK    7  A    between atoms: O_20  and  C_21
REMARK    8  A    between atoms: C_22  and  O_23
REMARK    9  A    between atoms: O_23  and  C_24
REMARK                            x       y       z     vdW  Elec       q    Type
REMARK                         _______ _______ _______ _____ _____    ______ ____
ROOT
ATOM      1  C   UNL     1       1.469  10.804  18.686  0.00  0.00    +0.000 A 
ATOM      2  C   UNL     1       2.223   9.982  17.853  0.00  0.00    +0.000 A 
ATOM      3  C   UNL     1       2.477   8.643  18.160  0.00  0.00    +0.000 A 
ATOM      4  C   UNL     1       3.323   7.964  17.281  0.00  0.00    +0.000 A 
ATOM      5  C   UNL     1       3.708   6.654  17.513  0.00  0.00    +0.000 A 
ATOM      6  C   UNL     1       3.226   5.959  18.637  0.00  0.00    +0.000 A 
ATOM      7  C   UNL     1       3.619   4.615  18.876  0.00  0.00    +0.000 A 
ATOM      8  C   UNL     1       3.131   3.957  19.982  0.00  0.00    +0.000 A 
ATOM      9  C   UNL     1       2.286   4.578  20.850  0.00  0.00    +0.000 A 
ATOM     10  C   UNL     1       1.886   5.881  20.663  0.00  0.00    +0.000 A 
ATOM     11  C   UNL     1       2.331   6.635  19.548  0.00  0.00    +0.000 A 
ATOM     12  C   UNL     1       1.933   8.032  19.310  0.00  0.00    +0.000 A 
ATOM     13  C   UNL     1       1.053   8.881  20.113  0.00  0.00    +0.000 A 
ATOM     14  C   UNL     1       0.818  10.247  19.792  0.00  0.00    +0.000 A 
ATOM     15  O   UNL     1       1.907   3.782  21.884  0.00  0.00    +0.000 OA
ATOM     16  C   UNL     1       2.589   2.561  21.542  0.00  0.00    +0.000 C 
ATOM     17  O   UNL     1       3.400   2.675  20.351  0.00  0.00    +0.000 OA
ENDROOT
BRANCH   1  19
ATOM     18  C   UNL     1       2.593  12.823  18.170  0.00  0.00    +0.000 C 
ATOM     19  O   UNL     1       1.363  12.151  18.443  0.00  0.00    +0.000 OA
ENDBRANCH   1  19
BRANCH  13  20
ATOM     20  O   UNL     1       0.493   8.238  21.193  0.00  0.00    +0.000 OA
ATOM     21  C   UNL     1       0.408   8.817  22.482  0.00  0.00    +0.000 C 
ENDBRANCH  13  20
BRANCH  14  22
ATOM     22  O   UNL     1       0.040  10.979  20.653  0.00  0.00    +0.000 OA
ATOM     23  C   UNL     1      -1.261  11.369  20.230  0.00  0.00    +0.000 C 
ENDBRANCH  14  22
BRANCH   5  24
ATOM     24  O   UNL     1       4.612   5.981  16.625  0.00  0.00    +0.000 OA
BRANCH  24  25
ATOM     25  C   UNL     1       6.010   6.096  16.570  0.00  0.00    +0.000 C 
ATOM     26  C   UNL     1       6.645   4.740  16.479  0.00  0.00    +0.000 C 
ATOM     27  O   UNL     1       6.665   7.129  16.596  0.00  0.00    +0.000 OA
ENDBRANCH  24  25
ENDBRANCH   5  24
TORSDOF 5
ENDMDL
MODEL 3
REMARK VINA RESULT:      -6.3      1.375      4.509
REMARK  Name = 
REMARK  9 active torsions:
REMARK  status: ('A' for Active; 'I' for Inactive)
REMARK    1  A    between atoms: C_1  and  O_2
REMARK    2  A    between atoms: O_2  and  C_3
REMARK    3  A    between atoms: C_7  and  O_8
REMARK    4  A    between atoms: O_8  and  C_9
REMARK    5  A    between atoms: C_9  and  C_10
REMARK    6  A    between atoms: C_19  and  O_20
REMARK    7  A    between atoms: O_20  and  C_21
REMARK    8  A    between atoms: C_22  and  O_23
REMARK    9  A    between atoms: O_23  and  C_24
REMARK                            x       y       z     vdW  Elec       q    Type
REMARK                         _______ _______ _______ _____ _____    ______ ____
ROOT
ATOM      1  C   UNL     1       1.431  10.593  18.605  0.00  0.00    +0.000 A 
ATOM      2  C   UNL     1       2.318   9.797  17.886  0.00  0.00    +0.000 A 
ATOM      3  C   UNL     1       2.594   8.475  18.245  0.00  0.00    +0.000 A 
ATOM      4  C   UNL     1       3.573   7.828  17.489  0.00  0.00    +0.000 A 
ATOM      5  C   UNL     1       3.986   6.540  17.790  0.00  0.00    +0.000 A 
ATOM      6  C   UNL     1       3.402   5.837  18.859  0.00  0.00    +0.000 A 
ATOM      7  C   UNL     1       3.824   4.516  19.168  0.00  0.00    +0.000 A 
ATOM      8  C   UNL     1       3.235   3.848  20.217  0.00  0.00    +0.000 A 
ATOM      9  C   UNL     1       2.262   4.439  20.964  0.00  0.00    +0.000 A 
ATOM     10  C   UNL     1       1.828   5.719  20.706  0.00  0.00    +0.000 A 
ATOM     11  C   UNL     1       2.372   6.480  19.641  0.00  0.00    +0.000 A 
ATOM     12  C   UNL     1       1.942   7.853  19.331  0.00  0.00    +0.000 A 
ATOM     13  C   UNL     1       0.932   8.668  20.005  0.00  0.00    +0.000 A 
ATOM     14  C   UNL     1       0.675  10.018  19.633  0.00  0.00    +0.000 A 
ATOM     15  O   UNL     1       1.796   3.639  21.958  0.00  0.00    +0.000 OA
ATOM     16  C   UNL     1       2.570   2.448  21.724  0.00  0.00    +0.000 C 
ATOM     17  O   UNL     1       3.515   2.586  20.639  0.00  0.00    +0.000 OA
ENDROOT
BRANCH   1  19
ATOM     18  C   UNL     1       2.512  12.671  18.266  0.00  0.00    +0.000 C 
ATOM     19  O   UNL     1       1.293  11.929  18.327  0.00  0.00    +0.000 OA
ENDBRANCH   1  19
BRANCH  13  20
ATOM     20  O   UNL     1       0.273   8.013  21.020  0.00  0.00    +0.000 OA
ATOM     21  C   UNL     1       0.190   8.513  22.341  0.00  0.00    +0.000 C 
ENDBRANCH  13  20
BRANCH  14  22
ATOM     22  O   UNL     1      -0.236  10.722  20.380  0.00  0.00    +0.000 OA
ATOM     23  C   UNL     1       0.238  11.758  21.232  0.00  0.00    +0.000 C 
ENDBRANCH  14  22
BRANCH   5  24
ATOM     24  O   UNL     1       5.022   5.901  17.031  0.00  0.00    +0.000 OA
BRANCH  24  25
ATOM     25  C   UNL     1       4.883   4.912  16.044  0.00  0.00    +0.000 C 
ATOM     26  C   UNL     1       5.757   5.221  14.865  0.00  0.00    +0.000 C 
ATOM     27  O   UNL     1       4.161   3.925  16.088  0.00  0.00    +0.000 OA
ENDBRANCH  24  25
ENDBRANCH   5  24
TORSDOF 5
ENDMDL
MODEL 4
REMARK VINA RESULT:      -6.2      1.466      6.172
REMARK  Name = 
REMARK  9 active torsions:
REMARK  status: ('A' for Active; 'I' for Inactive)
REMARK    1  A    between atoms: C_1  and  O_2
REMARK    2  A    between atoms: O_2  and  C_3
REMARK    3  A    between atoms: C_7  and  O_8
REMARK    4  A    between atoms: O_8  and  C_9
REMARK    5  A    between atoms: C_9  and  C_10
REMARK    6  A    between atoms: C_19  and  O_20
REMARK    7  A    between atoms: O_20  and  C_21
REMARK    8  A    between atoms: C_22  and  O_23
REMARK    9  A    between atoms: O_23  and  C_24
REMARK                            x       y       z     vdW  Elec       q    Type
REMARK                         _______ _______ _______ _____ _____    ______ ____
ROOT
ATOM      1  C   UNL     1       2.911   4.446  19.790  0.00  0.00    +0.000 A 
ATOM      2  C   UNL     1       1.930   5.106  20.524  0.00  0.00    +0.000 A 
ATOM      3  C   UNL     1       1.632   6.456  20.327  0.00  0.00    +0.000 A 
ATOM      4  C   UNL     1       0.691   7.009  21.197  0.00  0.00    +0.000 A 
ATOM      5  C   UNL     1       0.363   8.354  21.150  0.00  0.00    +0.000 A 
ATOM      6  C   UNL     1       0.956   9.198  20.194  0.00  0.00    +0.000 A 
ATOM      7  C   UNL     1       0.620  10.577  20.143  0.00  0.00    +0.000 A 
ATOM      8  C   UNL     1       1.213  11.381  19.197  0.00  0.00    +0.000 A 
ATOM      9  C   UNL     1       2.120  10.874  18.316  0.00  0.00    +0.000 A 
ATOM     10  C   UNL     1       2.481   9.547  18.334  0.00  0.00    +0.000 A 
ATOM     11  C   UNL     1       1.917   8.643  19.269  0.00  0.00    +0.000 A 
ATOM     12  C   UNL     1       2.277   7.216  19.328  0.00  0.00    +0.000 A 
ATOM     13  C   UNL     1       3.224   6.478  18.493  0.00  0.00    +0.000 A 
ATOM     14  C   UNL     1       3.523   5.105  18.718  0.00  0.00    +0.000 A 
ATOM     15  O   UNL     1       2.605  11.807  17.456  0.00  0.00    +0.000 OA
ATOM     16  C   UNL     1       1.862  12.967  17.877  0.00  0.00    +0.000 C 
ATOM     17  O   UNL     1       1.000  12.712  19.009  0.00  0.00    +0.000 OA
ENDROOT
BRANCH   1  19
ATOM     18  C   UNL     1       2.388   2.139  19.696  0.00  0.00    +0.000 C 
ATOM     19  O   UNL     1       3.291   3.166  20.106  0.00  0.00    +0.000 OA
ENDBRANCH   1  19
BRANCH  13  20
ATOM     20  O   UNL     1       3.789   7.233  17.491  0.00  0.00    +0.000 OA
ATOM     21  C   UNL     1       5.182   7.270  17.238  0.00  0.00    +0.000 C 
ENDBRANCH  13  20
BRANCH  14  22
ATOM     22  O   UNL     1       4.485   4.525  17.930  0.00  0.00    +0.000 OA
ATOM     23  C   UNL     1       4.072   3.777  16.792  0.00  0.00    +0.000 C 
ENDBRANCH  14  22
BRANCH   5  24
ATOM     24  O   UNL     1      -0.575   8.919  22.077  0.00  0.00    +0.000 OA
BRANCH  24  25
ATOM     25  C   UNL     1      -0.307   9.758  23.170  0.00  0.00    +0.000 C 
ATOM     26  C   UNL     1      -1.258  10.918  23.187  0.00  0.00    +0.000 C 
ATOM     27  O   UNL     1       0.570   9.613  24.012  0.00  0.00    +0.000 OA
ENDBRANCH  24  25
ENDBRANCH   5  24
TORSDOF 5
ENDMDL
MODEL 5
REMARK VINA RESULT:      -6.2      6.182      9.191
REMARK  Name = 
REMARK  9 active torsions:
REMARK  status: ('A' for Active; 'I' for Inactive)
REMARK    1  A    between atoms: C_1  and  O_2
REMARK    2  A    between atoms: O_2  and  C_3
REMARK    3  A    between atoms: C_7  and  O_8
REMARK    4  A    between atoms: O_8  and  C_9
REMARK    5  A    between atoms: C_9  and  C_10
REMARK    6  A    between atoms: C_19  and  O_20
REMARK    7  A    between atoms: O_20  and  C_21
REMARK    8  A    between atoms: C_22  and  O_23
REMARK    9  A    between atoms: O_23  and  C_24
REMARK                            x       y       z     vdW  Elec       q    Type
REMARK                         _______ _______ _______ _____ _____    ______ ____
ROOT
ATOM      1  C   UNL     1      -3.821  11.192  17.117  0.00  0.00    +0.000 A 
ATOM      2  C   UNL     1      -2.496  11.155  17.540  0.00  0.00    +0.000 A 
ATOM      3  C   UNL     1      -2.086  11.699  18.760  0.00  0.00    +0.000 A 
ATOM      4  C   UNL     1      -0.714  11.672  19.012  0.00  0.00    +0.000 A 
ATOM      5  C   UNL     1      -0.176  12.243  20.154  0.00  0.00    +0.000 A 
ATOM      6  C   UNL     1      -1.012  12.844  21.111  0.00  0.00    +0.000 A 
ATOM      7  C   UNL     1      -0.462  13.429  22.283  0.00  0.00    +0.000 A 
ATOM      8  C   UNL     1      -1.303  14.008  23.206  0.00  0.00    +0.000 A 
ATOM      9  C   UNL     1      -2.650  14.035  23.006  0.00  0.00    +0.000 A 
ATOM     10  C   UNL     1      -3.225  13.488  21.882  0.00  0.00    +0.000 A 
ATOM     11  C   UNL     1      -2.439  12.863  20.882  0.00  0.00    +0.000 A 
ATOM     12  C   UNL     1      -3.010  12.270  19.661  0.00  0.00    +0.000 A 
ATOM     13  C   UNL     1      -4.412  12.199  19.250  0.00  0.00    +0.000 A 
ATOM     14  C   UNL     1      -4.807  11.654  17.996  0.00  0.00    +0.000 A 
ATOM     15  O   UNL     1      -3.325  14.647  24.013  0.00  0.00    +0.000 OA
ATOM     16  C   UNL     1      -2.238  14.973  24.900  0.00  0.00    +0.000 C 
ATOM     17  O   UNL     1      -0.943  14.602  24.376  0.00  0.00    +0.000 OA
ENDROOT
BRANCH   1  19
ATOM     18  C   UNL     1      -3.092  10.375  15.019  0.00  0.00    +0.000 C 
ATOM     19  O   UNL     1      -4.173  10.793  15.853  0.00  0.00    +0.000 OA
ENDBRANCH   1  19
BRANCH  13  20
ATOM     20  O   UNL     1      -5.291  12.710  20.177  0.00  0.00    +0.000 OA
ATOM     21  C   UNL     1      -6.307  11.939  20.791  0.00  0.00    +0.000 C 
ENDBRANCH  13  20
BRANCH  14  22
ATOM     22  O   UNL     1      -6.139  11.707  17.670  0.00  0.00    +0.000 OA
ATOM     23  C   UNL     1      -6.649  12.896  17.080  0.00  0.00    +0.000 C 
ENDBRANCH  14  22
BRANCH   5  24
ATOM     24  O   UNL     1       1.241  12.246  20.381  0.00  0.00    +0.000 OA
BRANCH  24  25
ATOM     25  C   UNL     1       2.213  13.035  19.747  0.00  0.00    +0.000 C 
ATOM     26  C   UNL     1       2.964  13.854  20.754  0.00  0.00    +0.000 C 
ATOM     27  O   UNL     1       2.449  13.090  18.547  0.00  0.00    +0.000 OA
ENDBRANCH  24  25
ENDBRANCH   5  24
TORSDOF 5
ENDMDL
MODEL 6
REMARK VINA RESULT:      -6.0      1.425      7.627
REMARK  Name = 
REMARK  9 active torsions:
REMARK  status: ('A' for Active; 'I' for Inactive)
REMARK    1  A    between atoms: C_1  and  O_2
REMARK    2  A    between atoms: O_2  and  C_3
REMARK    3  A    between atoms: C_7  and  O_8
REMARK    4  A    between atoms: O_8  and  C_9
REMARK    5  A    between atoms: C_9  and  C_10
REMARK    6  A    between atoms: C_19  and  O_20
REMARK    7  A    between atoms: O_20  and  C_21
REMARK    8  A    between atoms: C_22  and  O_23
REMARK    9  A    between atoms: O_23  and  C_24
REMARK                            x       y       z     vdW  Elec       q    Type
REMARK                         _______ _______ _______ _____ _____    ______ ____
ROOT
ATOM      1  C   UNL     1       3.764   5.945  17.413  0.00  0.00    +0.000 A 
ATOM      2  C   UNL     1       3.571   7.300  17.158  0.00  0.00    +0.000 A 
ATOM      3  C   UNL     1       2.825   8.120  18.009  0.00  0.00    +0.000 A 
ATOM      4  C   UNL     1       2.637   9.435  17.580  0.00  0.00    +0.000 A 
ATOM      5  C   UNL     1       1.859  10.327  18.300  0.00  0.00    +0.000 A 
ATOM      6  C   UNL     1       1.255   9.931  19.508  0.00  0.00    +0.000 A 
ATOM      7  C   UNL     1       0.457  10.845  20.247  0.00  0.00    +0.000 A 
ATOM      8  C   UNL     1      -0.119  10.434  21.427  0.00  0.00    +0.000 A 
ATOM      9  C   UNL     1       0.059   9.165  21.888  0.00  0.00    +0.000 A 
ATOM     10  C   UNL     1       0.817   8.245  21.201  0.00  0.00    +0.000 A 
ATOM     11  C   UNL     1       1.455   8.581  19.981  0.00  0.00    +0.000 A 
ATOM     12  C   UNL     1       2.270   7.628  19.210  0.00  0.00    +0.000 A 
ATOM     13  C   UNL     1       2.579   6.232  19.516  0.00  0.00    +0.000 A 
ATOM     14  C   UNL     1       3.328   5.409  18.630  0.00  0.00    +0.000 A 
ATOM     15  O   UNL     1      -0.583   8.932  23.063  0.00  0.00    +0.000 OA
ATOM     16  C   UNL     1      -1.162  10.227  23.310  0.00  0.00    +0.000 C 
ATOM     17  O   UNL     1      -0.901  11.179  22.255  0.00  0.00    +0.000 OA
ENDROOT
BRANCH   1  19
ATOM     18  C   UNL     1       5.414   5.732  15.729  0.00  0.00    +0.000 C 
ATOM     19  O   UNL     1       4.366   5.129  16.489  0.00  0.00    +0.000 OA
ENDBRANCH   1  19
BRANCH  13  20
ATOM     20  O   UNL     1       2.074   5.802  20.722  0.00  0.00    +0.000 OA
ATOM     21  C   UNL     1       1.317   4.614  20.868  0.00  0.00    +0.000 C 
ENDBRANCH  13  20
BRANCH  14  22
ATOM     22  O   UNL     1       3.494   4.090  18.972  0.00  0.00    +0.000 OA
ATOM     23  C   UNL     1       4.780   3.655  19.400  0.00  0.00    +0.000 C 
ENDBRANCH  14  22
BRANCH   5  24
ATOM     24  O   UNL     1       1.638  11.663  17.827  0.00  0.00    +0.000 OA
BRANCH  24  25
ATOM     25  C   UNL     1       2.356  12.823  18.158  0.00  0.00    +0.000 C 
ATOM     26  C   UNL     1       1.424  13.906  18.613  0.00  0.00    +0.000 C 
ATOM     27  O   UNL     1       3.568  12.982  18.095  0.00  0.00    +0.000 OA
ENDBRANCH  24  25
ENDBRANCH   5  24
TORSDOF 5
ENDMDL
MODEL 7
REMARK VINA RESULT:      -6.0      4.105      7.362
REMARK  Name = 
REMARK  9 active torsions:
REMARK  status: ('A' for Active; 'I' for Inactive)
REMARK    1  A    between atoms: C_1  and  O_2
REMARK    2  A    between atoms: O_2  and  C_3
REMARK    3  A    between atoms: C_7  and  O_8
REMARK    4  A    between atoms: O_8  and  C_9
REMARK    5  A    between atoms: C_9  and  C_10
REMARK    6  A    between atoms: C_19  and  O_20
REMARK    7  A    between atoms: O_20  and  C_21
REMARK    8  A    between atoms: C_22  and  O_23
REMARK    9  A    between atoms: O_23  and  C_24
REMARK                            x       y       z     vdW  Elec       q    Type
REMARK                         _______ _______ _______ _____ _____    ______ ____
ROOT
ATOM      1  C   UNL     1      -3.500  13.692  23.468  0.00  0.00    +0.000 A 
ATOM      2  C   UNL     1      -2.329  13.033  23.106  0.00  0.00    +0.000 A 
ATOM      3  C   UNL     1      -2.153  12.465  21.842  0.00  0.00    +0.000 A 
ATOM      4  C   UNL     1      -0.966  11.756  21.649  0.00  0.00    +0.000 A 
ATOM      5  C   UNL     1      -0.705  11.088  20.463  0.00  0.00    +0.000 A 
ATOM      6  C   UNL     1      -1.629  11.133  19.403  0.00  0.00    +0.000 A 
ATOM      7  C   UNL     1      -1.363  10.449  18.187  0.00  0.00    +0.000 A 
ATOM      8  C   UNL     1      -2.281  10.511  17.164  0.00  0.00    +0.000 A 
ATOM      9  C   UNL     1      -3.441  11.211  17.307  0.00  0.00    +0.000 A 
ATOM     10  C   UNL     1      -3.744  11.881  18.469  0.00  0.00    +0.000 A 
ATOM     11  C   UNL     1      -2.854  11.879  19.573  0.00  0.00    +0.000 A 
ATOM     12  C   UNL     1      -3.139  12.577  20.838  0.00  0.00    +0.000 A 
ATOM     13  C   UNL     1      -4.314  13.369  21.200  0.00  0.00    +0.000 A 
ATOM     14  C   UNL     1      -4.480  13.927  22.498  0.00  0.00    +0.000 A 
ATOM     15  O   UNL     1      -4.230  11.162  16.202  0.00  0.00    +0.000 OA
ATOM     16  C   UNL     1      -3.407  10.373  15.323  0.00  0.00    +0.000 C 
ATOM     17  O   UNL     1      -2.180   9.924  15.941  0.00  0.00    +0.000 OA
ENDROOT
BRANCH   1  19
ATOM     18  C   UNL     1      -2.842  15.139  25.222  0.00  0.00    +0.000 C 
ATOM     19  O   UNL     1      -3.709  14.104  24.760  0.00  0.00    +0.000 OA
ENDBRANCH   1  19
BRANCH  13  20
ATOM     20  O   UNL     1      -5.227  13.509  20.181  0.00  0.00    +0.000 OA
ATOM     21  C   UNL     1      -6.520  12.932  20.211  0.00  0.00    +0.000 C 
ENDBRANCH  13  20
BRANCH  14  22
ATOM     22  O   UNL     1      -5.655  14.586  22.763  0.00  0.00    +0.000 OA
ATOM     23  C   UNL     1      -5.687  16.001  22.630  0.00  0.00    +0.000 C 
ENDBRANCH  14  22
BRANCH   5  24
ATOM     24  O   UNL     1       0.500  10.328  20.293  0.00  0.00    +0.000 OA
BRANCH  24  25
ATOM     25  C   UNL     1       1.092   9.437  21.202  0.00  0.00    +0.000 C 
ATOM     26  C   UNL     1       1.455   8.153  20.517  0.00  0.00    +0.000 C 
ATOM     27  O   UNL     1       1.297   9.629  22.393  0.00  0.00    +0.000 OA
ENDBRANCH  24  25
ENDBRANCH   5  24
TORSDOF 5
ENDMDL
MODEL 8
REMARK VINA RESULT:      -6.0      4.773      9.747
REMARK  Name = 
REMARK  9 active torsions:
REMARK  status: ('A' for Active; 'I' for Inactive)
REMARK    1  A    between atoms: C_1  and  O_2
REMARK    2  A    between atoms: O_2  and  C_3
REMARK    3  A    between atoms: C_7  and  O_8
REMARK    4  A    between atoms: O_8  and  C_9
REMARK    5  A    between atoms: C_9  and  C_10
REMARK    6  A    between atoms: C_19  and  O_20
REMARK    7  A    between atoms: O_20  and  C_21
REMARK    8  A    between atoms: C_22  and  O_23
REMARK    9  A    between atoms: O_23  and  C_24
REMARK                            x       y       z     vdW  Elec       q    Type
REMARK                         _______ _______ _______ _____ _____    ______ ____
ROOT
ATOM      1  C   UNL     1      -1.706  11.101  18.206  0.00  0.00    +0.000 A 
ATOM      2  C   UNL     1      -2.948  11.546  18.650  0.00  0.00    +0.000 A 
ATOM      3  C   UNL     1      -3.100  12.277  19.831  0.00  0.00    +0.000 A 
ATOM      4  C   UNL     1      -4.412  12.577  20.199  0.00  0.00    +0.000 A 
ATOM      5  C   UNL     1      -4.698  13.236  21.384  0.00  0.00    +0.000 A 
ATOM      6  C   UNL     1      -3.660  13.647  22.239  0.00  0.00    +0.000 A 
ATOM      7  C   UNL     1      -3.952  14.322  23.454  0.00  0.00    +0.000 A 
ATOM      8  C   UNL     1      -2.918  14.717  24.272  0.00  0.00    +0.000 A 
ATOM      9  C   UNL     1      -1.623  14.460  23.935  0.00  0.00    +0.000 A 
ATOM     10  C   UNL     1      -1.295  13.802  22.773  0.00  0.00    +0.000 A 
ATOM     11  C   UNL     1      -2.293  13.366  21.867  0.00  0.00    +0.000 A 
ATOM     12  C   UNL     1      -1.988  12.653  20.615  0.00  0.00    +0.000 A 
ATOM     13  C   UNL     1      -0.683  12.273  20.074  0.00  0.00    +0.000 A 
ATOM     14  C   UNL     1      -0.550  11.516  18.877  0.00  0.00    +0.000 A 
ATOM     15  O   UNL     1      -0.735  14.916  24.857  0.00  0.00    +0.000 OA
ATOM     16  C   UNL     1      -1.628  15.529  25.805  0.00  0.00    +0.000 C 
ATOM     17  O   UNL     1      -3.023  15.375  25.458  0.00  0.00    +0.000 OA
ENDROOT
BRANCH   1  19
ATOM     18  C   UNL     1      -2.556  10.463  16.091  0.00  0.00    +0.000 C 
ATOM     19  O   UNL     1      -1.600  10.256  17.130  0.00  0.00    +0.000 OA
ENDBRANCH   1  19
BRANCH  13  20
ATOM     20  O   UNL     1       0.381  12.707  20.831  0.00  0.00    +0.000 OA
ATOM     21  C   UNL     1       1.309  13.676  20.381  0.00  0.00    +0.000 C 
ENDBRANCH  13  20
BRANCH  14  22
ATOM     22  O   UNL     1       0.714  11.142  18.497  0.00  0.00    +0.000 OA
ATOM     23  C   UNL     1       1.215   9.887  18.942  0.00  0.00    +0.000 C 
ENDBRANCH  14  22
BRANCH   5  24
ATOM     24  O   UNL     1      -6.054  13.501  21.772  0.00  0.00    +0.000 OA
BRANCH  24  25
ATOM     25  C   UNL     1      -6.969  12.618  22.368  0.00  0.00    +0.000 C 
ATOM     26  C   UNL     1      -7.541  13.219  23.617  0.00  0.00    +0.000 C 
ATOM     27  O   UNL     1      -7.283  11.505  21.969  0.00  0.00    +0.000 OA
ENDBRANCH  24  25
ENDBRANCH   5  24
TORSDOF 5
ENDMDL
MODEL 9
REMARK VINA RESULT:      -6.0      4.073      8.969
REMARK  Name = 
REMARK  9 active torsions:
REMARK  status: ('A' for Active; 'I' for Inactive)
REMARK    1  A    between atoms: C_1  and  O_2
REMARK    2  A    between atoms: O_2  and  C_3
REMARK    3  A    between atoms: C_7  and  O_8
REMARK    4  A    between atoms: O_8  and  C_9
REMARK    5  A    between atoms: C_9  and  C_10
REMARK    6  A    between atoms: C_19  and  O_20
REMARK    7  A    between atoms: O_20  and  C_21
REMARK    8  A    between atoms: C_22  and  O_23
REMARK    9  A    between atoms: O_23  and  C_24
REMARK                            x       y       z     vdW  Elec       q    Type
REMARK                         _______ _______ _______ _____ _____    ______ ____
ROOT
ATOM      1  C   UNL     1       0.442  10.102  19.342  0.00  0.00    +0.000 A 
ATOM      2  C   UNL     1      -0.239  10.076  18.128  0.00  0.00    +0.000 A 
ATOM      3  C   UNL     1      -1.512  10.631  17.975  0.00  0.00    +0.000 A 
ATOM      4  C   UNL     1      -2.112  10.449  16.728  0.00  0.00    +0.000 A 
ATOM      5  C   UNL     1      -3.400  10.891  16.473  0.00  0.00    +0.000 A 
ATOM      6  C   UNL     1      -4.131  11.565  17.467  0.00  0.00    +0.000 A 
ATOM      7  C   UNL     1      -5.452  12.020  17.207  0.00  0.00    +0.000 A 
ATOM      8  C   UNL     1      -6.145  12.679  18.196  0.00  0.00    +0.000 A 
ATOM      9  C   UNL     1      -5.585  12.894  19.419  0.00  0.00    +0.000 A 
ATOM     10  C   UNL     1      -4.313  12.465  19.717  0.00  0.00    +0.000 A 
ATOM     11  C   UNL     1      -3.521  11.784  18.758  0.00  0.00    +0.000 A 
ATOM     12  C   UNL     1      -2.158  11.302  19.035  0.00  0.00    +0.000 A 
ATOM     13  C   UNL     1      -1.381  11.417  20.269  0.00  0.00    +0.000 A 
ATOM     14  C   UNL     1      -0.091  10.833  20.410  0.00  0.00    +0.000 A 
ATOM     15  O   UNL     1      -6.410  13.556  20.271  0.00  0.00    +0.000 OA
ATOM     16  C   UNL     1      -7.553  13.769  19.423  0.00  0.00    +0.000 C 
ATOM     17  O   UNL     1      -7.406  13.182  18.110  0.00  0.00    +0.000 OA
ENDROOT
BRANCH   1  19
ATOM     18  C   UNL     1       1.483   8.033  19.827  0.00  0.00    +0.000 C 
ATOM     19  O   UNL     1       1.619   9.418  19.509  0.00  0.00    +0.000 OA
ENDBRANCH   1  19
BRANCH  13  20
ATOM     20  O   UNL     1      -2.015  12.129  21.262  0.00  0.00    +0.000 OA
ATOM     21  C   UNL     1      -1.525  13.355  21.771  0.00  0.00    +0.000 C 
ENDBRANCH  13  20
BRANCH  14  22
ATOM     22  O   UNL     1       0.522  10.929  21.634  0.00  0.00    +0.000 OA
ATOM     23  C   UNL     1       0.177   9.989  22.644  0.00  0.00    +0.000 C 
ENDBRANCH  14  22
BRANCH   5  24
ATOM     24  O   UNL     1      -4.021  10.661  15.200  0.00  0.00    +0.000 OA
BRANCH  24  25
ATOM     25  C   UNL     1      -3.473  10.021  14.077  0.00  0.00    +0.000 C 
ATOM     26  C   UNL     1      -4.556   9.635  13.113  0.00  0.00    +0.000 C 
ATOM     27  O   UNL     1      -2.292   9.781  13.870  0.00  0.00    +0.000 OA
ENDBRANCH  24  25
ENDBRANCH   5  24
TORSDOF 5
ENDMDL
