MODEL 1
REMARK VINA RESULT:      -7.5      0.000      0.000
REMARK  Name = 
REMARK  6 active torsions:
REMARK  status: ('A' for Active; 'I' for Inactive)
REMARK    1  A    between atoms: C_1  and  N_2
REMARK    2  A    between atoms: N_2  and  C_3
REMARK    3  A    between atoms: C_3  and  C_4
REMARK    4  A    between atoms: C_4  and  O_5
REMARK    5  A    between atoms: O_5  and  C_6
REMARK    6  A    between atoms: C_9  and  C_10
REMARK                            x       y       z     vdW  Elec       q    Type
REMARK                         _______ _______ _______ _____ _____    ______ ____
ROOT
ATOM      1  C   UNL     1       2.824   6.959  18.645  0.00  0.00    +0.000 A 
ATOM      2  C   UNL     1       2.151   7.243  19.837  0.00  0.00    +0.000 A 
ATOM      3  C   UNL     1       1.461   8.439  20.006  0.00  0.00    +0.000 A 
ATOM      4  C   UNL     1       1.436   9.386  18.986  0.00  0.00    +0.000 A 
ATOM      5  C   UNL     1       2.111   9.122  17.790  0.00  0.00    +0.000 A 
ATOM      6  C   UNL     1       2.801   7.911  17.617  0.00  0.00    +0.000 A 
ENDROOT
BRANCH   4   7
ATOM      7  C   UNL     1       0.692  10.623  19.211  0.00  0.00    +0.000 C 
ATOM      8  C   UNL     1      -0.470  10.934  18.627  0.00  0.00    +0.000 C 
ATOM      9  S   UNL     1      -1.412   9.981  17.542  0.00  0.00    +0.000 S 
ATOM     10  C   UNL     1      -2.609  11.245  17.347  0.00  0.00    +0.000 C 
ATOM     11  O   UNL     1      -3.596  11.155  16.639  0.00  0.00    +0.000 OA
ATOM     12  N   UNL     1      -2.267  12.320  18.097  0.00  0.00    +0.000 N 
ATOM     13  C   UNL     1      -1.122  12.257  18.833  0.00  0.00    +0.000 C 
ATOM     14  O   UNL     1      -0.696  13.150  19.537  0.00  0.00    +0.000 OA
ATOM     15  H   UNL     1      -2.840  13.149  18.104  0.00  0.00    +0.000 HD
ENDBRANCH   4   7
BRANCH   1  16
ATOM     16  O   UNL     1       3.516   5.788  18.412  0.00  0.00    +0.000 OA
BRANCH  16  17
ATOM     17  C   UNL     1       4.482   5.485  19.434  0.00  0.00    +0.000 C 
BRANCH  17  18
ATOM     18  C   UNL     1       5.696   4.718  18.903  0.00  0.00    +0.000 C 
BRANCH  18  20
ATOM     19  C   UNL     1       7.320   6.524  18.235  0.00  0.00    +0.000 C 
ATOM     20  N   UNL     1       6.386   5.474  17.849  0.00  0.00    +0.000 N 
ATOM     21  C   UNL     1       6.435   5.047  16.548  0.00  0.00    +0.000 A 
ATOM     22  N   UNL     1       7.311   5.500  15.673  0.00  0.00    +0.000 NA
ATOM     23  C   UNL     1       7.126   4.925  14.434  0.00  0.00    +0.000 A 
ATOM     24  C   UNL     1       6.094   4.022  14.351  0.00  0.00    +0.000 A 
ATOM     25  S   UNL     1       5.340   3.878  15.875  0.00  0.00    +0.000 S 
ENDBRANCH  18  20
ENDBRANCH  17  18
ENDBRANCH  16  17
ENDBRANCH   1  16
TORSDOF 5
ENDMDL
MODEL 2
REMARK VINA RESULT:      -7.5      0.401      1.061
REMARK  Name = 
REMARK  6 active torsions:
REMARK  status: ('A' for Active; 'I' for Inactive)
REMARK    1  A    between atoms: C_1  and  N_2
REMARK    2  A    between atoms: N_2  and  C_3
REMARK    3  A    between atoms: C_3  and  C_4
REMARK    4  A    between atoms: C_4  and  O_5
REMARK    5  A    between atoms: O_5  and  C_6
REMARK    6  A    between atoms: C_9  and  C_10
REMARK                            x       y       z     vdW  Elec       q    Type
REMARK                         _______ _______ _______ _____ _____    ______ ____
ROOT
ATOM      1  C   UNL     1       2.647   6.866  18.728  0.00  0.00    +0.000 A 
ATOM      2  C   UNL     1       2.629   7.791  17.681  0.00  0.00    +0.000 A 
ATOM      3  C   UNL     1       2.036   9.040  17.835  0.00  0.00    +0.000 A 
ATOM      4  C   UNL     1       1.438   9.389  19.042  0.00  0.00    +0.000 A 
ATOM      5  C   UNL     1       1.439   8.473  20.098  0.00  0.00    +0.000 A 
ATOM      6  C   UNL     1       2.044   7.214  19.945  0.00  0.00    +0.000 A 
ENDROOT
BRANCH   4   7
ATOM      7  C   UNL     1       0.834  10.716  19.154  0.00  0.00    +0.000 C 
ATOM      8  C   UNL     1      -0.344  11.067  18.630  0.00  0.00    +0.000 C 
ATOM      9  S   UNL     1      -1.468  10.085  17.767  0.00  0.00    +0.000 S 
ATOM     10  C   UNL     1      -2.557  11.430  17.497  0.00  0.00    +0.000 C 
ATOM     11  O   UNL     1      -3.611  11.351  16.891  0.00  0.00    +0.000 OA
ATOM     12  N   UNL     1      -2.049  12.551  18.061  0.00  0.00    +0.000 N 
ATOM     13  C   UNL     1      -0.850  12.466  18.703  0.00  0.00    +0.000 C 
ATOM     14  O   UNL     1      -0.280  13.394  19.241  0.00  0.00    +0.000 OA
ATOM     15  H   UNL     1      -2.540  13.429  18.001  0.00  0.00    +0.000 HD
ENDBRANCH   4   7
BRANCH   1  16
ATOM     16  O   UNL     1       3.227   5.617  18.642  0.00  0.00    +0.000 OA
BRANCH  16  17
ATOM     17  C   UNL     1       4.320   5.432  19.559  0.00  0.00    +0.000 C 
BRANCH  17  18
ATOM     18  C   UNL     1       5.347   4.408  19.071  0.00  0.00    +0.000 C 
BRANCH  18  20
ATOM     19  C   UNL     1       7.527   5.637  18.782  0.00  0.00    +0.000 C 
ATOM     20  N   UNL     1       6.343   5.030  18.188  0.00  0.00    +0.000 N 
ATOM     21  C   UNL     1       6.373   4.805  16.837  0.00  0.00    +0.000 A 
ATOM     22  N   UNL     1       7.428   5.057  16.087  0.00  0.00    +0.000 NA
ATOM     23  C   UNL     1       7.184   4.763  14.762  0.00  0.00    +0.000 A 
ATOM     24  C   UNL     1       5.926   4.283  14.487  0.00  0.00    +0.000 A 
ATOM     25  S   UNL     1       5.025   4.183  15.933  0.00  0.00    +0.000 S 
ENDBRANCH  18  20
ENDBRANCH  17  18
ENDBRANCH  16  17
ENDBRANCH   1  16
TORSDOF 5
ENDMDL
MODEL 3
REMARK VINA RESULT:      -7.3      1.622      2.484
REMARK  Name = 
REMARK  6 active torsions:
REMARK  status: ('A' for Active; 'I' for Inactive)
REMARK    1  A    between atoms: C_1  and  N_2
REMARK    2  A    between atoms: N_2  and  C_3
REMARK    3  A    between atoms: C_3  and  C_4
REMARK    4  A    between atoms: C_4  and  O_5
REMARK    5  A    between atoms: O_5  and  C_6
REMARK    6  A    between atoms: C_9  and  C_10
REMARK                            x       y       z     vdW  Elec       q    Type
REMARK                         _______ _______ _______ _____ _____    ______ ____
ROOT
ATOM      1  C   UNL     1       2.470   7.666  18.810  0.00  0.00    +0.000 A 
ATOM      2  C   UNL     1       1.854   7.794  20.058  0.00  0.00    +0.000 A 
ATOM      3  C   UNL     1       0.973   8.838  20.322  0.00  0.00    +0.000 A 
ATOM      4  C   UNL     1       0.694   9.785  19.341  0.00  0.00    +0.000 A 
ATOM      5  C   UNL     1       1.307   9.678  18.090  0.00  0.00    +0.000 A 
ATOM      6  C   UNL     1       2.191   8.619  17.821  0.00  0.00    +0.000 A 
ENDROOT
BRANCH   4   7
ATOM      7  C   UNL     1      -0.244  10.858  19.666  0.00  0.00    +0.000 C 
ATOM      8  C   UNL     1      -1.414  11.064  19.052  0.00  0.00    +0.000 C 
ATOM      9  S   UNL     1      -2.147  10.128  17.804  0.00  0.00    +0.000 S 
ATOM     10  C   UNL     1      -3.518  11.213  17.687  0.00  0.00    +0.000 C 
ATOM     11  O   UNL     1      -4.447  11.068  16.912  0.00  0.00    +0.000 OA
ATOM     12  N   UNL     1      -3.380  12.222  18.580  0.00  0.00    +0.000 N 
ATOM     13  C   UNL     1      -2.273  12.238  19.374  0.00  0.00    +0.000 C 
ATOM     14  O   UNL     1      -2.023  13.087  20.206  0.00  0.00    +0.000 OA
ATOM     15  H   UNL     1      -4.076  12.949  18.651  0.00  0.00    +0.000 HD
ENDBRANCH   4   7
BRANCH   1  16
ATOM     16  O   UNL     1       3.344   6.649  18.483  0.00  0.00    +0.000 OA
BRANCH  16  17
ATOM     17  C   UNL     1       4.181   6.959  17.355  0.00  0.00    +0.000 C 
BRANCH  17  18
ATOM     18  C   UNL     1       4.950   5.744  16.828  0.00  0.00    +0.000 C 
BRANCH  18  20
ATOM     19  C   UNL     1       6.570   5.444  18.734  0.00  0.00    +0.000 C 
ATOM     20  N   UNL     1       5.472   4.923  17.929  0.00  0.00    +0.000 N 
ATOM     21  C   UNL     1       4.791   3.846  18.430  0.00  0.00    +0.000 A 
ATOM     22  N   UNL     1       5.051   3.314  19.609  0.00  0.00    +0.000 NA
ATOM     23  C   UNL     1       4.239   2.227  19.859  0.00  0.00    +0.000 A 
ATOM     24  C   UNL     1       3.348   1.915  18.862  0.00  0.00    +0.000 A 
ATOM     25  S   UNL     1       3.521   3.024  17.576  0.00  0.00    +0.000 S 
ENDBRANCH  18  20
ENDBRANCH  17  18
ENDBRANCH  16  17
ENDBRANCH   1  16
TORSDOF 5
ENDMDL
MODEL 4
REMARK VINA RESULT:      -7.2      1.326      2.007
REMARK  Name = 
REMARK  6 active torsions:
REMARK  status: ('A' for Active; 'I' for Inactive)
REMARK    1  A    between atoms: C_1  and  N_2
REMARK    2  A    between atoms: N_2  and  C_3
REMARK    3  A    between atoms: C_3  and  C_4
REMARK    4  A    between atoms: C_4  and  O_5
REMARK    5  A    between atoms: O_5  and  C_6
REMARK    6  A    between atoms: C_9  and  C_10
REMARK                            x       y       z     vdW  Elec       q    Type
REMARK                         _______ _______ _______ _____ _____    ______ ____
ROOT
ATOM      1  C   UNL     1       2.670   6.781  19.022  0.00  0.00    +0.000 A 
ATOM      2  C   UNL     1       1.965   7.263  20.128  0.00  0.00    +0.000 A 
ATOM      3  C   UNL     1       1.376   8.523  20.114  0.00  0.00    +0.000 A 
ATOM      4  C   UNL     1       1.487   9.336  18.990  0.00  0.00    +0.000 A 
ATOM      5  C   UNL     1       2.196   8.875  17.877  0.00  0.00    +0.000 A 
ATOM      6  C   UNL     1       2.785   7.599  17.890  0.00  0.00    +0.000 A 
ENDROOT
BRANCH   4   7
ATOM      7  C   UNL     1       0.844  10.649  19.023  0.00  0.00    +0.000 C 
ATOM      8  C   UNL     1      -0.332  10.939  18.456  0.00  0.00    +0.000 C 
ATOM      9  S   UNL     1      -1.407   9.882  17.619  0.00  0.00    +0.000 S 
ATOM     10  C   UNL     1      -2.528  11.180  17.259  0.00  0.00    +0.000 C 
ATOM     11  O   UNL     1      -3.564  11.041  16.635  0.00  0.00    +0.000 OA
ATOM     12  N   UNL     1      -2.064  12.343  17.777  0.00  0.00    +0.000 N 
ATOM     13  C   UNL     1      -0.878  12.324  18.448  0.00  0.00    +0.000 C 
ATOM     14  O   UNL     1      -0.346  13.294  18.950  0.00  0.00    +0.000 OA
ATOM     15  H   UNL     1      -2.578  13.202  17.662  0.00  0.00    +0.000 HD
ENDBRANCH   4   7
BRANCH   1  16
ATOM     16  O   UNL     1       3.267   5.538  18.971  0.00  0.00    +0.000 OA
BRANCH  16  17
ATOM     17  C   UNL     1       3.258   4.956  17.655  0.00  0.00    +0.000 C 
BRANCH  17  18
ATOM     18  C   UNL     1       4.575   4.262  17.297  0.00  0.00    +0.000 C 
BRANCH  18  20
ATOM     19  C   UNL     1       5.183   5.521  15.201  0.00  0.00    +0.000 C 
ATOM     20  N   UNL     1       5.482   5.173  16.584  0.00  0.00    +0.000 N 
ATOM     21  C   UNL     1       6.408   5.946  17.233  0.00  0.00    +0.000 A 
ATOM     22  N   UNL     1       6.980   7.000  16.683  0.00  0.00    +0.000 NA
ATOM     23  C   UNL     1       7.889   7.582  17.541  0.00  0.00    +0.000 A 
ATOM     24  C   UNL     1       8.023   6.970  18.763  0.00  0.00    +0.000 A 
ATOM     25  S   UNL     1       6.968   5.631  18.848  0.00  0.00    +0.000 S 
ENDBRANCH  18  20
ENDBRANCH  17  18
ENDBRANCH  16  17
ENDBRANCH   1  16
TORSDOF 5
ENDMDL
MODEL 5
REMARK VINA RESULT:      -7.2      1.357      1.634
REMARK  Name = 
REMARK  6 active torsions:
REMARK  status: ('A' for Active; 'I' for Inactive)
REMARK    1  A    between atoms: C_1  and  N_2
REMARK    2  A    between atoms: N_2  and  C_3
REMARK    3  A    between atoms: C_3  and  C_4
REMARK    4  A    between atoms: C_4  and  O_5
REMARK    5  A    between atoms: O_5  and  C_6
REMARK    6  A    between atoms: C_9  and  C_10
REMARK                            x       y       z     vdW  Elec       q    Type
REMARK                         _______ _______ _______ _____ _____    ______ ____
ROOT
ATOM      1  C   UNL     1       2.523   7.484  18.792  0.00  0.00    +0.000 A 
ATOM      2  C   UNL     1       1.908   7.620  20.040  0.00  0.00    +0.000 A 
ATOM      3  C   UNL     1       1.093   8.711  20.325  0.00  0.00    +0.000 A 
ATOM      4  C   UNL     1       0.880   9.697  19.367  0.00  0.00    +0.000 A 
ATOM      5  C   UNL     1       1.494   9.582  18.116  0.00  0.00    +0.000 A 
ATOM      6  C   UNL     1       2.312   8.477  17.826  0.00  0.00    +0.000 A 
ENDROOT
BRANCH   4   7
ATOM      7  C   UNL     1       0.010  10.819  19.713  0.00  0.00    +0.000 C 
ATOM      8  C   UNL     1      -1.164  11.086  19.129  0.00  0.00    +0.000 C 
ATOM      9  S   UNL     1      -1.979  10.188  17.904  0.00  0.00    +0.000 S 
ATOM     10  C   UNL     1      -3.292  11.344  17.820  0.00  0.00    +0.000 C 
ATOM     11  O   UNL     1      -4.248  11.247  17.071  0.00  0.00    +0.000 OA
ATOM     12  N   UNL     1      -3.078  12.346  18.706  0.00  0.00    +0.000 N 
ATOM     13  C   UNL     1      -1.951  12.304  19.470  0.00  0.00    +0.000 C 
ATOM     14  O   UNL     1      -1.634  13.140  20.292  0.00  0.00    +0.000 OA
ATOM     15  H   UNL     1      -3.732  13.108  18.794  0.00  0.00    +0.000 HD
ENDBRANCH   4   7
BRANCH   1  16
ATOM     16  O   UNL     1       3.334   6.422  18.445  0.00  0.00    +0.000 OA
BRANCH  16  17
ATOM     17  C   UNL     1       3.601   5.529  19.540  0.00  0.00    +0.000 C 
BRANCH  17  18
ATOM     18  C   UNL     1       4.731   4.539  19.245  0.00  0.00    +0.000 C 
BRANCH  18  20
ATOM     19  C   UNL     1       3.311   3.219  17.636  0.00  0.00    +0.000 C 
ATOM     20  N   UNL     1       4.560   3.911  17.927  0.00  0.00    +0.000 N 
ATOM     21  C   UNL     1       5.373   4.200  16.863  0.00  0.00    +0.000 A 
ATOM     22  N   UNL     1       5.046   3.932  15.613  0.00  0.00    +0.000 NA
ATOM     23  C   UNL     1       6.050   4.301  14.743  0.00  0.00    +0.000 A 
ATOM     24  C   UNL     1       7.163   4.855  15.326  0.00  0.00    +0.000 A 
ATOM     25  S   UNL     1       6.942   4.929  17.017  0.00  0.00    +0.000 S 
ENDBRANCH  18  20
ENDBRANCH  17  18
ENDBRANCH  16  17
ENDBRANCH   1  16
TORSDOF 5
ENDMDL
MODEL 6
REMARK VINA RESULT:      -7.2      2.249      9.677
REMARK  Name = 
REMARK  6 active torsions:
REMARK  status: ('A' for Active; 'I' for Inactive)
REMARK    1  A    between atoms: C_1  and  N_2
REMARK    2  A    between atoms: N_2  and  C_3
REMARK    3  A    between atoms: C_3  and  C_4
REMARK    4  A    between atoms: C_4  and  O_5
REMARK    5  A    between atoms: O_5  and  C_6
REMARK    6  A    between atoms: C_9  and  C_10
REMARK                            x       y       z     vdW  Elec       q    Type
REMARK                         _______ _______ _______ _____ _____    ______ ____
ROOT
ATOM      1  C   UNL     1       1.221   9.395  18.923  0.00  0.00    +0.000 A 
ATOM      2  C   UNL     1       1.284   8.763  20.168  0.00  0.00    +0.000 A 
ATOM      3  C   UNL     1       1.928   7.540  20.322  0.00  0.00    +0.000 A 
ATOM      4  C   UNL     1       2.519   6.915  19.228  0.00  0.00    +0.000 A 
ATOM      5  C   UNL     1       2.458   7.528  17.973  0.00  0.00    +0.000 A 
ATOM      6  C   UNL     1       1.814   8.767  17.819  0.00  0.00    +0.000 A 
ENDROOT
BRANCH   4   7
ATOM      7  C   UNL     1       3.190   5.634  19.444  0.00  0.00    +0.000 C 
ATOM      8  C   UNL     1       4.368   5.288  18.914  0.00  0.00    +0.000 C 
ATOM      9  S   UNL     1       5.416   6.234  17.924  0.00  0.00    +0.000 S 
ATOM     10  C   UNL     1       6.561   4.920  17.745  0.00  0.00    +0.000 C 
ATOM     11  O   UNL     1       7.591   4.988  17.098  0.00  0.00    +0.000 OA
ATOM     12  N   UNL     1       6.125   3.836  18.430  0.00  0.00    +0.000 N 
ATOM     13  C   UNL     1       4.943   3.927  19.102  0.00  0.00    +0.000 C 
ATOM     14  O   UNL     1       4.435   3.030  19.744  0.00  0.00    +0.000 OA
ATOM     15  H   UNL     1       6.656   2.979  18.435  0.00  0.00    +0.000 HD
ENDBRANCH   4   7
BRANCH   1  16
ATOM     16  O   UNL     1       0.607  10.612  18.707  0.00  0.00    +0.000 OA
BRANCH  16  17
ATOM     17  C   UNL     1      -0.828  10.525  18.666  0.00  0.00    +0.000 C 
BRANCH  17  18
ATOM     18  C   UNL     1      -1.494  11.816  18.182  0.00  0.00    +0.000 C 
BRANCH  18  20
ATOM     19  C   UNL     1      -2.647  10.907  16.134  0.00  0.00    +0.000 C 
ATOM     20  N   UNL     1      -2.735  11.534  17.447  0.00  0.00    +0.000 N 
ATOM     21  C   UNL     1      -3.965  11.544  18.049  0.00  0.00    +0.000 A 
ATOM     22  N   UNL     1      -5.030  10.972  17.522  0.00  0.00    +0.000 NA
ATOM     23  C   UNL     1      -6.141  11.150  18.319  0.00  0.00    +0.000 A 
ATOM     24  C   UNL     1      -5.933  11.870  19.470  0.00  0.00    +0.000 A 
ATOM     25  S   UNL     1      -4.291  12.328  19.566  0.00  0.00    +0.000 S 
ENDBRANCH  18  20
ENDBRANCH  17  18
ENDBRANCH  16  17
ENDBRANCH   1  16
TORSDOF 5
ENDMDL
MODEL 7
REMARK VINA RESULT:      -7.1      1.377      2.214
REMARK  Name = 
REMARK  6 active torsions:
REMARK  status: ('A' for Active; 'I' for Inactive)
REMARK    1  A    between atoms: C_1  and  N_2
REMARK    2  A    between atoms: N_2  and  C_3
REMARK    3  A    between atoms: C_3  and  C_4
REMARK    4  A    between atoms: C_4  and  O_5
REMARK    5  A    between atoms: O_5  and  C_6
REMARK    6  A    between atoms: C_9  and  C_10
REMARK                            x       y       z     vdW  Elec       q    Type
REMARK                         _______ _______ _______ _____ _____    ______ ____
ROOT
ATOM      1  C   UNL     1       2.494   6.644  19.292  0.00  0.00    +0.000 A 
ATOM      2  C   UNL     1       2.628   7.412  18.132  0.00  0.00    +0.000 A 
ATOM      3  C   UNL     1       2.116   8.703  18.059  0.00  0.00    +0.000 A 
ATOM      4  C   UNL     1       1.448   9.254  19.148  0.00  0.00    +0.000 A 
ATOM      5  C   UNL     1       1.296   8.498  20.314  0.00  0.00    +0.000 A 
ATOM      6  C   UNL     1       1.820   7.196  20.389  0.00  0.00    +0.000 A 
ENDROOT
BRANCH   4   7
ATOM      7  C   UNL     1       0.934  10.617  19.024  0.00  0.00    +0.000 C 
ATOM      8  C   UNL     1      -0.208  10.952  18.415  0.00  0.00    +0.000 C 
ATOM      9  S   UNL     1      -1.380   9.914  17.692  0.00  0.00    +0.000 S 
ATOM     10  C   UNL     1      -2.370  11.264  17.174  0.00  0.00    +0.000 C 
ATOM     11  O   UNL     1      -3.415  11.154  16.558  0.00  0.00    +0.000 OA
ATOM     12  N   UNL     1      -1.797  12.428  17.562  0.00  0.00    +0.000 N 
ATOM     13  C   UNL     1      -0.619  12.373  18.244  0.00  0.00    +0.000 C 
ATOM     14  O   UNL     1       0.004  13.339  18.639  0.00  0.00    +0.000 OA
ATOM     15  H   UNL     1      -2.226  13.314  17.344  0.00  0.00    +0.000 HD
ENDBRANCH   4   7
BRANCH   1  16
ATOM     16  O   UNL     1       2.988   5.363  19.429  0.00  0.00    +0.000 OA
BRANCH  16  17
ATOM     17  C   UNL     1       3.071   4.648  18.184  0.00  0.00    +0.000 C 
BRANCH  17  18
ATOM     18  C   UNL     1       4.410   3.931  17.992  0.00  0.00    +0.000 C 
BRANCH  18  20
ATOM     19  C   UNL     1       4.905   4.699  15.644  0.00  0.00    +0.000 C 
ATOM     20  N   UNL     1       5.276   4.658  17.053  0.00  0.00    +0.000 N 
ATOM     21  C   UNL     1       6.232   5.546  17.470  0.00  0.00    +0.000 A 
ATOM     22  N   UNL     1       6.771   6.450  16.675  0.00  0.00    +0.000 NA
ATOM     23  C   UNL     1       7.721   7.197  17.338  0.00  0.00    +0.000 A 
ATOM     24  C   UNL     1       7.920   6.864  18.656  0.00  0.00    +0.000 A 
ATOM     25  S   UNL     1       6.875   5.584  19.084  0.00  0.00    +0.000 S 
ENDBRANCH  18  20
ENDBRANCH  17  18
ENDBRANCH  16  17
ENDBRANCH   1  16
TORSDOF 5
ENDMDL
MODEL 8
REMARK VINA RESULT:      -7.0      3.405      9.548
REMARK  Name = 
REMARK  6 active torsions:
REMARK  status: ('A' for Active; 'I' for Inactive)
REMARK    1  A    between atoms: C_1  and  N_2
REMARK    2  A    between atoms: N_2  and  C_3
REMARK    3  A    between atoms: C_3  and  C_4
REMARK    4  A    between atoms: C_4  and  O_5
REMARK    5  A    between atoms: O_5  and  C_6
REMARK    6  A    between atoms: C_9  and  C_10
REMARK                            x       y       z     vdW  Elec       q    Type
REMARK                         _______ _______ _______ _____ _____    ______ ____
ROOT
ATOM      1  C   UNL     1       0.977   9.668  19.151  0.00  0.00    +0.000 A 
ATOM      2  C   UNL     1       1.187   8.859  20.271  0.00  0.00    +0.000 A 
ATOM      3  C   UNL     1       1.927   7.685  20.182  0.00  0.00    +0.000 A 
ATOM      4  C   UNL     1       2.468   7.288  18.962  0.00  0.00    +0.000 A 
ATOM      5  C   UNL     1       2.261   8.080  17.830  0.00  0.00    +0.000 A 
ATOM      6  C   UNL     1       1.519   9.270  17.922  0.00  0.00    +0.000 A 
ENDROOT
BRANCH   4   7
ATOM      7  C   UNL     1       3.243   6.049  18.923  0.00  0.00    +0.000 C 
ATOM      8  C   UNL     1       2.984   4.960  19.654  0.00  0.00    +0.000 C 
ATOM      9  S   UNL     1       1.683   4.694  20.754  0.00  0.00    +0.000 S 
ATOM     10  C   UNL     1       2.268   3.099  21.183  0.00  0.00    +0.000 C 
ATOM     11  O   UNL     1       1.726   2.360  21.986  0.00  0.00    +0.000 OA
ATOM     12  N   UNL     1       3.399   2.825  20.491  0.00  0.00    +0.000 N 
ATOM     13  C   UNL     1       3.876   3.768  19.631  0.00  0.00    +0.000 C 
ATOM     14  O   UNL     1       4.882   3.654  18.959  0.00  0.00    +0.000 OA
ATOM     15  H   UNL     1       3.882   1.949  20.614  0.00  0.00    +0.000 HD
ENDBRANCH   4   7
BRANCH   1  16
ATOM     16  O   UNL     1       0.262  10.849  19.177  0.00  0.00    +0.000 OA
BRANCH  16  17
ATOM     17  C   UNL     1      -1.122  10.683  18.823  0.00  0.00    +0.000 C 
BRANCH  17  18
ATOM     18  C   UNL     1      -1.710  11.904  18.111  0.00  0.00    +0.000 C 
BRANCH  18  20
ATOM     19  C   UNL     1      -2.838  10.907  16.091  0.00  0.00    +0.000 C 
ATOM     20  N   UNL     1      -2.943  11.559  17.390  0.00  0.00    +0.000 N 
ATOM     21  C   UNL     1      -4.170  11.537  17.999  0.00  0.00    +0.000 A 
ATOM     22  N   UNL     1      -5.215  10.913  17.491  0.00  0.00    +0.000 NA
ATOM     23  C   UNL     1      -6.328  11.067  18.291  0.00  0.00    +0.000 A 
ATOM     24  C   UNL     1      -6.141  11.820  19.424  0.00  0.00    +0.000 A 
ATOM     25  S   UNL     1      -4.517  12.342  19.499  0.00  0.00    +0.000 S 
ENDBRANCH  18  20
ENDBRANCH  17  18
ENDBRANCH  16  17
ENDBRANCH   1  16
TORSDOF 5
ENDMDL
MODEL 9
REMARK VINA RESULT:      -7.0      2.674      3.859
REMARK  Name = 
REMARK  6 active torsions:
REMARK  status: ('A' for Active; 'I' for Inactive)
REMARK    1  A    between atoms: C_1  and  N_2
REMARK    2  A    between atoms: N_2  and  C_3
REMARK    3  A    between atoms: C_3  and  C_4
REMARK    4  A    between atoms: C_4  and  O_5
REMARK    5  A    between atoms: O_5  and  C_6
REMARK    6  A    between atoms: C_9  and  C_10
REMARK                            x       y       z     vdW  Elec       q    Type
REMARK                         _______ _______ _______ _____ _____    ______ ____
ROOT
ATOM      1  C   UNL     1       2.549   7.627  18.896  0.00  0.00    +0.000 A 
ATOM      2  C   UNL     1       2.248   8.533  17.875  0.00  0.00    +0.000 A 
ATOM      3  C   UNL     1       1.332   9.560  18.071  0.00  0.00    +0.000 A 
ATOM      4  C   UNL     1       0.686   9.701  19.296  0.00  0.00    +0.000 A 
ATOM      5  C   UNL     1       0.968   8.798  20.327  0.00  0.00    +0.000 A 
ATOM      6  C   UNL     1       1.900   7.765  20.131  0.00  0.00    +0.000 A 
ENDROOT
BRANCH   4   7
ATOM      7  C   UNL     1      -0.263  10.801  19.454  0.00  0.00    +0.000 C 
ATOM      8  C   UNL     1      -1.360  10.976  18.710  0.00  0.00    +0.000 C 
ATOM      9  S   UNL     1      -1.976   9.968  17.455  0.00  0.00    +0.000 S 
ATOM     10  C   UNL     1      -3.310  11.056  17.128  0.00  0.00    +0.000 C 
ATOM     11  O   UNL     1      -4.157  10.869  16.272  0.00  0.00    +0.000 OA
ATOM     12  N   UNL     1      -3.250  12.119  17.965  0.00  0.00    +0.000 N 
ATOM     13  C   UNL     1      -2.230  12.176  18.866  0.00  0.00    +0.000 C 
ATOM     14  O   UNL     1      -2.053  13.075  19.664  0.00  0.00    +0.000 OA
ATOM     15  H   UNL     1      -3.937  12.855  17.917  0.00  0.00    +0.000 HD
ENDBRANCH   4   7
BRANCH   1  16
ATOM     16  O   UNL     1       3.455   6.594  18.768  0.00  0.00    +0.000 OA
BRANCH  16  17
ATOM     17  C   UNL     1       3.361   5.908  17.507  0.00  0.00    +0.000 C 
BRANCH  17  18
ATOM     18  C   UNL     1       2.427   4.696  17.552  0.00  0.00    +0.000 C 
BRANCH  18  20
ATOM     19  C   UNL     1       4.293   3.041  17.913  0.00  0.00    +0.000 C 
ATOM     20  N   UNL     1       3.015   3.599  18.335  0.00  0.00    +0.000 N 
ATOM     21  C   UNL     1       2.586   3.283  19.597  0.00  0.00    +0.000 A 
ATOM     22  N   UNL     1       3.297   2.560  20.440  0.00  0.00    +0.000 NA
ATOM     23  C   UNL     1       2.625   2.370  21.629  0.00  0.00    +0.000 A 
ATOM     24  C   UNL     1       1.381   2.950  21.702  0.00  0.00    +0.000 A 
ATOM     25  S   UNL     1       1.047   3.769  20.243  0.00  0.00    +0.000 S 
ENDBRANCH  18  20
ENDBRANCH  17  18
ENDBRANCH  16  17
ENDBRANCH   1  16
TORSDOF 5
ENDMDL
