MODEL 1
REMARK VINA RESULT:      -6.1      0.000      0.000
REMARK  Name = 
REMARK  8 active torsions:
REMARK  status: ('A' for Active; 'I' for Inactive)
REMARK    1  A    between atoms: C_1  and  C_2
REMARK    2  A    between atoms: C_2  and  N_3
REMARK    3  A    between atoms: C_6  and  C_7
REMARK    4  A    between atoms: C_7  and  N_8
REMARK    5  A    between atoms: C_12  and  C_13
REMARK    6  A    between atoms: C_13  and  C_14
REMARK    7  A    between atoms: C_14  and  O_15
REMARK    8  A    between atoms: O_15  and  C_16
REMARK                            x       y       z     vdW  Elec       q    Type
REMARK                         _______ _______ _______ _____ _____    ______ ____
ROOT
ATOM      1  N   UNL     1       6.265   4.927  18.542  0.00  0.00    +0.000 NA
ATOM      2  C   UNL     1       7.205   5.971  18.961  0.00  0.00    +0.000 C 
ATOM      3  C   UNL     1       7.734   6.931  17.873  0.00  0.00    +0.000 C 
ATOM      4  O   UNL     1       7.560   6.621  16.490  0.00  0.00    +0.000 OA
ATOM      5  C   UNL     1       7.038   5.346  16.122  0.00  0.00    +0.000 C 
ATOM      6  C   UNL     1       6.797   4.364  17.292  0.00  0.00    +0.000 C 
ENDROOT
BRANCH   1   7
ATOM      7  C   UNL     1       4.886   5.451  18.492  0.00  0.00    +0.000 C 
BRANCH   7  11
ATOM      8  N   UNL     1       2.528   2.895  19.271  0.00  0.00    +0.000 N 
ATOM      9  C   UNL     1       2.192   2.975  17.949  0.00  0.00    +0.000 A 
ATOM     10  C   UNL     1       3.028   3.924  17.400  0.00  0.00    +0.000 A 
ATOM     11  C   UNL     1       3.844   4.361  18.472  0.00  0.00    +0.000 A 
ATOM     12  N   UNL     1       3.589   3.654  19.582  0.00  0.00    +0.000 NA
BRANCH   8  14
ATOM     13  C   UNL     1       1.566   2.984  21.538  0.00  0.00    +0.000 C 
ATOM     14  C   UNL     1       1.853   2.141  20.308  0.00  0.00    +0.000 C 
ENDBRANCH   8  14
ENDBRANCH   7  11
ENDBRANCH   1   7
BRANCH   5  15
ATOM     15  C   UNL     1       5.778   5.537  15.278  0.00  0.00    +0.000 C 
BRANCH  15  16
ATOM     16  C   UNL     1       5.320   4.352  14.441  0.00  0.00    +0.000 C 
BRANCH  16  17
ATOM     17  O   UNL     1       6.505   3.842  13.811  0.00  0.00    +0.000 OA
ATOM     18  C   UNL     1       6.325   3.529  12.443  0.00  0.00    +0.000 C 
ENDBRANCH  16  17
ENDBRANCH  15  16
ENDBRANCH   5  15
TORSDOF 6
ENDMDL
MODEL 2
REMARK VINA RESULT:      -6.1      1.470      1.818
REMARK  Name = 
REMARK  8 active torsions:
REMARK  status: ('A' for Active; 'I' for Inactive)
REMARK    1  A    between atoms: C_1  and  C_2
REMARK    2  A    between atoms: C_2  and  N_3
REMARK    3  A    between atoms: C_6  and  C_7
REMARK    4  A    between atoms: C_7  and  N_8
REMARK    5  A    between atoms: C_12  and  C_13
REMARK    6  A    between atoms: C_13  and  C_14
REMARK    7  A    between atoms: C_14  and  O_15
REMARK    8  A    between atoms: O_15  and  C_16
REMARK                            x       y       z     vdW  Elec       q    Type
REMARK                         _______ _______ _______ _____ _____    ______ ____
ROOT
ATOM      1  N   UNL     1       5.718   4.526  17.452  0.00  0.00    +0.000 NA
ATOM      2  C   UNL     1       5.191   5.894  17.408  0.00  0.00    +0.000 C 
ATOM      3  C   UNL     1       5.117   6.584  16.028  0.00  0.00    +0.000 C 
ATOM      4  O   UNL     1       5.812   6.036  14.908  0.00  0.00    +0.000 OA
ATOM      5  C   UNL     1       6.703   4.940  15.109  0.00  0.00    +0.000 C 
ATOM      6  C   UNL     1       6.902   4.507  16.580  0.00  0.00    +0.000 C 
ENDROOT
BRANCH   1   7
ATOM      7  C   UNL     1       4.659   3.545  17.143  0.00  0.00    +0.000 C 
BRANCH   7  11
ATOM      8  N   UNL     1       2.343   3.840  19.835  0.00  0.00    +0.000 N 
ATOM      9  C   UNL     1       1.436   4.142  18.858  0.00  0.00    +0.000 A 
ATOM     10  C   UNL     1       2.121   4.060  17.664  0.00  0.00    +0.000 A 
ATOM     11  C   UNL     1       3.443   3.696  18.022  0.00  0.00    +0.000 A 
ATOM     12  N   UNL     1       3.534   3.473  19.340  0.00  0.00    +0.000 NA
BRANCH   8  14
ATOM     13  C   UNL     1       1.603   2.627  21.848  0.00  0.00    +0.000 C 
ATOM     14  C   UNL     1       2.152   3.919  21.269  0.00  0.00    +0.000 C 
ENDBRANCH   8  14
ENDBRANCH   7  11
ENDBRANCH   1   7
BRANCH   5  15
ATOM     15  C   UNL     1       6.271   3.766  14.230  0.00  0.00    +0.000 C 
BRANCH  15  16
ATOM     16  C   UNL     1       6.397   3.946  12.725  0.00  0.00    +0.000 C 
BRANCH  16  17
ATOM     17  O   UNL     1       5.711   2.828  12.142  0.00  0.00    +0.000 OA
ATOM     18  C   UNL     1       4.487   3.179  11.523  0.00  0.00    +0.000 C 
ENDBRANCH  16  17
ENDBRANCH  15  16
ENDBRANCH   5  15
TORSDOF 6
ENDMDL
MODEL 3
REMARK VINA RESULT:      -5.8      1.040      1.040
REMARK  Name = 
REMARK  8 active torsions:
REMARK  status: ('A' for Active; 'I' for Inactive)
REMARK    1  A    between atoms: C_1  and  C_2
REMARK    2  A    between atoms: C_2  and  N_3
REMARK    3  A    between atoms: C_6  and  C_7
REMARK    4  A    between atoms: C_7  and  N_8
REMARK    5  A    between atoms: C_12  and  C_13
REMARK    6  A    between atoms: C_13  and  C_14
REMARK    7  A    between atoms: C_14  and  O_15
REMARK    8  A    between atoms: O_15  and  C_16
REMARK                            x       y       z     vdW  Elec       q    Type
REMARK                         _______ _______ _______ _____ _____    ______ ____
ROOT
ATOM      1  N   UNL     1       5.520   5.460  18.279  0.00  0.00    +0.000 NA
ATOM      2  C   UNL     1       6.204   6.752  18.163  0.00  0.00    +0.000 C 
ATOM      3  C   UNL     1       7.104   6.972  16.928  0.00  0.00    +0.000 C 
ATOM      4  O   UNL     1       7.493   5.868  16.111  0.00  0.00    +0.000 OA
ATOM      5  C   UNL     1       7.177   4.543  16.535  0.00  0.00    +0.000 C 
ATOM      6  C   UNL     1       6.509   4.432  17.925  0.00  0.00    +0.000 C 
ENDROOT
BRANCH   1   7
ATOM      7  C   UNL     1       4.265   5.459  17.503  0.00  0.00    +0.000 C 
BRANCH   7  11
ATOM      8  N   UNL     1       1.969   3.397  19.287  0.00  0.00    +0.000 N 
ATOM      9  C   UNL     1       1.794   2.768  18.087  0.00  0.00    +0.000 A 
ATOM     10  C   UNL     1       2.640   3.398  17.199  0.00  0.00    +0.000 A 
ATOM     11  C   UNL     1       3.293   4.400  17.959  0.00  0.00    +0.000 A 
ATOM     12  N   UNL     1       2.941   4.320  19.250  0.00  0.00    +0.000 NA
BRANCH   8  14
ATOM     13  C   UNL     1       2.075   3.343  21.748  0.00  0.00    +0.000 C 
ATOM     14  C   UNL     1       1.213   3.196  20.506  0.00  0.00    +0.000 C 
ENDBRANCH   8  14
ENDBRANCH   7  11
ENDBRANCH   1   7
BRANCH   5  15
ATOM     15  C   UNL     1       6.347   3.848  15.455  0.00  0.00    +0.000 C 
BRANCH  15  16
ATOM     16  C   UNL     1       6.503   4.356  14.030  0.00  0.00    +0.000 C 
BRANCH  16  17
ATOM     17  O   UNL     1       5.395   3.809  13.299  0.00  0.00    +0.000 OA
ATOM     18  C   UNL     1       5.774   3.179  12.089  0.00  0.00    +0.000 C 
ENDBRANCH  16  17
ENDBRANCH  15  16
ENDBRANCH   5  15
TORSDOF 6
ENDMDL
MODEL 4
REMARK VINA RESULT:      -5.8      1.626      3.673
REMARK  Name = 
REMARK  8 active torsions:
REMARK  status: ('A' for Active; 'I' for Inactive)
REMARK    1  A    between atoms: C_1  and  C_2
REMARK    2  A    between atoms: C_2  and  N_3
REMARK    3  A    between atoms: C_6  and  C_7
REMARK    4  A    between atoms: C_7  and  N_8
REMARK    5  A    between atoms: C_12  and  C_13
REMARK    6  A    between atoms: C_13  and  C_14
REMARK    7  A    between atoms: C_14  and  O_15
REMARK    8  A    between atoms: O_15  and  C_16
REMARK                            x       y       z     vdW  Elec       q    Type
REMARK                         _______ _______ _______ _____ _____    ______ ____
ROOT
ATOM      1  N   UNL     1       4.722   5.194  16.264  0.00  0.00    +0.000 NA
ATOM      2  C   UNL     1       5.280   4.499  15.100  0.00  0.00    +0.000 C 
ATOM      3  C   UNL     1       6.816   4.500  14.939  0.00  0.00    +0.000 C 
ATOM      4  O   UNL     1       7.622   5.392  15.709  0.00  0.00    +0.000 OA
ATOM      5  C   UNL     1       6.990   6.391  16.508  0.00  0.00    +0.000 C 
ATOM      6  C   UNL     1       5.450   6.466  16.379  0.00  0.00    +0.000 C 
ENDROOT
BRANCH   1   7
ATOM      7  C   UNL     1       4.736   4.321  17.454  0.00  0.00    +0.000 C 
BRANCH   7  11
ATOM      8  N   UNL     1       1.989   4.307  19.725  0.00  0.00    +0.000 N 
ATOM      9  C   UNL     1       2.374   5.588  20.004  0.00  0.00    +0.000 A 
ATOM     10  C   UNL     1       3.455   5.848  19.188  0.00  0.00    +0.000 A 
ATOM     11  C   UNL     1       3.648   4.658  18.443  0.00  0.00    +0.000 A 
ATOM     12  N   UNL     1       2.686   3.766  18.715  0.00  0.00    +0.000 NA
BRANCH   8  14
ATOM     13  C   UNL     1       1.576   2.685  21.533  0.00  0.00    +0.000 C 
ATOM     14  C   UNL     1       0.985   3.519  20.410  0.00  0.00    +0.000 C 
ENDBRANCH   8  14
ENDBRANCH   7  11
ENDBRANCH   1   7
BRANCH   5  15
ATOM     15  C   UNL     1       7.425   6.228  17.964  0.00  0.00    +0.000 C 
BRANCH  15  16
ATOM     16  C   UNL     1       8.209   7.375  18.583  0.00  0.00    +0.000 C 
BRANCH  16  17
ATOM     17  O   UNL     1       7.948   8.516  17.754  0.00  0.00    +0.000 OA
ATOM     18  C   UNL     1       8.543   9.708  18.232  0.00  0.00    +0.000 C 
ENDBRANCH  16  17
ENDBRANCH  15  16
ENDBRANCH   5  15
TORSDOF 6
ENDMDL
MODEL 5
REMARK VINA RESULT:      -5.7      1.577      3.312
REMARK  Name = 
REMARK  8 active torsions:
REMARK  status: ('A' for Active; 'I' for Inactive)
REMARK    1  A    between atoms: C_1  and  C_2
REMARK    2  A    between atoms: C_2  and  N_3
REMARK    3  A    between atoms: C_6  and  C_7
REMARK    4  A    between atoms: C_7  and  N_8
REMARK    5  A    between atoms: C_12  and  C_13
REMARK    6  A    between atoms: C_13  and  C_14
REMARK    7  A    between atoms: C_14  and  O_15
REMARK    8  A    between atoms: O_15  and  C_16
REMARK                            x       y       z     vdW  Elec       q    Type
REMARK                         _______ _______ _______ _____ _____    ______ ____
ROOT
ATOM      1  N   UNL     1       4.893   4.341  16.134  0.00  0.00    +0.000 NA
ATOM      2  C   UNL     1       5.837   3.818  15.142  0.00  0.00    +0.000 C 
ATOM      3  C   UNL     1       7.164   4.584  14.949  0.00  0.00    +0.000 C 
ATOM      4  O   UNL     1       7.323   5.899  15.483  0.00  0.00    +0.000 OA
ATOM      5  C   UNL     1       6.196   6.561  16.054  0.00  0.00    +0.000 C 
ATOM      6  C   UNL     1       4.855   5.798  15.947  0.00  0.00    +0.000 C 
ENDROOT
BRANCH   1   7
ATOM      7  C   UNL     1       5.236   3.862  17.488  0.00  0.00    +0.000 C 
BRANCH   7  11
ATOM      8  N   UNL     1       2.476   3.195  19.642  0.00  0.00    +0.000 N 
ATOM      9  C   UNL     1       2.277   2.103  18.844  0.00  0.00    +0.000 A 
ATOM     10  C   UNL     1       3.288   2.128  17.906  0.00  0.00    +0.000 A 
ATOM     11  C   UNL     1       4.056   3.276  18.221  0.00  0.00    +0.000 A 
ATOM     12  N   UNL     1       3.601   3.859  19.340  0.00  0.00    +0.000 NA
BRANCH   8  14
ATOM     13  C   UNL     1       1.357   2.647  21.768  0.00  0.00    +0.000 C 
ATOM     14  C   UNL     1       1.608   3.688  20.691  0.00  0.00    +0.000 C 
ENDBRANCH   8  14
ENDBRANCH   7  11
ENDBRANCH   1   7
BRANCH   5  15
ATOM     15  C   UNL     1       6.511   6.945  17.499  0.00  0.00    +0.000 C 
BRANCH  15  16
ATOM     16  C   UNL     1       7.778   7.752  17.740  0.00  0.00    +0.000 C 
BRANCH  16  17
ATOM     17  O   UNL     1       8.427   7.129  18.858  0.00  0.00    +0.000 OA
ATOM     18  C   UNL     1       7.886   5.865  19.191  0.00  0.00    +0.000 C 
ENDBRANCH  16  17
ENDBRANCH  15  16
ENDBRANCH   5  15
TORSDOF 6
ENDMDL
MODEL 6
REMARK VINA RESULT:      -5.7      1.563      3.399
REMARK  Name = 
REMARK  8 active torsions:
REMARK  status: ('A' for Active; 'I' for Inactive)
REMARK    1  A    between atoms: C_1  and  C_2
REMARK    2  A    between atoms: C_2  and  N_3
REMARK    3  A    between atoms: C_6  and  C_7
REMARK    4  A    between atoms: C_7  and  N_8
REMARK    5  A    between atoms: C_12  and  C_13
REMARK    6  A    between atoms: C_13  and  C_14
REMARK    7  A    between atoms: C_14  and  O_15
REMARK    8  A    between atoms: O_15  and  C_16
REMARK                            x       y       z     vdW  Elec       q    Type
REMARK                         _______ _______ _______ _____ _____    ______ ____
ROOT
ATOM      1  N   UNL     1       4.807   4.716  15.764  0.00  0.00    +0.000 NA
ATOM      2  C   UNL     1       5.385   4.457  14.442  0.00  0.00    +0.000 C 
ATOM      3  C   UNL     1       6.926   4.441  14.329  0.00  0.00    +0.000 C 
ATOM      4  O   UNL     1       7.732   4.958  15.388  0.00  0.00    +0.000 OA
ATOM      5  C   UNL     1       7.105   5.633  16.477  0.00  0.00    +0.000 C 
ATOM      6  C   UNL     1       5.576   5.824  16.347  0.00  0.00    +0.000 C 
ENDROOT
BRANCH   1   7
ATOM      7  C   UNL     1       4.741   3.474  16.559  0.00  0.00    +0.000 C 
BRANCH   7  11
ATOM      8  N   UNL     1       2.251   2.779  19.014  0.00  0.00    +0.000 N 
ATOM      9  C   UNL     1       1.490   3.674  18.315  0.00  0.00    +0.000 A 
ATOM     10  C   UNL     1       2.264   4.081  17.248  0.00  0.00    +0.000 A 
ATOM     11  C   UNL     1       3.483   3.371  17.385  0.00  0.00    +0.000 A 
ATOM     12  N   UNL     1       3.419   2.512  18.411  0.00  0.00    +0.000 NA
BRANCH   8  14
ATOM     13  C   UNL     1       1.413   3.172  21.297  0.00  0.00    +0.000 C 
ATOM     14  C   UNL     1       1.943   2.167  20.289  0.00  0.00    +0.000 C 
ENDBRANCH   8  14
ENDBRANCH   7  11
ENDBRANCH   1   7
BRANCH   5  15
ATOM     15  C   UNL     1       7.476   4.938  17.787  0.00  0.00    +0.000 C 
BRANCH  15  16
ATOM     16  C   UNL     1       7.082   5.640  19.077  0.00  0.00    +0.000 C 
BRANCH  16  17
ATOM     17  O   UNL     1       6.026   4.849  19.642  0.00  0.00    +0.000 OA
ATOM     18  C   UNL     1       4.771   5.504  19.643  0.00  0.00    +0.000 C 
ENDBRANCH  16  17
ENDBRANCH  15  16
ENDBRANCH   5  15
TORSDOF 6
ENDMDL
MODEL 7
REMARK VINA RESULT:      -5.7      2.820      5.881
REMARK  Name = 
REMARK  8 active torsions:
REMARK  status: ('A' for Active; 'I' for Inactive)
REMARK    1  A    between atoms: C_1  and  C_2
REMARK    2  A    between atoms: C_2  and  N_3
REMARK    3  A    between atoms: C_6  and  C_7
REMARK    4  A    between atoms: C_7  and  N_8
REMARK    5  A    between atoms: C_12  and  C_13
REMARK    6  A    between atoms: C_13  and  C_14
REMARK    7  A    between atoms: C_14  and  O_15
REMARK    8  A    between atoms: O_15  and  C_16
REMARK                            x       y       z     vdW  Elec       q    Type
REMARK                         _______ _______ _______ _____ _____    ______ ____
ROOT
ATOM      1  N   UNL     1       3.936   2.950  18.456  0.00  0.00    +0.000 NA
ATOM      2  C   UNL     1       3.052   1.790  18.606  0.00  0.00    +0.000 C 
ATOM      3  C   UNL     1       1.579   2.061  18.981  0.00  0.00    +0.000 C 
ATOM      4  O   UNL     1       1.180   3.345  19.460  0.00  0.00    +0.000 OA
ATOM      5  C   UNL     1       2.178   4.325  19.741  0.00  0.00    +0.000 C 
ATOM      6  C   UNL     1       3.640   3.848  19.582  0.00  0.00    +0.000 C 
ENDROOT
BRANCH   1   7
ATOM      7  C   UNL     1       3.815   3.531  17.105  0.00  0.00    +0.000 C 
BRANCH   7  11
ATOM      8  N   UNL     1       6.644   5.669  16.740  0.00  0.00    +0.000 N 
ATOM      9  C   UNL     1       6.989   4.831  15.717  0.00  0.00    +0.000 A 
ATOM     10  C   UNL     1       5.983   3.890  15.639  0.00  0.00    +0.000 A 
ATOM     11  C   UNL     1       5.066   4.246  16.658  0.00  0.00    +0.000 A 
ATOM     12  N   UNL     1       5.438   5.388  17.255  0.00  0.00    +0.000 NA
BRANCH   8  14
ATOM     13  C   UNL     1       7.888   6.432  18.725  0.00  0.00    +0.000 C 
ATOM     14  C   UNL     1       7.437   6.739  17.308  0.00  0.00    +0.000 C 
ENDBRANCH   8  14
ENDBRANCH   7  11
ENDBRANCH   1   7
BRANCH   5  15
ATOM     15  C   UNL     1       1.903   5.581  18.913  0.00  0.00    +0.000 C 
BRANCH  15  16
ATOM     16  C   UNL     1       2.595   6.863  19.352  0.00  0.00    +0.000 C 
BRANCH  16  17
ATOM     17  O   UNL     1       2.968   7.536  18.141  0.00  0.00    +0.000 OA
ATOM     18  C   UNL     1       2.108   8.609  17.805  0.00  0.00    +0.000 C 
ENDBRANCH  16  17
ENDBRANCH  15  16
ENDBRANCH   5  15
TORSDOF 6
ENDMDL
MODEL 8
REMARK VINA RESULT:      -5.6      3.188      6.388
REMARK  Name = 
REMARK  8 active torsions:
REMARK  status: ('A' for Active; 'I' for Inactive)
REMARK    1  A    between atoms: C_1  and  C_2
REMARK    2  A    between atoms: C_2  and  N_3
REMARK    3  A    between atoms: C_6  and  C_7
REMARK    4  A    between atoms: C_7  and  N_8
REMARK    5  A    between atoms: C_12  and  C_13
REMARK    6  A    between atoms: C_13  and  C_14
REMARK    7  A    between atoms: C_14  and  O_15
REMARK    8  A    between atoms: O_15  and  C_16
REMARK                            x       y       z     vdW  Elec       q    Type
REMARK                         _______ _______ _______ _____ _____    ______ ____
ROOT
ATOM      1  N   UNL     1       3.622   2.809  18.160  0.00  0.00    +0.000 NA
ATOM      2  C   UNL     1       2.480   1.891  18.113  0.00  0.00    +0.000 C 
ATOM      3  C   UNL     1       1.183   2.330  18.827  0.00  0.00    +0.000 C 
ATOM      4  O   UNL     1       1.198   3.425  19.743  0.00  0.00    +0.000 OA
ATOM      5  C   UNL     1       2.446   4.006  20.115  0.00  0.00    +0.000 C 
ATOM      6  C   UNL     1       3.701   3.306  19.542  0.00  0.00    +0.000 C 
ENDROOT
BRANCH   1   7
ATOM      7  C   UNL     1       3.517   3.832  17.101  0.00  0.00    +0.000 C 
BRANCH   7  11
ATOM      8  N   UNL     1       6.555   5.680  16.851  0.00  0.00    +0.000 N 
ATOM      9  C   UNL     1       6.872   4.786  15.866  0.00  0.00    +0.000 A 
ATOM     10  C   UNL     1       5.785   3.944  15.752  0.00  0.00    +0.000 A 
ATOM     11  C   UNL     1       4.853   4.412  16.711  0.00  0.00    +0.000 A 
ATOM     12  N   UNL     1       5.301   5.528  17.303  0.00  0.00    +0.000 NA
BRANCH   8  14
ATOM     13  C   UNL     1       7.900   6.288  18.824  0.00  0.00    +0.000 C 
ATOM     14  C   UNL     1       7.416   6.684  17.440  0.00  0.00    +0.000 C 
ENDBRANCH   8  14
ENDBRANCH   7  11
ENDBRANCH   1   7
BRANCH   5  15
ATOM     15  C   UNL     1       2.433   5.497  19.781  0.00  0.00    +0.000 C 
BRANCH  15  16
ATOM     16  C   UNL     1       1.642   6.407  20.709  0.00  0.00    +0.000 C 
BRANCH  16  17
ATOM     17  O   UNL     1       1.919   7.745  20.269  0.00  0.00    +0.000 OA
ATOM     18  C   UNL     1       1.116   8.723  20.904  0.00  0.00    +0.000 C 
ENDBRANCH  16  17
ENDBRANCH  15  16
ENDBRANCH   5  15
TORSDOF 6
ENDMDL
MODEL 9
REMARK VINA RESULT:      -5.6      1.254      1.446
REMARK  Name = 
REMARK  8 active torsions:
REMARK  status: ('A' for Active; 'I' for Inactive)
REMARK    1  A    between atoms: C_1  and  C_2
REMARK    2  A    between atoms: C_2  and  N_3
REMARK    3  A    between atoms: C_6  and  C_7
REMARK    4  A    between atoms: C_7  and  N_8
REMARK    5  A    between atoms: C_12  and  C_13
REMARK    6  A    between atoms: C_13  and  C_14
REMARK    7  A    between atoms: C_14  and  O_15
REMARK    8  A    between atoms: O_15  and  C_16
REMARK                            x       y       z     vdW  Elec       q    Type
REMARK                         _______ _______ _______ _____ _____    ______ ____
ROOT
ATOM      1  N   UNL     1       5.835   5.375  18.345  0.00  0.00    +0.000 NA
ATOM      2  C   UNL     1       6.678   6.574  18.338  0.00  0.00    +0.000 C 
ATOM      3  C   UNL     1       7.438   6.902  17.034  0.00  0.00    +0.000 C 
ATOM      4  O   UNL     1       7.556   5.923  16.002  0.00  0.00    +0.000 OA
ATOM      5  C   UNL     1       7.108   4.592  16.248  0.00  0.00    +0.000 C 
ATOM      6  C   UNL     1       6.611   4.314  17.686  0.00  0.00    +0.000 C 
ENDROOT
BRANCH   1   7
ATOM      7  C   UNL     1       4.505   5.665  17.775  0.00  0.00    +0.000 C 
BRANCH   7  11
ATOM      8  N   UNL     1       1.982   4.080  19.732  0.00  0.00    +0.000 N 
ATOM      9  C   UNL     1       1.849   5.304  20.325  0.00  0.00    +0.000 A 
ATOM     10  C   UNL     1       2.744   6.136  19.687  0.00  0.00    +0.000 A 
ATOM     11  C   UNL     1       3.375   5.323  18.714  0.00  0.00    +0.000 A 
ATOM     12  N   UNL     1       2.829   4.099  18.692  0.00  0.00    +0.000 NA
BRANCH   8  14
ATOM     13  C   UNL     1       1.419   2.616  21.632  0.00  0.00    +0.000 C 
ATOM     14  C   UNL     1       1.360   2.834  20.131  0.00  0.00    +0.000 C 
ENDBRANCH   8  14
ENDBRANCH   7  11
ENDBRANCH   1   7
BRANCH   5  15
ATOM     15  C   UNL     1       6.057   4.208  15.206  0.00  0.00    +0.000 C 
BRANCH  15  16
ATOM     16  C   UNL     1       6.427   4.408  13.745  0.00  0.00    +0.000 C 
BRANCH  16  17
ATOM     17  O   UNL     1       6.109   3.171  13.091  0.00  0.00    +0.000 OA
ATOM     18  C   UNL     1       5.206   3.320  12.011  0.00  0.00    +0.000 C 
ENDBRANCH  16  17
ENDBRANCH  15  16
ENDBRANCH   5  15
TORSDOF 6
ENDMDL
