MODEL 1
REMARK VINA RESULT:      -8.1      0.000      0.000
REMARK  Name = 
REMARK  5 active torsions:
REMARK  status: ('A' for Active; 'I' for Inactive)
REMARK    1  A    between atoms: C_1  and  C_2
REMARK    2  A    between atoms: C_2  and  N_3
REMARK    3  A    between atoms: C_5  and  C_6
REMARK    4  A    between atoms: C_6  and  C_7
REMARK    5  A    between atoms: C_13  and  N_14
REMARK                            x       y       z     vdW  Elec       q    Type
REMARK                         _______ _______ _______ _____ _____    ______ ____
ROOT
ATOM      1  N   UNL     1       4.595   3.954  18.017  0.00  0.00    +0.000 N 
ATOM      2  C   UNL     1       5.352   3.936  16.851  0.00  0.00    +0.000 A 
ATOM      3  C   UNL     1       5.567   4.964  16.016  0.00  0.00    +0.000 A 
ATOM      4  C   UNL     1       4.958   6.259  16.391  0.00  0.00    +0.000 A 
ATOM      5  O   UNL     1       5.207   7.292  15.777  0.00  0.00    +0.000 OA
ATOM      6  C   UNL     1       4.031   6.277  17.552  0.00  0.00    +0.000 A 
ATOM      7  C   UNL     1       3.320   7.463  17.823  0.00  0.00    +0.000 A 
ATOM      8  C   UNL     1       2.398   7.574  18.878  0.00  0.00    +0.000 A 
ATOM      9  C   UNL     1       2.252   6.411  19.669  0.00  0.00    +0.000 A 
ATOM     10 CL   UNL     1       1.056   6.251  20.922  0.00  0.00    +0.000 Cl
ATOM     11  C   UNL     1       2.997   5.234  19.421  0.00  0.00    +0.000 A 
ATOM     12  C   UNL     1       3.884   5.128  18.346  0.00  0.00    +0.000 A 
ENDROOT
BRANCH   8  13
ATOM     13  N   UNL     1       1.724   8.774  19.061  0.00  0.00    +0.000 N 
ATOM     14  C   UNL     1       1.380   9.275  20.400  0.00  0.00    +0.000 C 
ATOM     15  C   UNL     1      -0.128   9.493  20.507  0.00  0.00    +0.000 C 
ATOM     16  C   UNL     1      -0.627  10.412  19.393  0.00  0.00    +0.000 C 
ATOM     17  C   UNL     1      -0.208   9.878  18.029  0.00  0.00    +0.000 C 
ATOM     18  C   UNL     1       1.298   9.626  17.947  0.00  0.00    +0.000 C 
ENDBRANCH   8  13
BRANCH   3  19
ATOM     19  C   UNL     1       6.396   4.718  14.802  0.00  0.00    +0.000 C 
ATOM     20  C   UNL     1       5.877   3.843  13.690  0.00  0.00    +0.000 C 
ATOM     21  O   UNL     1       7.530   5.197  14.723  0.00  0.00    +0.000 OA
ENDBRANCH   3  19
BRANCH   1  23
ATOM     22  C   UNL     1       3.542   1.724  18.274  0.00  0.00    +0.000 C 
ATOM     23  C   UNL     1       4.500   2.749  18.864  0.00  0.00    +0.000 C 
ENDBRANCH   1  23
TORSDOF 3
ENDMDL
MODEL 2
REMARK VINA RESULT:      -7.6      1.020      1.252
REMARK  Name = 
REMARK  5 active torsions:
REMARK  status: ('A' for Active; 'I' for Inactive)
REMARK    1  A    between atoms: C_1  and  C_2
REMARK    2  A    between atoms: C_2  and  N_3
REMARK    3  A    between atoms: C_5  and  C_6
REMARK    4  A    between atoms: C_6  and  C_7
REMARK    5  A    between atoms: C_13  and  N_14
REMARK                            x       y       z     vdW  Elec       q    Type
REMARK                         _______ _______ _______ _____ _____    ______ ____
ROOT
ATOM      1  N   UNL     1       4.683   4.734  18.641  0.00  0.00    +0.000 N 
ATOM      2  C   UNL     1       5.456   4.402  17.534  0.00  0.00    +0.000 A 
ATOM      3  C   UNL     1       5.625   5.135  16.423  0.00  0.00    +0.000 A 
ATOM      4  C   UNL     1       4.940   6.446  16.384  0.00  0.00    +0.000 A 
ATOM      5  O   UNL     1       5.139   7.253  15.482  0.00  0.00    +0.000 OA
ATOM      6  C   UNL     1       3.997   6.766  17.487  0.00  0.00    +0.000 A 
ATOM      7  C   UNL     1       3.217   7.935  17.384  0.00  0.00    +0.000 A 
ATOM      8  C   UNL     1       2.277   8.312  18.357  0.00  0.00    +0.000 A 
ATOM      9  C   UNL     1       2.184   7.441  19.468  0.00  0.00    +0.000 A 
ATOM     10 CL   UNL     1       0.982   7.605  20.714  0.00  0.00    +0.000 Cl
ATOM     11  C   UNL     1       2.996   6.289  19.591  0.00  0.00    +0.000 A 
ATOM     12  C   UNL     1       3.903   5.909  18.596  0.00  0.00    +0.000 A 
ENDROOT
BRANCH   8  13
ATOM     13  N   UNL     1       1.534   9.470  18.166  0.00  0.00    +0.000 N 
ATOM     14  C   UNL     1       2.138  10.806  18.271  0.00  0.00    +0.000 C 
ATOM     15  C   UNL     1       1.404  11.632  19.326  0.00  0.00    +0.000 C 
ATOM     16  C   UNL     1      -0.093  11.688  19.031  0.00  0.00    +0.000 C 
ATOM     17  C   UNL     1      -0.666  10.284  18.885  0.00  0.00    +0.000 C 
ATOM     18  C   UNL     1       0.102   9.454  17.854  0.00  0.00    +0.000 C 
ENDBRANCH   8  13
BRANCH   3  19
ATOM     19  C   UNL     1       6.482   4.577  15.340  0.00  0.00    +0.000 C 
ATOM     20  C   UNL     1       5.858   3.986  14.102  0.00  0.00    +0.000 C 
ATOM     21  O   UNL     1       7.708   4.557  15.473  0.00  0.00    +0.000 OA
ENDBRANCH   3  19
BRANCH   1  23
ATOM     22  C   UNL     1       3.872   2.564  19.525  0.00  0.00    +0.000 C 
ATOM     23  C   UNL     1       4.643   3.843  19.817  0.00  0.00    +0.000 C 
ENDBRANCH   1  23
TORSDOF 3
ENDMDL
MODEL 3
REMARK VINA RESULT:      -7.5      2.724      7.026
REMARK  Name = 
REMARK  5 active torsions:
REMARK  status: ('A' for Active; 'I' for Inactive)
REMARK    1  A    between atoms: C_1  and  C_2
REMARK    2  A    between atoms: C_2  and  N_3
REMARK    3  A    between atoms: C_5  and  C_6
REMARK    4  A    between atoms: C_6  and  C_7
REMARK    5  A    between atoms: C_13  and  N_14
REMARK                            x       y       z     vdW  Elec       q    Type
REMARK                         _______ _______ _______ _____ _____    ______ ____
ROOT
ATOM      1  N   UNL     1       0.807   9.497  21.176  0.00  0.00    +0.000 N 
ATOM      2  C   UNL     1       0.871  10.722  20.521  0.00  0.00    +0.000 A 
ATOM      3  C   UNL     1       1.267  10.938  19.257  0.00  0.00    +0.000 A 
ATOM      4  C   UNL     1       1.647   9.744  18.469  0.00  0.00    +0.000 A 
ATOM      5  O   UNL     1       1.887   9.812  17.269  0.00  0.00    +0.000 OA
ATOM      6  C   UNL     1       1.724   8.442  19.181  0.00  0.00    +0.000 A 
ATOM      7  C   UNL     1       2.238   7.329  18.487  0.00  0.00    +0.000 A 
ATOM      8  C   UNL     1       2.379   6.062  19.079  0.00  0.00    +0.000 A 
ATOM      9  C   UNL     1       1.942   5.977  20.421  0.00  0.00    +0.000 A 
ATOM     10 CL   UNL     1       2.168   4.565  21.412  0.00  0.00    +0.000 Cl
ATOM     11  C   UNL     1       1.388   7.084  21.104  0.00  0.00    +0.000 A 
ATOM     12  C   UNL     1       1.287   8.348  20.513  0.00  0.00    +0.000 A 
ENDROOT
BRANCH   8  13
ATOM     13  N   UNL     1       2.916   5.023  18.330  0.00  0.00    +0.000 N 
ATOM     14  C   UNL     1       2.077   4.159  17.486  0.00  0.00    +0.000 C 
ATOM     15  C   UNL     1       2.247   2.698  17.900  0.00  0.00    +0.000 C 
ATOM     16  C   UNL     1       3.719   2.291  17.871  0.00  0.00    +0.000 C 
ATOM     17  C   UNL     1       4.556   3.241  18.720  0.00  0.00    +0.000 C 
ATOM     18  C   UNL     1       4.346   4.703  18.323  0.00  0.00    +0.000 C 
ENDBRANCH   8  13
BRANCH   3  19
ATOM     19  C   UNL     1       1.283  12.342  18.758  0.00  0.00    +0.000 C 
ATOM     20  C   UNL     1       2.590  13.027  18.454  0.00  0.00    +0.000 C 
ATOM     21  O   UNL     1       0.225  12.964  18.634  0.00  0.00    +0.000 OA
ENDBRANCH   3  19
BRANCH   1  23
ATOM     22  C   UNL     1      -0.731  10.505  22.839  0.00  0.00    +0.000 C 
ATOM     23  C   UNL     1       0.294   9.416  22.557  0.00  0.00    +0.000 C 
ENDBRANCH   1  23
TORSDOF 3
ENDMDL
MODEL 4
REMARK VINA RESULT:      -7.4      2.446      6.849
REMARK  Name = 
REMARK  5 active torsions:
REMARK  status: ('A' for Active; 'I' for Inactive)
REMARK    1  A    between atoms: C_1  and  C_2
REMARK    2  A    between atoms: C_2  and  N_3
REMARK    3  A    between atoms: C_5  and  C_6
REMARK    4  A    between atoms: C_6  and  C_7
REMARK    5  A    between atoms: C_13  and  N_14
REMARK                            x       y       z     vdW  Elec       q    Type
REMARK                         _______ _______ _______ _____ _____    ______ ____
ROOT
ATOM      1  N   UNL     1       0.419   8.891  20.843  0.00  0.00    +0.000 N 
ATOM      2  C   UNL     1       0.431  10.149  20.250  0.00  0.00    +0.000 A 
ATOM      3  C   UNL     1       1.084  10.504  19.132  0.00  0.00    +0.000 A 
ATOM      4  C   UNL     1       1.847   9.438  18.445  0.00  0.00    +0.000 A 
ATOM      5  O   UNL     1       2.361   9.618  17.346  0.00  0.00    +0.000 OA
ATOM      6  C   UNL     1       1.968   8.124  19.128  0.00  0.00    +0.000 A 
ATOM      7  C   UNL     1       2.822   7.154  18.566  0.00  0.00    +0.000 A 
ATOM      8  C   UNL     1       3.029   5.893  19.149  0.00  0.00    +0.000 A 
ATOM      9  C   UNL     1       2.296   5.655  20.335  0.00  0.00    +0.000 A 
ATOM     10 CL   UNL     1       2.509   4.239  21.323  0.00  0.00    +0.000 Cl
ATOM     11  C   UNL     1       1.407   6.613  20.876  0.00  0.00    +0.000 A 
ATOM     12  C   UNL     1       1.239   7.878  20.302  0.00  0.00    +0.000 A 
ENDROOT
BRANCH   8  13
ATOM     13  N   UNL     1       3.905   5.003  18.541  0.00  0.00    +0.000 N 
ATOM     14  C   UNL     1       5.228   4.706  19.109  0.00  0.00    +0.000 C 
ATOM     15  C   UNL     1       6.320   5.020  18.087  0.00  0.00    +0.000 C 
ATOM     16  C   UNL     1       6.067   4.280  16.775  0.00  0.00    +0.000 C 
ATOM     17  C   UNL     1       4.669   4.580  16.249  0.00  0.00    +0.000 C 
ATOM     18  C   UNL     1       3.588   4.301  17.294  0.00  0.00    +0.000 C 
ENDBRANCH   8  13
BRANCH   3  19
ATOM     19  C   UNL     1       0.980  11.920  18.681  0.00  0.00    +0.000 C 
ATOM     20  C   UNL     1       2.215  12.776  18.569  0.00  0.00    +0.000 C 
ATOM     21  O   UNL     1      -0.126  12.410  18.439  0.00  0.00    +0.000 OA
ENDBRANCH   3  19
BRANCH   1  23
ATOM     22  C   UNL     1      -0.036   9.596  23.177  0.00  0.00    +0.000 C 
ATOM     23  C   UNL     1      -0.397   8.642  22.047  0.00  0.00    +0.000 C 
ENDBRANCH   1  23
TORSDOF 3
ENDMDL
MODEL 5
REMARK VINA RESULT:      -7.3      1.962      2.744
REMARK  Name = 
REMARK  5 active torsions:
REMARK  status: ('A' for Active; 'I' for Inactive)
REMARK    1  A    between atoms: C_1  and  C_2
REMARK    2  A    between atoms: C_2  and  N_3
REMARK    3  A    between atoms: C_5  and  C_6
REMARK    4  A    between atoms: C_6  and  C_7
REMARK    5  A    between atoms: C_13  and  N_14
REMARK                            x       y       z     vdW  Elec       q    Type
REMARK                         _______ _______ _______ _____ _____    ______ ____
ROOT
ATOM      1  N   UNL     1       2.725   5.065  20.211  0.00  0.00    +0.000 N 
ATOM      2  C   UNL     1       3.525   4.568  19.187  0.00  0.00    +0.000 A 
ATOM      3  C   UNL     1       3.947   5.235  18.103  0.00  0.00    +0.000 A 
ATOM      4  C   UNL     1       3.543   6.655  17.999  0.00  0.00    +0.000 A 
ATOM      5  O   UNL     1       3.988   7.392  17.126  0.00  0.00    +0.000 OA
ATOM      6  C   UNL     1       2.575   7.173  19.001  0.00  0.00    +0.000 A 
ATOM      7  C   UNL     1       2.058   8.471  18.823  0.00  0.00    +0.000 A 
ATOM      8  C   UNL     1       1.116   9.042  19.697  0.00  0.00    +0.000 A 
ATOM      9  C   UNL     1       0.741   8.224  20.788  0.00  0.00    +0.000 A 
ATOM     10 CL   UNL     1      -0.525   8.643  21.905  0.00  0.00    +0.000 Cl
ATOM     11  C   UNL     1       1.292   6.937  20.989  0.00  0.00    +0.000 A 
ATOM     12  C   UNL     1       2.202   6.370  20.091  0.00  0.00    +0.000 A 
ENDROOT
BRANCH   8  13
ATOM     13  N   UNL     1       0.641  10.320  19.435  0.00  0.00    +0.000 N 
ATOM     14  C   UNL     1       1.182  11.504  20.118  0.00  0.00    +0.000 C 
ATOM     15  C   UNL     1       0.060  12.251  20.839  0.00  0.00    +0.000 C 
ATOM     16  C   UNL     1      -1.072  12.599  19.874  0.00  0.00    +0.000 C 
ATOM     17  C   UNL     1      -1.568  11.349  19.156  0.00  0.00    +0.000 C 
ATOM     18  C   UNL     1      -0.431  10.589  18.472  0.00  0.00    +0.000 C 
ENDBRANCH   8  13
BRANCH   3  19
ATOM     19  C   UNL     1       4.783   4.501  17.111  0.00  0.00    +0.000 C 
ATOM     20  C   UNL     1       6.286   4.593  17.165  0.00  0.00    +0.000 C 
ATOM     21  O   UNL     1       4.244   3.850  16.213  0.00  0.00    +0.000 OA
ENDBRANCH   3  19
BRANCH   1  23
ATOM     22  C   UNL     1       1.316   3.196  21.031  0.00  0.00    +0.000 C 
ATOM     23  C   UNL     1       2.390   4.218  21.372  0.00  0.00    +0.000 C 
ENDBRANCH   1  23
TORSDOF 3
ENDMDL
MODEL 6
REMARK VINA RESULT:      -7.2      2.388      7.005
REMARK  Name = 
REMARK  5 active torsions:
REMARK  status: ('A' for Active; 'I' for Inactive)
REMARK    1  A    between atoms: C_1  and  C_2
REMARK    2  A    between atoms: C_2  and  N_3
REMARK    3  A    between atoms: C_5  and  C_6
REMARK    4  A    between atoms: C_6  and  C_7
REMARK    5  A    between atoms: C_13  and  N_14
REMARK                            x       y       z     vdW  Elec       q    Type
REMARK                         _______ _______ _______ _____ _____    ______ ____
ROOT
ATOM      1  N   UNL     1       0.296   9.275  20.991  0.00  0.00    +0.000 N 
ATOM      2  C   UNL     1       0.290  10.532  20.396  0.00  0.00    +0.000 A 
ATOM      3  C   UNL     1       0.894  10.881  19.250  0.00  0.00    +0.000 A 
ATOM      4  C   UNL     1       1.619   9.810  18.531  0.00  0.00    +0.000 A 
ATOM      5  O   UNL     1       2.086   9.986  17.410  0.00  0.00    +0.000 OA
ATOM      6  C   UNL     1       1.763   8.496  19.210  0.00  0.00    +0.000 A 
ATOM      7  C   UNL     1       2.585   7.521  18.613  0.00  0.00    +0.000 A 
ATOM      8  C   UNL     1       2.810   6.259  19.189  0.00  0.00    +0.000 A 
ATOM      9  C   UNL     1       2.128   6.027  20.406  0.00  0.00    +0.000 A 
ATOM     10 CL   UNL     1       2.376   4.611  21.386  0.00  0.00    +0.000 Cl
ATOM     11  C   UNL     1       1.270   6.992  20.984  0.00  0.00    +0.000 A 
ATOM     12  C   UNL     1       1.085   8.257  20.416  0.00  0.00    +0.000 A 
ENDROOT
BRANCH   8  13
ATOM     13  N   UNL     1       3.653   5.363  18.544  0.00  0.00    +0.000 N 
ATOM     14  C   UNL     1       4.978   5.763  18.049  0.00  0.00    +0.000 C 
ATOM     15  C   UNL     1       5.082   5.489  16.549  0.00  0.00    +0.000 C 
ATOM     16  C   UNL     1       4.757   4.029  16.237  0.00  0.00    +0.000 C 
ATOM     17  C   UNL     1       3.397   3.647  16.810  0.00  0.00    +0.000 C 
ATOM     18  C   UNL     1       3.292   3.963  18.303  0.00  0.00    +0.000 C 
ENDBRANCH   8  13
BRANCH   3  19
ATOM     19  C   UNL     1       0.779  12.298  18.801  0.00  0.00    +0.000 C 
ATOM     20  C   UNL     1      -0.556  12.858  18.382  0.00  0.00    +0.000 C 
ATOM     21  O   UNL     1       1.786  13.005  18.730  0.00  0.00    +0.000 OA
ENDBRANCH   3  19
BRANCH   1  23
ATOM     22  C   UNL     1      -0.738  10.327  22.984  0.00  0.00    +0.000 C 
ATOM     23  C   UNL     1      -0.468   9.034  22.230  0.00  0.00    +0.000 C 
ENDBRANCH   1  23
TORSDOF 3
ENDMDL
MODEL 7
REMARK VINA RESULT:      -7.1      2.526      3.946
REMARK  Name = 
REMARK  5 active torsions:
REMARK  status: ('A' for Active; 'I' for Inactive)
REMARK    1  A    between atoms: C_1  and  C_2
REMARK    2  A    between atoms: C_2  and  N_3
REMARK    3  A    between atoms: C_5  and  C_6
REMARK    4  A    between atoms: C_6  and  C_7
REMARK    5  A    between atoms: C_13  and  N_14
REMARK                            x       y       z     vdW  Elec       q    Type
REMARK                         _______ _______ _______ _____ _____    ______ ____
ROOT
ATOM      1  N   UNL     1       4.136   5.973  17.430  0.00  0.00    +0.000 N 
ATOM      2  C   UNL     1       4.383   4.691  17.907  0.00  0.00    +0.000 A 
ATOM      3  C   UNL     1       3.754   4.076  18.921  0.00  0.00    +0.000 A 
ATOM      4  C   UNL     1       2.667   4.833  19.581  0.00  0.00    +0.000 A 
ATOM      5  O   UNL     1       1.938   4.316  20.421  0.00  0.00    +0.000 OA
ATOM      6  C   UNL     1       2.476   6.253  19.189  0.00  0.00    +0.000 A 
ATOM      7  C   UNL     1       1.556   7.031  19.919  0.00  0.00    +0.000 A 
ATOM      8  C   UNL     1       1.323   8.390  19.647  0.00  0.00    +0.000 A 
ATOM      9  C   UNL     1       2.065   8.919  18.565  0.00  0.00    +0.000 A 
ATOM     10 CL   UNL     1       2.073  10.607  18.145  0.00  0.00    +0.000 Cl
ATOM     11  C   UNL     1       2.958   8.126  17.806  0.00  0.00    +0.000 A 
ATOM     12  C   UNL     1       3.205   6.784  18.112  0.00  0.00    +0.000 A 
ENDROOT
BRANCH   8  13
ATOM     13  N   UNL     1       0.415   9.090  20.430  0.00  0.00    +0.000 N 
ATOM     14  C   UNL     1      -0.024  10.450  20.083  0.00  0.00    +0.000 C 
ATOM     15  C   UNL     1       0.277  11.406  21.237  0.00  0.00    +0.000 C 
ATOM     16  C   UNL     1      -0.346  10.905  22.538  0.00  0.00    +0.000 C 
ATOM     17  C   UNL     1       0.099   9.477  22.831  0.00  0.00    +0.000 C 
ATOM     18  C   UNL     1      -0.171   8.537  21.655  0.00  0.00    +0.000 C 
ENDBRANCH   8  13
BRANCH   3  19
ATOM     19  C   UNL     1       4.194   2.701  19.286  0.00  0.00    +0.000 C 
ATOM     20  C   UNL     1       3.576   1.500  18.616  0.00  0.00    +0.000 C 
ATOM     21  O   UNL     1       5.036   2.537  20.172  0.00  0.00    +0.000 OA
ENDBRANCH   3  19
BRANCH   1  23
ATOM     22  C   UNL     1       5.433   5.361  15.407  0.00  0.00    +0.000 C 
ATOM     23  C   UNL     1       4.878   6.490  16.263  0.00  0.00    +0.000 C 
ENDBRANCH   1  23
TORSDOF 3
ENDMDL
MODEL 8
REMARK VINA RESULT:      -7.1      2.069      3.124
REMARK  Name = 
REMARK  5 active torsions:
REMARK  status: ('A' for Active; 'I' for Inactive)
REMARK    1  A    between atoms: C_1  and  C_2
REMARK    2  A    between atoms: C_2  and  N_3
REMARK    3  A    between atoms: C_5  and  C_6
REMARK    4  A    between atoms: C_6  and  C_7
REMARK    5  A    between atoms: C_13  and  N_14
REMARK                            x       y       z     vdW  Elec       q    Type
REMARK                         _______ _______ _______ _____ _____    ______ ____
ROOT
ATOM      1  N   UNL     1       2.554   5.522  20.107  0.00  0.00    +0.000 N 
ATOM      2  C   UNL     1       3.263   5.101  18.987  0.00  0.00    +0.000 A 
ATOM      3  C   UNL     1       3.572   5.837  17.909  0.00  0.00    +0.000 A 
ATOM      4  C   UNL     1       3.138   7.252  17.926  0.00  0.00    +0.000 A 
ATOM      5  O   UNL     1       3.488   8.046  17.059  0.00  0.00    +0.000 OA
ATOM      6  C   UNL     1       2.259   7.692  19.040  0.00  0.00    +0.000 A 
ATOM      7  C   UNL     1       1.707   8.987  18.986  0.00  0.00    +0.000 A 
ATOM      8  C   UNL     1       0.842   9.488  19.974  0.00  0.00    +0.000 A 
ATOM      9  C   UNL     1       0.583   8.602  21.046  0.00  0.00    +0.000 A 
ATOM     10 CL   UNL     1      -0.580   8.931  22.298  0.00  0.00    +0.000 Cl
ATOM     11  C   UNL     1       1.171   7.318  21.121  0.00  0.00    +0.000 A 
ATOM     12  C   UNL     1       2.002   6.821  20.112  0.00  0.00    +0.000 A 
ENDROOT
BRANCH   8  13
ATOM     13  N   UNL     1       0.325  10.768  19.832  0.00  0.00    +0.000 N 
ATOM     14  C   UNL     1      -1.087  11.002  19.497  0.00  0.00    +0.000 C 
ATOM     15  C   UNL     1      -1.192  11.833  18.219  0.00  0.00    +0.000 C 
ATOM     16  C   UNL     1      -0.398  13.132  18.345  0.00  0.00    +0.000 C 
ATOM     17  C   UNL     1       1.046  12.843  18.740  0.00  0.00    +0.000 C 
ATOM     18  C   UNL     1       1.136  11.978  19.998  0.00  0.00    +0.000 C 
ENDBRANCH   8  13
BRANCH   3  19
ATOM     19  C   UNL     1       4.323   5.178  16.803  0.00  0.00    +0.000 C 
ATOM     20  C   UNL     1       5.297   5.968  15.967  0.00  0.00    +0.000 C 
ATOM     21  O   UNL     1       4.117   3.991  16.540  0.00  0.00    +0.000 OA
ENDBRANCH   3  19
BRANCH   1  23
ATOM     22  C   UNL     1       1.373   3.487  20.888  0.00  0.00    +0.000 C 
ATOM     23  C   UNL     1       2.342   4.605  21.243  0.00  0.00    +0.000 C 
ENDBRANCH   1  23
TORSDOF 3
ENDMDL
MODEL 9
REMARK VINA RESULT:      -6.8      4.082      8.438
REMARK  Name = 
REMARK  5 active torsions:
REMARK  status: ('A' for Active; 'I' for Inactive)
REMARK    1  A    between atoms: C_1  and  C_2
REMARK    2  A    between atoms: C_2  and  N_3
REMARK    3  A    between atoms: C_5  and  C_6
REMARK    4  A    between atoms: C_6  and  C_7
REMARK    5  A    between atoms: C_13  and  N_14
REMARK                            x       y       z     vdW  Elec       q    Type
REMARK                         _______ _______ _______ _____ _____    ______ ____
ROOT
ATOM      1  N   UNL     1       0.594  11.494  19.710  0.00  0.00    +0.000 N 
ATOM      2  C   UNL     1      -0.188  11.964  20.760  0.00  0.00    +0.000 A 
ATOM      3  C   UNL     1      -0.481  11.315  21.897  0.00  0.00    +0.000 A 
ATOM      4  C   UNL     1       0.112   9.969  22.063  0.00  0.00    +0.000 A 
ATOM      5  O   UNL     1       0.024   9.350  23.118  0.00  0.00    +0.000 OA
ATOM      6  C   UNL     1       0.833   9.384  20.903  0.00  0.00    +0.000 A 
ATOM      7  C   UNL     1       1.263   8.045  20.988  0.00  0.00    +0.000 A 
ATOM      8  C   UNL     1       1.927   7.390  19.937  0.00  0.00    +0.000 A 
ATOM      9  C   UNL     1       2.156   8.183  18.788  0.00  0.00    +0.000 A 
ATOM     10 CL   UNL     1       2.808   7.551  17.304  0.00  0.00    +0.000 Cl
ATOM     11  C   UNL     1       1.761   9.540  18.719  0.00  0.00    +0.000 A 
ATOM     12  C   UNL     1       1.070  10.167  19.761  0.00  0.00    +0.000 A 
ENDROOT
BRANCH   8  13
ATOM     13  N   UNL     1       2.297   6.062  20.096  0.00  0.00    +0.000 N 
ATOM     14  C   UNL     1       3.620   5.569  19.684  0.00  0.00    +0.000 C 
ATOM     15  C   UNL     1       3.464   4.428  18.680  0.00  0.00    +0.000 C 
ATOM     16  C   UNL     1       2.578   3.320  19.246  0.00  0.00    +0.000 C 
ATOM     17  C   UNL     1       1.238   3.884  19.703  0.00  0.00    +0.000 C 
ATOM     18  C   UNL     1       1.408   5.052  20.676  0.00  0.00    +0.000 C 
ENDBRANCH   8  13
BRANCH   3  19
ATOM     19  C   UNL     1      -1.362  11.998  22.885  0.00  0.00    +0.000 C 
ATOM     20  C   UNL     1      -1.123  13.441  23.250  0.00  0.00    +0.000 C 
ATOM     21  O   UNL     1      -2.266  11.370  23.443  0.00  0.00    +0.000 OA
ENDBRANCH   3  19
BRANCH   1  23
ATOM     22  C   UNL     1       2.112  13.211  18.764  0.00  0.00    +0.000 C 
ATOM     23  C   UNL     1       0.873  12.355  18.545  0.00  0.00    +0.000 C 
ENDBRANCH   1  23
TORSDOF 3
ENDMDL
