MODEL 1
REMARK VINA RESULT:      -8.9      0.000      0.000
REMARK  Name = 
REMARK  6 active torsions:
REMARK  status: ('A' for Active; 'I' for Inactive)
REMARK    1  A    between atoms: C_2  and  O_3
REMARK    2  A    between atoms: C_2  and  C_4
REMARK    3  A    between atoms: C_5  and  C_6
REMARK    4  A    between atoms: C_9  and  C_10
REMARK    5  A    between atoms: C_13  and  O_14
REMARK    6  A    between atoms: C_15  and  C_16
REMARK                            x       y       z     vdW  Elec       q    Type
REMARK                         _______ _______ _______ _____ _____    ______ ____
ROOT
ATOM      1  C   UNL     1       1.421   8.724  19.913  0.00  0.00    +0.000 A 
ATOM      2  C   UNL     1       2.126   9.302  18.851  0.00  0.00    +0.000 A 
ATOM      3  C   UNL     1       2.806   8.510  17.934  0.00  0.00    +0.000 A 
ATOM      4  C   UNL     1       2.806   7.120  18.080  0.00  0.00    +0.000 A 
ATOM      5  C   UNL     1       2.151   6.484  19.147  0.00  0.00    +0.000 A 
ATOM      6  C   UNL     1       1.459   7.324  20.045  0.00  0.00    +0.000 A 
ENDROOT
BRANCH   5   7
ATOM      7  C   UNL     1       2.219   4.961  19.385  0.00  0.00    +0.000 C 
ATOM      8  C   UNL     1       1.293   4.575  20.577  0.00  0.00    +0.000 C 
ATOM      9  C   UNL     1       1.329   3.062  20.847  0.00  0.00    +0.000 C 
ATOM     10  C   UNL     1       0.838   2.314  19.600  0.00  0.00    +0.000 C 
ATOM     11  C   UNL     1       1.762   2.622  18.415  0.00  0.00    +0.000 C 
ATOM     12  C   UNL     1       3.198   2.198  18.742  0.00  0.00    +0.000 C 
ATOM     13  C   UNL     1       3.694   2.960  19.978  0.00  0.00    +0.000 C 
ATOM     14  C   UNL     1       2.771   2.642  21.167  0.00  0.00    +0.000 C 
ATOM     15  C   UNL     1       3.666   4.477  19.698  0.00  0.00    +0.000 C 
ATOM     16  C   UNL     1       1.737   4.132  18.147  0.00  0.00    +0.000 C 
ENDBRANCH   5   7
BRANCH   1  20
ATOM     17  C   UNL     1      -0.820  11.147  22.574  0.00  0.00    +0.000 A 
ATOM     18  C   UNL     1      -0.336   9.916  23.018  0.00  0.00    +0.000 A 
ATOM     19  C   UNL     1       0.411   9.113  22.165  0.00  0.00    +0.000 A 
ATOM     20  C   UNL     1       0.655   9.543  20.864  0.00  0.00    +0.000 A 
ATOM     21  N   UNL     1       0.207  10.740  20.410  0.00  0.00    +0.000 NA
ATOM     22  C   UNL     1      -0.514  11.502  21.262  0.00  0.00    +0.000 A 
BRANCH  17  24
ATOM     23  C   UNL     1      -3.016  11.874  23.426  0.00  0.00    +0.000 C 
ATOM     24  C   UNL     1      -1.678  12.004  23.398  0.00  0.00    +0.000 C 
BRANCH  23  26
ATOM     25  O   UNL     1      -3.885  13.886  24.274  0.00  0.00    +0.000 OA
ATOM     26  C   UNL     1      -3.981  12.666  24.206  0.00  0.00    +0.000 C 
BRANCH  26  27
ATOM     27  O   UNL     1      -4.915  11.973  24.876  0.00  0.00    +0.000 OA
ATOM     28  H   UNL     1      -5.788  11.915  24.451  0.00  0.00    +0.000 HD
ENDBRANCH  26  27
ENDBRANCH  23  26
ENDBRANCH  17  24
ENDBRANCH   1  20
BRANCH   4  29
ATOM     29  O   UNL     1       3.482   6.377  17.152  0.00  0.00    +0.000 OA
ATOM     30  H   UNL     1       3.096   6.531  16.276  0.00  0.00    +0.000 HD
ENDBRANCH   4  29
TORSDOF 6
ENDMDL
MODEL 2
REMARK VINA RESULT:      -8.8      0.260      1.434
REMARK  Name = 
REMARK  6 active torsions:
REMARK  status: ('A' for Active; 'I' for Inactive)
REMARK    1  A    between atoms: C_2  and  O_3
REMARK    2  A    between atoms: C_2  and  C_4
REMARK    3  A    between atoms: C_5  and  C_6
REMARK    4  A    between atoms: C_9  and  C_10
REMARK    5  A    between atoms: C_13  and  O_14
REMARK    6  A    between atoms: C_15  and  C_16
REMARK                            x       y       z     vdW  Elec       q    Type
REMARK                         _______ _______ _______ _____ _____    ______ ____
ROOT
ATOM      1  C   UNL     1       1.512   8.653  19.787  0.00  0.00    +0.000 A 
ATOM      2  C   UNL     1       2.241   9.175  18.712  0.00  0.00    +0.000 A 
ATOM      3  C   UNL     1       2.925   8.336  17.841  0.00  0.00    +0.000 A 
ATOM      4  C   UNL     1       2.905   6.954  18.047  0.00  0.00    +0.000 A 
ATOM      5  C   UNL     1       2.226   6.372  19.131  0.00  0.00    +0.000 A 
ATOM      6  C   UNL     1       1.530   7.259  19.980  0.00  0.00    +0.000 A 
ENDROOT
BRANCH   5   7
ATOM      7  C   UNL     1       2.271   4.861  19.436  0.00  0.00    +0.000 C 
ATOM      8  C   UNL     1       1.750   4.062  18.203  0.00  0.00    +0.000 C 
ATOM      9  C   UNL     1       1.780   2.548  18.464  0.00  0.00    +0.000 C 
ATOM     10  C   UNL     1       3.225   2.111  18.739  0.00  0.00    +0.000 C 
ATOM     11  C   UNL     1       3.757   2.832  19.984  0.00  0.00    +0.000 C 
ATOM     12  C   UNL     1       2.877   2.507  21.196  0.00  0.00    +0.000 C 
ATOM     13  C   UNL     1       1.436   2.962  20.928  0.00  0.00    +0.000 C 
ATOM     14  C   UNL     1       0.903   2.229  19.685  0.00  0.00    +0.000 C 
ATOM     15  C   UNL     1       1.410   4.483  20.678  0.00  0.00    +0.000 C 
ATOM     16  C   UNL     1       3.720   4.345  19.732  0.00  0.00    +0.000 C 
ENDBRANCH   5   7
BRANCH   1  20
ATOM     17  C   UNL     1      -0.712  11.232  22.311  0.00  0.00    +0.000 A 
ATOM     18  C   UNL     1      -0.573   9.889  22.662  0.00  0.00    +0.000 A 
ATOM     19  C   UNL     1       0.161   9.030  21.854  0.00  0.00    +0.000 A 
ATOM     20  C   UNL     1       0.742   9.521  20.688  0.00  0.00    +0.000 A 
ATOM     21  N   UNL     1       0.633  10.825  20.329  0.00  0.00    +0.000 NA
ATOM     22  C   UNL     1      -0.084  11.638  21.136  0.00  0.00    +0.000 A 
BRANCH  17  24
ATOM     23  C   UNL     1      -2.804  11.893  23.436  0.00  0.00    +0.000 C 
ATOM     24  C   UNL     1      -1.538  12.169  23.078  0.00  0.00    +0.000 C 
BRANCH  23  26
ATOM     25  O   UNL     1      -3.456  13.914  24.440  0.00  0.00    +0.000 OA
ATOM     26  C   UNL     1      -3.730  12.743  24.202  0.00  0.00    +0.000 C 
BRANCH  26  27
ATOM     27  O   UNL     1      -4.839  12.148  24.665  0.00  0.00    +0.000 OA
ATOM     28  H   UNL     1      -5.447  11.797  23.991  0.00  0.00    +0.000 HD
ENDBRANCH  26  27
ENDBRANCH  23  26
ENDBRANCH  17  24
ENDBRANCH   1  20
BRANCH   4  29
ATOM     29  O   UNL     1       3.586   6.163  17.163  0.00  0.00    +0.000 OA
ATOM     30  H   UNL     1       3.064   5.368  16.977  0.00  0.00    +0.000 HD
ENDBRANCH   4  29
TORSDOF 6
ENDMDL
MODEL 3
REMARK VINA RESULT:      -8.8      0.169      1.422
REMARK  Name = 
REMARK  6 active torsions:
REMARK  status: ('A' for Active; 'I' for Inactive)
REMARK    1  A    between atoms: C_2  and  O_3
REMARK    2  A    between atoms: C_2  and  C_4
REMARK    3  A    between atoms: C_5  and  C_6
REMARK    4  A    between atoms: C_9  and  C_10
REMARK    5  A    between atoms: C_13  and  O_14
REMARK    6  A    between atoms: C_15  and  C_16
REMARK                            x       y       z     vdW  Elec       q    Type
REMARK                         _______ _______ _______ _____ _____    ______ ____
ROOT
ATOM      1  C   UNL     1       1.488   8.655  19.824  0.00  0.00    +0.000 A 
ATOM      2  C   UNL     1       2.231   9.197  18.769  0.00  0.00    +0.000 A 
ATOM      3  C   UNL     1       2.915   8.374  17.884  0.00  0.00    +0.000 A 
ATOM      4  C   UNL     1       2.881   6.987  18.055  0.00  0.00    +0.000 A 
ATOM      5  C   UNL     1       2.187   6.384  19.117  0.00  0.00    +0.000 A 
ATOM      6  C   UNL     1       1.492   7.257  19.982  0.00  0.00    +0.000 A 
ENDROOT
BRANCH   5   7
ATOM      7  C   UNL     1       2.216   4.865  19.384  0.00  0.00    +0.000 C 
ATOM      8  C   UNL     1       3.661   4.429  19.770  0.00  0.00    +0.000 C 
ATOM      9  C   UNL     1       3.733   2.918  20.048  0.00  0.00    +0.000 C 
ATOM     10  C   UNL     1       2.803   2.574  21.217  0.00  0.00    +0.000 C 
ATOM     11  C   UNL     1       1.357   2.935  20.854  0.00  0.00    +0.000 C 
ATOM     12  C   UNL     1       0.922   2.167  19.601  0.00  0.00    +0.000 C 
ATOM     13  C   UNL     1       1.841   2.526  18.427  0.00  0.00    +0.000 C 
ATOM     14  C   UNL     1       3.289   2.153  18.791  0.00  0.00    +0.000 C 
ATOM     15  C   UNL     1       1.756   4.040  18.146  0.00  0.00    +0.000 C 
ATOM     16  C   UNL     1       1.281   4.440  20.567  0.00  0.00    +0.000 C 
ENDBRANCH   5   7
BRANCH   1  20
ATOM     17  C   UNL     1      -0.751  11.182  22.387  0.00  0.00    +0.000 A 
ATOM     18  C   UNL     1      -0.444   9.887  22.806  0.00  0.00    +0.000 A 
ATOM     19  C   UNL     1       0.299   9.048  21.986  0.00  0.00    +0.000 A 
ATOM     20  C   UNL     1       0.717   9.507  20.740  0.00  0.00    +0.000 A 
ATOM     21  N   UNL     1       0.444  10.765  20.313  0.00  0.00    +0.000 NA
ATOM     22  C   UNL     1      -0.278  11.561  21.133  0.00  0.00    +0.000 A 
BRANCH  17  24
ATOM     23  C   UNL     1      -2.876  11.807  23.470  0.00  0.00    +0.000 C 
ATOM     24  C   UNL     1      -1.596  12.088  23.170  0.00  0.00    +0.000 C 
BRANCH  23  26
ATOM     25  O   UNL     1      -3.748  13.851  24.232  0.00  0.00    +0.000 OA
ATOM     26  C   UNL     1      -3.822  12.627  24.244  0.00  0.00    +0.000 C 
BRANCH  26  27
ATOM     27  O   UNL     1      -4.708  11.960  24.997  0.00  0.00    +0.000 OA
ATOM     28  H   UNL     1      -5.143  11.201  24.571  0.00  0.00    +0.000 HD
ENDBRANCH  26  27
ENDBRANCH  23  26
ENDBRANCH  17  24
ENDBRANCH   1  20
BRANCH   4  29
ATOM     29  O   UNL     1       3.563   6.212  17.157  0.00  0.00    +0.000 OA
ATOM     30  H   UNL     1       4.401   6.644  16.934  0.00  0.00    +0.000 HD
ENDBRANCH   4  29
TORSDOF 6
ENDMDL
MODEL 4
REMARK VINA RESULT:      -8.4      0.878      1.209
REMARK  Name = 
REMARK  6 active torsions:
REMARK  status: ('A' for Active; 'I' for Inactive)
REMARK    1  A    between atoms: C_2  and  O_3
REMARK    2  A    between atoms: C_2  and  C_4
REMARK    3  A    between atoms: C_5  and  C_6
REMARK    4  A    between atoms: C_9  and  C_10
REMARK    5  A    between atoms: C_13  and  O_14
REMARK    6  A    between atoms: C_15  and  C_16
REMARK                            x       y       z     vdW  Elec       q    Type
REMARK                         _______ _______ _______ _____ _____    ______ ____
ROOT
ATOM      1  C   UNL     1       1.716   8.584  19.094  0.00  0.00    +0.000 A 
ATOM      2  C   UNL     1       2.626   9.027  18.128  0.00  0.00    +0.000 A 
ATOM      3  C   UNL     1       3.424   8.126  17.435  0.00  0.00    +0.000 A 
ATOM      4  C   UNL     1       3.336   6.760  17.716  0.00  0.00    +0.000 A 
ATOM      5  C   UNL     1       2.473   6.257  18.703  0.00  0.00    +0.000 A 
ATOM      6  C   UNL     1       1.668   7.205  19.369  0.00  0.00    +0.000 A 
ENDROOT
BRANCH   5   7
ATOM      7  C   UNL     1       2.429   4.766  19.100  0.00  0.00    +0.000 C 
ATOM      8  C   UNL     1       1.373   4.555  20.225  0.00  0.00    +0.000 C 
ATOM      9  C   UNL     1       1.295   3.080  20.650  0.00  0.00    +0.000 C 
ATOM     10  C   UNL     1       0.882   2.227  19.443  0.00  0.00    +0.000 C 
ATOM     11  C   UNL     1       1.931   2.362  18.331  0.00  0.00    +0.000 C 
ATOM     12  C   UNL     1       3.302   1.907  18.843  0.00  0.00    +0.000 C 
ATOM     13  C   UNL     1       3.722   2.772  20.038  0.00  0.00    +0.000 C 
ATOM     14  C   UNL     1       2.674   2.627  21.155  0.00  0.00    +0.000 C 
ATOM     15  C   UNL     1       3.809   4.250  19.604  0.00  0.00    +0.000 C 
ATOM     16  C   UNL     1       2.019   3.834  17.910  0.00  0.00    +0.000 C 
ENDBRANCH   5   7
BRANCH   1  20
ATOM     17  C   UNL     1      -0.787  11.262  21.223  0.00  0.00    +0.000 A 
ATOM     18  C   UNL     1      -0.853  11.230  19.830  0.00  0.00    +0.000 A 
ATOM     19  C   UNL     1      -0.050  10.351  19.115  0.00  0.00    +0.000 A 
ATOM     20  C   UNL     1       0.829   9.518  19.802  0.00  0.00    +0.000 A 
ATOM     21  N   UNL     1       0.905   9.519  21.156  0.00  0.00    +0.000 NA
ATOM     22  C   UNL     1       0.109  10.382  21.826  0.00  0.00    +0.000 A 
BRANCH  17  24
ATOM     23  C   UNL     1      -2.402  11.834  22.996  0.00  0.00    +0.000 C 
ATOM     24  C   UNL     1      -1.550  12.219  22.030  0.00  0.00    +0.000 C 
BRANCH  23  26
ATOM     25  O   UNL     1      -2.902  13.855  24.084  0.00  0.00    +0.000 OA
ATOM     26  C   UNL     1      -3.219  12.691  23.871  0.00  0.00    +0.000 C 
BRANCH  26  27
ATOM     27  O   UNL     1      -4.275  12.107  24.456  0.00  0.00    +0.000 OA
ATOM     28  H   UNL     1      -4.464  11.193  24.180  0.00  0.00    +0.000 HD
ENDBRANCH  26  27
ENDBRANCH  23  26
ENDBRANCH  17  24
ENDBRANCH   1  20
BRANCH   4  29
ATOM     29  O   UNL     1       4.135   5.906  17.006  0.00  0.00    +0.000 OA
ATOM     30  H   UNL     1       4.444   5.196  17.591  0.00  0.00    +0.000 HD
ENDBRANCH   4  29
TORSDOF 6
ENDMDL
MODEL 5
REMARK VINA RESULT:      -8.3      1.105      1.570
REMARK  Name = 
REMARK  6 active torsions:
REMARK  status: ('A' for Active; 'I' for Inactive)
REMARK    1  A    between atoms: C_2  and  O_3
REMARK    2  A    between atoms: C_2  and  C_4
REMARK    3  A    between atoms: C_5  and  C_6
REMARK    4  A    between atoms: C_9  and  C_10
REMARK    5  A    between atoms: C_13  and  O_14
REMARK    6  A    between atoms: C_15  and  C_16
REMARK                            x       y       z     vdW  Elec       q    Type
REMARK                         _______ _______ _______ _____ _____    ______ ____
ROOT
ATOM      1  C   UNL     1       1.677   8.470  19.401  0.00  0.00    +0.000 A 
ATOM      2  C   UNL     1       2.477   8.978  18.370  0.00  0.00    +0.000 A 
ATOM      3  C   UNL     1       3.226   8.128  17.567  0.00  0.00    +0.000 A 
ATOM      4  C   UNL     1       3.201   6.750  17.797  0.00  0.00    +0.000 A 
ATOM      5  C   UNL     1       2.451   6.183  18.842  0.00  0.00    +0.000 A 
ATOM      6  C   UNL     1       1.691   7.081  19.621  0.00  0.00    +0.000 A 
ENDROOT
BRANCH   5   7
ATOM      7  C   UNL     1       2.485   4.678  19.178  0.00  0.00    +0.000 C 
ATOM      8  C   UNL     1       1.465   4.373  20.316  0.00  0.00    +0.000 C 
ATOM      9  C   UNL     1       1.464   2.880  20.681  0.00  0.00    +0.000 C 
ATOM     10  C   UNL     1       1.065   2.058  19.449  0.00  0.00    +0.000 C 
ATOM     11  C   UNL     1       2.080   2.285  18.322  0.00  0.00    +0.000 C 
ATOM     12  C   UNL     1       3.482   1.875  18.787  0.00  0.00    +0.000 C 
ATOM     13  C   UNL     1       3.889   2.711  20.007  0.00  0.00    +0.000 C 
ATOM     14  C   UNL     1       2.874   2.473  21.138  0.00  0.00    +0.000 C 
ATOM     15  C   UNL     1       3.898   4.207  19.632  0.00  0.00    +0.000 C 
ATOM     16  C   UNL     1       2.091   3.776  17.960  0.00  0.00    +0.000 C 
ENDBRANCH   5   7
BRANCH   1  20
ATOM     17  C   UNL     1      -0.686  10.973  21.874  0.00  0.00    +0.000 A 
ATOM     18  C   UNL     1      -0.739  11.139  20.490  0.00  0.00    +0.000 A 
ATOM     19  C   UNL     1       0.019  10.320  19.662  0.00  0.00    +0.000 A 
ATOM     20  C   UNL     1       0.839   9.349  20.228  0.00  0.00    +0.000 A 
ATOM     21  N   UNL     1       0.900   9.158  21.570  0.00  0.00    +0.000 NA
ATOM     22  C   UNL     1       0.150   9.966  22.352  0.00  0.00    +0.000 A 
BRANCH  17  24
ATOM     23  C   UNL     1      -1.065  13.145  22.979  0.00  0.00    +0.000 C 
ATOM     24  C   UNL     1      -1.399  11.854  22.804  0.00  0.00    +0.000 C 
BRANCH  23  26
ATOM     25  O   UNL     1      -2.915  14.276  23.883  0.00  0.00    +0.000 OA
ATOM     26  C   UNL     1      -1.699  14.126  23.876  0.00  0.00    +0.000 C 
BRANCH  26  27
ATOM     27  O   UNL     1      -0.870  14.873  24.620  0.00  0.00    +0.000 OA
ATOM     28  H   UNL     1      -0.378  15.565  24.144  0.00  0.00    +0.000 HD
ENDBRANCH  26  27
ENDBRANCH  23  26
ENDBRANCH  17  24
ENDBRANCH   1  20
BRANCH   4  29
ATOM     29  O   UNL     1       3.948   5.948  16.979  0.00  0.00    +0.000 OA
ATOM     30  H   UNL     1       4.824   5.815  17.374  0.00  0.00    +0.000 HD
ENDBRANCH   4  29
TORSDOF 6
ENDMDL
MODEL 6
REMARK VINA RESULT:      -8.2      2.574      4.192
REMARK  Name = 
REMARK  6 active torsions:
REMARK  status: ('A' for Active; 'I' for Inactive)
REMARK    1  A    between atoms: C_2  and  O_3
REMARK    2  A    between atoms: C_2  and  C_4
REMARK    3  A    between atoms: C_5  and  C_6
REMARK    4  A    between atoms: C_9  and  C_10
REMARK    5  A    between atoms: C_13  and  O_14
REMARK    6  A    between atoms: C_15  and  C_16
REMARK                            x       y       z     vdW  Elec       q    Type
REMARK                         _______ _______ _______ _____ _____    ______ ____
ROOT
ATOM      1  C   UNL     1       1.841   6.784  20.313  0.00  0.00    +0.000 A 
ATOM      2  C   UNL     1       1.407   5.594  20.909  0.00  0.00    +0.000 A 
ATOM      3  C   UNL     1       2.111   4.410  20.729  0.00  0.00    +0.000 A 
ATOM      4  C   UNL     1       3.256   4.396  19.927  0.00  0.00    +0.000 A 
ATOM      5  C   UNL     1       3.718   5.548  19.268  0.00  0.00    +0.000 A 
ATOM      6  C   UNL     1       2.984   6.732  19.494  0.00  0.00    +0.000 A 
ENDROOT
BRANCH   5   7
ATOM      7  C   UNL     1       4.919   5.536  18.301  0.00  0.00    +0.000 C 
ATOM      8  C   UNL     1       4.876   6.804  17.397  0.00  0.00    +0.000 C 
ATOM      9  C   UNL     1       6.060   6.834  16.417  0.00  0.00    +0.000 C 
ATOM     10  C   UNL     1       7.373   6.858  17.210  0.00  0.00    +0.000 C 
ATOM     11  C   UNL     1       7.482   5.593  18.071  0.00  0.00    +0.000 C 
ATOM     12  C   UNL     1       7.436   4.346  17.182  0.00  0.00    +0.000 C 
ATOM     13  C   UNL     1       6.115   4.312  16.403  0.00  0.00    +0.000 C 
ATOM     14  C   UNL     1       6.014   5.577  15.533  0.00  0.00    +0.000 C 
ATOM     15  C   UNL     1       4.931   4.272  17.391  0.00  0.00    +0.000 C 
ATOM     16  C   UNL     1       6.297   5.554  19.045  0.00  0.00    +0.000 C 
ENDBRANCH   5   7
BRANCH   1  20
ATOM     17  C   UNL     1      -0.206  10.423  21.048  0.00  0.00    +0.000 A 
ATOM     18  C   UNL     1       0.569  10.298  19.894  0.00  0.00    +0.000 A 
ATOM     19  C   UNL     1       1.237   9.110  19.629  0.00  0.00    +0.000 A 
ATOM     20  C   UNL     1       1.138   8.056  20.533  0.00  0.00    +0.000 A 
ATOM     21  N   UNL     1       0.383   8.145  21.656  0.00  0.00    +0.000 NA
ATOM     22  C   UNL     1      -0.260   9.311  21.887  0.00  0.00    +0.000 A 
BRANCH  17  24
ATOM     23  C   UNL     1      -0.974  12.084  22.700  0.00  0.00    +0.000 C 
ATOM     24  C   UNL     1      -0.872  11.673  21.424  0.00  0.00    +0.000 C 
BRANCH  23  26
ATOM     25  O   UNL     1      -2.790  13.551  22.963  0.00  0.00    +0.000 OA
ATOM     26  C   UNL     1      -1.612  13.311  23.203  0.00  0.00    +0.000 C 
BRANCH  26  27
ATOM     27  O   UNL     1      -0.820  14.161  23.873  0.00  0.00    +0.000 OA
ATOM     28  H   UNL     1      -1.214  14.585  24.655  0.00  0.00    +0.000 HD
ENDBRANCH  26  27
ENDBRANCH  23  26
ENDBRANCH  17  24
ENDBRANCH   1  20
BRANCH   4  29
ATOM     29  O   UNL     1       3.922   3.211  19.781  0.00  0.00    +0.000 OA
ATOM     30  H   UNL     1       4.029   3.017  18.837  0.00  0.00    +0.000 HD
ENDBRANCH   4  29
TORSDOF 6
ENDMDL
MODEL 7
REMARK VINA RESULT:      -8.2      0.959      1.908
REMARK  Name = 
REMARK  6 active torsions:
REMARK  status: ('A' for Active; 'I' for Inactive)
REMARK    1  A    between atoms: C_2  and  O_3
REMARK    2  A    between atoms: C_2  and  C_4
REMARK    3  A    between atoms: C_5  and  C_6
REMARK    4  A    between atoms: C_9  and  C_10
REMARK    5  A    between atoms: C_13  and  O_14
REMARK    6  A    between atoms: C_15  and  C_16
REMARK                            x       y       z     vdW  Elec       q    Type
REMARK                         _______ _______ _______ _____ _____    ______ ____
ROOT
ATOM      1  C   UNL     1       1.695   8.539  18.952  0.00  0.00    +0.000 A 
ATOM      2  C   UNL     1       2.658   8.978  18.036  0.00  0.00    +0.000 A 
ATOM      3  C   UNL     1       3.494   8.074  17.393  0.00  0.00    +0.000 A 
ATOM      4  C   UNL     1       3.391   6.708  17.676  0.00  0.00    +0.000 A 
ATOM      5  C   UNL     1       2.474   6.210  18.616  0.00  0.00    +0.000 A 
ATOM      6  C   UNL     1       1.632   7.161  19.231  0.00  0.00    +0.000 A 
ENDROOT
BRANCH   5   7
ATOM      7  C   UNL     1       2.409   4.722  19.017  0.00  0.00    +0.000 C 
ATOM      8  C   UNL     1       3.783   4.277  19.601  0.00  0.00    +0.000 C 
ATOM      9  C   UNL     1       3.761   2.797  20.017  0.00  0.00    +0.000 C 
ATOM     10  C   UNL     1       2.694   2.591  21.100  0.00  0.00    +0.000 C 
ATOM     11  C   UNL     1       1.313   2.963  20.544  0.00  0.00    +0.000 C 
ATOM     12  C   UNL     1       0.987   2.097  19.322  0.00  0.00    +0.000 C 
ATOM     13  C   UNL     1       2.044   2.317  18.233  0.00  0.00    +0.000 C 
ATOM     14  C   UNL     1       3.426   1.934  18.791  0.00  0.00    +0.000 C 
ATOM     15  C   UNL     1       2.054   3.801  17.812  0.00  0.00    +0.000 C 
ATOM     16  C   UNL     1       1.332   4.437  20.119  0.00  0.00    +0.000 C 
ENDBRANCH   5   7
BRANCH   1  20
ATOM     17  C   UNL     1      -0.939  11.210  20.925  0.00  0.00    +0.000 A 
ATOM     18  C   UNL     1      -0.755  11.329  19.548  0.00  0.00    +0.000 A 
ATOM     19  C   UNL     1       0.095  10.455  18.881  0.00  0.00    +0.000 A 
ATOM     20  C   UNL     1       0.769   9.475  19.603  0.00  0.00    +0.000 A 
ATOM     21  N   UNL     1       0.599   9.329  20.941  0.00  0.00    +0.000 NA
ATOM     22  C   UNL     1      -0.236  10.190  21.564  0.00  0.00    +0.000 A 
BRANCH  17  24
ATOM     23  C   UNL     1      -2.232  11.855  22.923  0.00  0.00    +0.000 C 
ATOM     24  C   UNL     1      -1.759  12.147  21.699  0.00  0.00    +0.000 C 
BRANCH  23  26
ATOM     25  O   UNL     1      -2.706  13.843  24.083  0.00  0.00    +0.000 OA
ATOM     26  C   UNL     1      -3.059  12.705  23.795  0.00  0.00    +0.000 C 
BRANCH  26  27
ATOM     27  O   UNL     1      -4.169  12.141  24.295  0.00  0.00    +0.000 OA
ATOM     28  H   UNL     1      -4.655  12.668  24.953  0.00  0.00    +0.000 HD
ENDBRANCH  26  27
ENDBRANCH  23  26
ENDBRANCH  17  24
ENDBRANCH   1  20
BRANCH   4  29
ATOM     29  O   UNL     1       4.228   5.852  17.017  0.00  0.00    +0.000 OA
ATOM     30  H   UNL     1       4.060   4.945  17.317  0.00  0.00    +0.000 HD
ENDBRANCH   4  29
TORSDOF 6
ENDMDL
MODEL 8
REMARK VINA RESULT:      -8.2      2.550      4.031
REMARK  Name = 
REMARK  6 active torsions:
REMARK  status: ('A' for Active; 'I' for Inactive)
REMARK    1  A    between atoms: C_2  and  O_3
REMARK    2  A    between atoms: C_2  and  C_4
REMARK    3  A    between atoms: C_5  and  C_6
REMARK    4  A    between atoms: C_9  and  C_10
REMARK    5  A    between atoms: C_13  and  O_14
REMARK    6  A    between atoms: C_15  and  C_16
REMARK                            x       y       z     vdW  Elec       q    Type
REMARK                         _______ _______ _______ _____ _____    ______ ____
ROOT
ATOM      1  C   UNL     1       1.828   6.559  20.380  0.00  0.00    +0.000 A 
ATOM      2  C   UNL     1       1.381   5.320  20.855  0.00  0.00    +0.000 A 
ATOM      3  C   UNL     1       2.060   4.150  20.541  0.00  0.00    +0.000 A 
ATOM      4  C   UNL     1       3.193   4.201  19.724  0.00  0.00    +0.000 A 
ATOM      5  C   UNL     1       3.668   5.407  19.184  0.00  0.00    +0.000 A 
ATOM      6  C   UNL     1       2.959   6.573  19.543  0.00  0.00    +0.000 A 
ENDROOT
BRANCH   5   7
ATOM      7  C   UNL     1       4.856   5.477  18.202  0.00  0.00    +0.000 C 
ATOM      8  C   UNL     1       6.194   5.506  19.001  0.00  0.00    +0.000 C 
ATOM      9  C   UNL     1       7.406   5.573  18.058  0.00  0.00    +0.000 C 
ATOM     10  C   UNL     1       7.416   4.332  17.157  0.00  0.00    +0.000 C 
ATOM     11  C   UNL     1       6.138   4.298  16.308  0.00  0.00    +0.000 C 
ATOM     12  C   UNL     1       6.044   5.563  15.448  0.00  0.00    +0.000 C 
ATOM     13  C   UNL     1       6.016   6.803  16.351  0.00  0.00    +0.000 C 
ATOM     14  C   UNL     1       7.303   6.839  17.193  0.00  0.00    +0.000 C 
ATOM     15  C   UNL     1       4.792   6.736  17.287  0.00  0.00    +0.000 C 
ATOM     16  C   UNL     1       4.924   4.240  17.244  0.00  0.00    +0.000 C 
ENDBRANCH   5   7
BRANCH   1  20
ATOM     17  C   UNL     1      -0.097  10.213  21.332  0.00  0.00    +0.000 A 
ATOM     18  C   UNL     1      -0.317   9.097  22.140  0.00  0.00    +0.000 A 
ATOM     19  C   UNL     1       0.314   7.894  21.852  0.00  0.00    +0.000 A 
ATOM     20  C   UNL     1       1.152   7.812  20.743  0.00  0.00    +0.000 A 
ATOM     21  N   UNL     1       1.393   8.884  19.948  0.00  0.00    +0.000 NA
ATOM     22  C   UNL     1       0.769  10.043  20.254  0.00  0.00    +0.000 A 
BRANCH  17  24
ATOM     23  C   UNL     1      -0.961  12.033  22.754  0.00  0.00    +0.000 C 
ATOM     24  C   UNL     1      -0.792  11.487  21.536  0.00  0.00    +0.000 C 
BRANCH  23  26
ATOM     25  O   UNL     1      -2.753  13.549  22.654  0.00  0.00    +0.000 OA
ATOM     26  C   UNL     1      -1.635  13.299  23.088  0.00  0.00    +0.000 C 
BRANCH  26  27
ATOM     27  O   UNL     1      -0.932  14.168  23.830  0.00  0.00    +0.000 OA
ATOM     28  H   UNL     1      -0.148  13.807  24.279  0.00  0.00    +0.000 HD
ENDBRANCH  26  27
ENDBRANCH  23  26
ENDBRANCH  17  24
ENDBRANCH   1  20
BRANCH   4  29
ATOM     29  O   UNL     1       3.836   3.027  19.445  0.00  0.00    +0.000 OA
ATOM     30  H   UNL     1       4.774   3.111  19.677  0.00  0.00    +0.000 HD
ENDBRANCH   4  29
TORSDOF 6
ENDMDL
MODEL 9
REMARK VINA RESULT:      -8.1      2.557      4.005
REMARK  Name = 
REMARK  6 active torsions:
REMARK  status: ('A' for Active; 'I' for Inactive)
REMARK    1  A    between atoms: C_2  and  O_3
REMARK    2  A    between atoms: C_2  and  C_4
REMARK    3  A    between atoms: C_5  and  C_6
REMARK    4  A    between atoms: C_9  and  C_10
REMARK    5  A    between atoms: C_13  and  O_14
REMARK    6  A    between atoms: C_15  and  C_16
REMARK                            x       y       z     vdW  Elec       q    Type
REMARK                         _______ _______ _______ _____ _____    ______ ____
ROOT
ATOM      1  C   UNL     1       1.856   6.608  20.334  0.00  0.00    +0.000 A 
ATOM      2  C   UNL     1       1.440   5.382  20.868  0.00  0.00    +0.000 A 
ATOM      3  C   UNL     1       2.158   4.219  20.622  0.00  0.00    +0.000 A 
ATOM      4  C   UNL     1       3.299   4.262  19.816  0.00  0.00    +0.000 A 
ATOM      5  C   UNL     1       3.743   5.453  19.217  0.00  0.00    +0.000 A 
ATOM      6  C   UNL     1       2.995   6.614  19.509  0.00  0.00    +0.000 A 
ENDROOT
BRANCH   5   7
ATOM      7  C   UNL     1       4.940   5.509  18.245  0.00  0.00    +0.000 C 
ATOM      8  C   UNL     1       4.916   4.260  17.314  0.00  0.00    +0.000 C 
ATOM      9  C   UNL     1       6.093   4.276  16.326  0.00  0.00    +0.000 C 
ATOM     10  C   UNL     1       5.997   5.529  15.446  0.00  0.00    +0.000 C 
ATOM     11  C   UNL     1       6.076   6.786  16.321  0.00  0.00    +0.000 C 
ATOM     12  C   UNL     1       7.394   6.801  17.102  0.00  0.00    +0.000 C 
ATOM     13  C   UNL     1       7.482   5.557  17.996  0.00  0.00    +0.000 C 
ATOM     14  C   UNL     1       7.412   4.299  17.113  0.00  0.00    +0.000 C 
ATOM     15  C   UNL     1       6.305   5.551  18.993  0.00  0.00    +0.000 C 
ATOM     16  C   UNL     1       4.908   6.769  17.316  0.00  0.00    +0.000 C 
ENDBRANCH   5   7
BRANCH   1  20
ATOM     17  C   UNL     1      -0.243  10.170  21.267  0.00  0.00    +0.000 A 
ATOM     18  C   UNL     1       0.618  10.155  20.170  0.00  0.00    +0.000 A 
ATOM     19  C   UNL     1       1.306   8.994  19.841  0.00  0.00    +0.000 A 
ATOM     20  C   UNL     1       1.137   7.856  20.625  0.00  0.00    +0.000 A 
ATOM     21  N   UNL     1       0.297   7.839  21.689  0.00  0.00    +0.000 NA
ATOM     22  C   UNL     1      -0.362   8.982  21.985  0.00  0.00    +0.000 A 
BRANCH  17  24
ATOM     23  C   UNL     1      -1.471  11.500  22.941  0.00  0.00    +0.000 C 
ATOM     24  C   UNL     1      -0.936  11.383  21.713  0.00  0.00    +0.000 C 
BRANCH  23  26
ATOM     25  O   UNL     1      -1.624  13.738  23.639  0.00  0.00    +0.000 OA
ATOM     26  C   UNL     1      -2.186  12.657  23.505  0.00  0.00    +0.000 C 
BRANCH  26  27
ATOM     27  O   UNL     1      -3.444  12.437  23.913  0.00  0.00    +0.000 OA
ATOM     28  H   UNL     1      -4.092  12.249  23.212  0.00  0.00    +0.000 HD
ENDBRANCH  26  27
ENDBRANCH  23  26
ENDBRANCH  17  24
ENDBRANCH   1  20
BRANCH   4  29
ATOM     29  O   UNL     1       3.980   3.096  19.604  0.00  0.00    +0.000 OA
ATOM     30  H   UNL     1       4.406   2.818  20.430  0.00  0.00    +0.000 HD
ENDBRANCH   4  29
TORSDOF 6
ENDMDL
