MODEL 1
REMARK VINA RESULT:      -7.9      0.000      0.000
REMARK  Name = 
REMARK  9 active torsions:
REMARK  status: ('A' for Active; 'I' for Inactive)
REMARK    1  A    between atoms: C_1  and  C_2
REMARK    2  A    between atoms: C_2  and  O_3
REMARK    3  A    between atoms: O_3  and  C_4
REMARK    4  A    between atoms: C_4  and  C_6
REMARK    5  A    between atoms: C_9  and  N_10
REMARK    6  A    between atoms: C_11  and  C_13
REMARK    7  A    between atoms: C_13  and  S_14
REMARK    8  A    between atoms: S_14  and  C_15
REMARK    9  A    between atoms: C_20  and  C_21
REMARK                            x       y       z     vdW  Elec       q    Type
REMARK                         _______ _______ _______ _____ _____    ______ ____
ROOT
ATOM      1  N   UNL     1       2.436   4.739  19.645  0.00  0.00    +0.000 N 
ATOM      2  C   UNL     1       1.818   3.726  18.935  0.00  0.00    +0.000 C 
ATOM      3  O   UNL     1       0.998   3.870  18.031  0.00  0.00    +0.000 OA
ATOM      4  H   UNL     1       3.251   4.488  20.200  0.00  0.00    +0.000 HD
ENDROOT
BRANCH   1   8
ATOM      5  C   UNL     1       1.653   8.843  19.075  0.00  0.00    +0.000 A 
ATOM      6  C   UNL     1       1.415   8.265  20.324  0.00  0.00    +0.000 A 
ATOM      7  C   UNL     1       1.680   6.911  20.536  0.00  0.00    +0.000 A 
ATOM      8  C   UNL     1       2.187   6.118  19.506  0.00  0.00    +0.000 A 
ATOM      9  C   UNL     1       2.467   6.707  18.267  0.00  0.00    +0.000 A 
ATOM     10  C   UNL     1       2.189   8.061  18.046  0.00  0.00    +0.000 A 
BRANCH   5  11
ATOM     11  C   UNL     1       1.251  10.263  18.891  0.00  0.00    +0.000 C 
ATOM     12  O   UNL     1       1.960  11.093  18.341  0.00  0.00    +0.000 OA
BRANCH  11  13
ATOM     13  O   UNL     1       0.067  10.499  19.501  0.00  0.00    +0.000 OA
BRANCH  13  15
ATOM     14  C   UNL     1      -1.444  10.103  17.692  0.00  0.00    +0.000 C 
ATOM     15  C   UNL     1      -0.921  11.134  18.674  0.00  0.00    +0.000 C 
ENDBRANCH  13  15
ENDBRANCH  11  13
ENDBRANCH   5  11
ENDBRANCH   1   8
BRANCH   2  16
ATOM     16  C   UNL     1       2.270   2.337  19.343  0.00  0.00    +0.000 C 
BRANCH  16  17
ATOM     17  S   UNL     1       3.644   1.786  18.315  0.00  0.00    +0.000 S 
BRANCH  17  18
ATOM     18  C   UNL     1       4.549   3.236  18.051  0.00  0.00    +0.000 A 
ATOM     19  N   UNL     1       5.362   3.797  18.893  0.00  0.00    +0.000 NA
ATOM     20  N   UNL     1       5.923   4.904  18.270  0.00  0.00    +0.000 N 
ATOM     21  C   UNL     1       6.834   5.729  18.886  0.00  0.00    +0.000 A 
ATOM     22  O   UNL     1       7.207   5.663  20.051  0.00  0.00    +0.000 OA
ATOM     23  C   UNL     1       7.381   6.799  17.958  0.00  0.00    +0.000 A 
ATOM     24  C   UNL     1       8.460   7.714  18.468  0.00  0.00    +0.000 C 
ATOM     25  N   UNL     1       6.981   6.934  16.729  0.00  0.00    +0.000 NA
ATOM     26  N   UNL     1       5.995   6.075  16.220  0.00  0.00    +0.000 NA
ATOM     27  C   UNL     1       5.546   5.141  16.981  0.00  0.00    +0.000 A 
ATOM     28  S   UNL     1       4.363   3.985  16.488  0.00  0.00    +0.000 S 
ENDBRANCH  17  18
ENDBRANCH  16  17
ENDBRANCH   2  16
TORSDOF 7
ENDMDL
MODEL 2
REMARK VINA RESULT:      -7.6      1.066      1.433
REMARK  Name = 
REMARK  9 active torsions:
REMARK  status: ('A' for Active; 'I' for Inactive)
REMARK    1  A    between atoms: C_1  and  C_2
REMARK    2  A    between atoms: C_2  and  O_3
REMARK    3  A    between atoms: O_3  and  C_4
REMARK    4  A    between atoms: C_4  and  C_6
REMARK    5  A    between atoms: C_9  and  N_10
REMARK    6  A    between atoms: C_11  and  C_13
REMARK    7  A    between atoms: C_13  and  S_14
REMARK    8  A    between atoms: S_14  and  C_15
REMARK    9  A    between atoms: C_20  and  C_21
REMARK                            x       y       z     vdW  Elec       q    Type
REMARK                         _______ _______ _______ _____ _____    ______ ____
ROOT
ATOM      1  N   UNL     1       2.461   5.404  20.729  0.00  0.00    +0.000 N 
ATOM      2  C   UNL     1       1.722   4.237  20.686  0.00  0.00    +0.000 C 
ATOM      3  O   UNL     1       0.593   4.110  20.218  0.00  0.00    +0.000 OA
ATOM      4  H   UNL     1       3.454   5.319  20.933  0.00  0.00    +0.000 HD
ENDROOT
BRANCH   1   8
ATOM      5  C   UNL     1       1.176   9.261  19.608  0.00  0.00    +0.000 A 
ATOM      6  C   UNL     1       1.900   8.486  18.699  0.00  0.00    +0.000 A 
ATOM      7  C   UNL     1       2.323   7.203  19.046  0.00  0.00    +0.000 A 
ATOM      8  C   UNL     1       2.028   6.675  20.304  0.00  0.00    +0.000 A 
ATOM      9  C   UNL     1       1.265   7.434  21.200  0.00  0.00    +0.000 A 
ATOM     10  C   UNL     1       0.852   8.727  20.861  0.00  0.00    +0.000 A 
BRANCH   5  11
ATOM     11  C   UNL     1       0.848  10.655  19.210  0.00  0.00    +0.000 C 
ATOM     12  O   UNL     1       1.681  11.445  18.787  0.00  0.00    +0.000 OA
BRANCH  11  13
ATOM     13  O   UNL     1      -0.449  10.929  19.479  0.00  0.00    +0.000 OA
BRANCH  13  15
ATOM     14  C   UNL     1      -1.735  10.228  17.590  0.00  0.00    +0.000 C 
ATOM     15  C   UNL     1      -1.206  11.421  18.363  0.00  0.00    +0.000 C 
ENDBRANCH  13  15
ENDBRANCH  11  13
ENDBRANCH   5  11
ENDBRANCH   1   8
BRANCH   2  16
ATOM     16  C   UNL     1       2.450   3.036  21.259  0.00  0.00    +0.000 C 
BRANCH  16  17
ATOM     17  S   UNL     1       3.378   2.181  19.972  0.00  0.00    +0.000 S 
BRANCH  17  18
ATOM     18  C   UNL     1       4.185   3.466  19.143  0.00  0.00    +0.000 A 
ATOM     19  N   UNL     1       5.208   4.136  19.576  0.00  0.00    +0.000 NA
ATOM     20  N   UNL     1       5.581   5.034  18.585  0.00  0.00    +0.000 N 
ATOM     21  C   UNL     1       6.637   5.904  18.722  0.00  0.00    +0.000 A 
ATOM     22  O   UNL     1       7.324   6.067  19.723  0.00  0.00    +0.000 OA
ATOM     23  C   UNL     1       6.909   6.701  17.458  0.00  0.00    +0.000 A 
ATOM     24  C   UNL     1       8.098   7.622  17.427  0.00  0.00    +0.000 C 
ATOM     25  N   UNL     1       6.179   6.592  16.388  0.00  0.00    +0.000 NA
ATOM     26  N   UNL     1       5.081   5.719  16.381  0.00  0.00    +0.000 NA
ATOM     27  C   UNL     1       4.857   5.011  17.431  0.00  0.00    +0.000 A 
ATOM     28  S   UNL     1       3.571   3.866  17.561  0.00  0.00    +0.000 S 
ENDBRANCH  17  18
ENDBRANCH  16  17
ENDBRANCH   2  16
TORSDOF 7
ENDMDL
MODEL 3
REMARK VINA RESULT:      -7.4      1.364      1.711
REMARK  Name = 
REMARK  9 active torsions:
REMARK  status: ('A' for Active; 'I' for Inactive)
REMARK    1  A    between atoms: C_1  and  C_2
REMARK    2  A    between atoms: C_2  and  O_3
REMARK    3  A    between atoms: O_3  and  C_4
REMARK    4  A    between atoms: C_4  and  C_6
REMARK    5  A    between atoms: C_9  and  N_10
REMARK    6  A    between atoms: C_11  and  C_13
REMARK    7  A    between atoms: C_13  and  S_14
REMARK    8  A    between atoms: S_14  and  C_15
REMARK    9  A    between atoms: C_20  and  C_21
REMARK                            x       y       z     vdW  Elec       q    Type
REMARK                         _______ _______ _______ _____ _____    ______ ____
ROOT
ATOM      1  N   UNL     1       2.505   5.352  20.737  0.00  0.00    +0.000 N 
ATOM      2  C   UNL     1       1.768   4.185  20.644  0.00  0.00    +0.000 C 
ATOM      3  O   UNL     1       0.621   4.084  20.215  0.00  0.00    +0.000 OA
ATOM      4  H   UNL     1       3.506   5.259  20.893  0.00  0.00    +0.000 HD
ENDROOT
BRANCH   1   8
ATOM      5  C   UNL     1       1.130   9.182  19.631  0.00  0.00    +0.000 A 
ATOM      6  C   UNL     1       0.827   8.682  20.900  0.00  0.00    +0.000 A 
ATOM      7  C   UNL     1       1.284   7.423  21.289  0.00  0.00    +0.000 A 
ATOM      8  C   UNL     1       2.050   6.646  20.419  0.00  0.00    +0.000 A 
ATOM      9  C   UNL     1       2.390   7.164  19.163  0.00  0.00    +0.000 A 
ATOM     10  C   UNL     1       1.922   8.421  18.764  0.00  0.00    +0.000 A 
BRANCH   5  11
ATOM     11  C   UNL     1       0.525  10.484  19.247  0.00  0.00    +0.000 C 
ATOM     12  O   UNL     1      -0.260  10.609  18.317  0.00  0.00    +0.000 OA
BRANCH  11  13
ATOM     13  O   UNL     1       1.043  11.483  19.995  0.00  0.00    +0.000 OA
BRANCH  13  15
ATOM     14  C   UNL     1       2.389  13.442  20.256  0.00  0.00    +0.000 C 
ATOM     15  C   UNL     1       1.818  12.446  19.264  0.00  0.00    +0.000 C 
ENDBRANCH  13  15
ENDBRANCH  11  13
ENDBRANCH   5  11
ENDBRANCH   1   8
BRANCH   2  16
ATOM     16  C   UNL     1       2.524   2.952  21.101  0.00  0.00    +0.000 C 
BRANCH  16  17
ATOM     17  S   UNL     1       3.371   2.173  19.714  0.00  0.00    +0.000 S 
BRANCH  17  18
ATOM     18  C   UNL     1       4.167   3.498  18.939  0.00  0.00    +0.000 A 
ATOM     19  N   UNL     1       5.209   4.133  19.382  0.00  0.00    +0.000 NA
ATOM     20  N   UNL     1       5.563   5.085  18.435  0.00  0.00    +0.000 N 
ATOM     21  C   UNL     1       6.630   5.936  18.592  0.00  0.00    +0.000 A 
ATOM     22  O   UNL     1       7.347   6.034  19.581  0.00  0.00    +0.000 OA
ATOM     23  C   UNL     1       6.875   6.803  17.370  0.00  0.00    +0.000 A 
ATOM     24  C   UNL     1       8.071   7.715  17.359  0.00  0.00    +0.000 C 
ATOM     25  N   UNL     1       6.115   6.764  16.317  0.00  0.00    +0.000 NA
ATOM     26  N   UNL     1       5.008   5.902  16.290  0.00  0.00    +0.000 NA
ATOM     27  C   UNL     1       4.806   5.135  17.302  0.00  0.00    +0.000 A 
ATOM     28  S   UNL     1       3.513   3.995  17.402  0.00  0.00    +0.000 S 
ENDBRANCH  17  18
ENDBRANCH  16  17
ENDBRANCH   2  16
TORSDOF 7
ENDMDL
MODEL 4
REMARK VINA RESULT:      -7.2      2.373      2.989
REMARK  Name = 
REMARK  9 active torsions:
REMARK  status: ('A' for Active; 'I' for Inactive)
REMARK    1  A    between atoms: C_1  and  C_2
REMARK    2  A    between atoms: C_2  and  O_3
REMARK    3  A    between atoms: O_3  and  C_4
REMARK    4  A    between atoms: C_4  and  C_6
REMARK    5  A    between atoms: C_9  and  N_10
REMARK    6  A    between atoms: C_11  and  C_13
REMARK    7  A    between atoms: C_13  and  S_14
REMARK    8  A    between atoms: S_14  and  C_15
REMARK    9  A    between atoms: C_20  and  C_21
REMARK                            x       y       z     vdW  Elec       q    Type
REMARK                         _______ _______ _______ _____ _____    ______ ____
ROOT
ATOM      1  N   UNL     1       2.681   6.845  19.894  0.00  0.00    +0.000 N 
ATOM      2  C   UNL     1       2.549   5.625  19.255  0.00  0.00    +0.000 C 
ATOM      3  O   UNL     1       1.775   5.368  18.336  0.00  0.00    +0.000 OA
ATOM      4  H   UNL     1       3.507   6.980  20.472  0.00  0.00    +0.000 HD
ENDROOT
BRANCH   1   8
ATOM      5  C   UNL     1       0.344  10.243  19.014  0.00  0.00    +0.000 A 
ATOM      6  C   UNL     1       0.265   9.664  20.282  0.00  0.00    +0.000 A 
ATOM      7  C   UNL     1       1.040   8.547  20.597  0.00  0.00    +0.000 A 
ATOM      8  C   UNL     1       1.905   7.995  19.651  0.00  0.00    +0.000 A 
ATOM      9  C   UNL     1       2.017   8.601  18.394  0.00  0.00    +0.000 A 
ATOM     10  C   UNL     1       1.231   9.712  18.070  0.00  0.00    +0.000 A 
BRANCH   5  11
ATOM     11  C   UNL     1      -0.584  11.365  18.715  0.00  0.00    +0.000 C 
ATOM     12  O   UNL     1      -0.207  12.513  18.524  0.00  0.00    +0.000 OA
BRANCH  11  13
ATOM     13  O   UNL     1      -1.868  10.947  18.790  0.00  0.00    +0.000 OA
BRANCH  13  15
ATOM     14  C   UNL     1      -2.574  10.876  16.508  0.00  0.00    +0.000 C 
ATOM     15  C   UNL     1      -2.273  10.050  17.744  0.00  0.00    +0.000 C 
ENDBRANCH  13  15
ENDBRANCH  11  13
ENDBRANCH   5  11
ENDBRANCH   1   8
BRANCH   2  16
ATOM     16  C   UNL     1       3.505   4.565  19.769  0.00  0.00    +0.000 C 
BRANCH  16  17
ATOM     17  S   UNL     1       3.592   3.177  18.622  0.00  0.00    +0.000 S 
BRANCH  17  18
ATOM     18  C   UNL     1       4.744   3.704  17.446  0.00  0.00    +0.000 A 
ATOM     19  N   UNL     1       4.708   3.459  16.172  0.00  0.00    +0.000 NA
ATOM     20  N   UNL     1       5.783   4.110  15.582  0.00  0.00    +0.000 N 
ATOM     21  C   UNL     1       6.041   4.057  14.233  0.00  0.00    +0.000 A 
ATOM     22  O   UNL     1       5.439   3.390  13.399  0.00  0.00    +0.000 OA
ATOM     23  C   UNL     1       7.204   4.942  13.821  0.00  0.00    +0.000 A 
ATOM     24  C   UNL     1       7.540   5.061  12.360  0.00  0.00    +0.000 C 
ATOM     25  N   UNL     1       7.899   5.631  14.677  0.00  0.00    +0.000 NA
ATOM     26  N   UNL     1       7.589   5.560  16.043  0.00  0.00    +0.000 NA
ATOM     27  C   UNL     1       6.585   4.842  16.405  0.00  0.00    +0.000 A 
ATOM     28  S   UNL     1       6.056   4.686  18.041  0.00  0.00    +0.000 S 
ENDBRANCH  17  18
ENDBRANCH  16  17
ENDBRANCH   2  16
TORSDOF 7
ENDMDL
MODEL 5
REMARK VINA RESULT:      -7.2      1.389      1.861
REMARK  Name = 
REMARK  9 active torsions:
REMARK  status: ('A' for Active; 'I' for Inactive)
REMARK    1  A    between atoms: C_1  and  C_2
REMARK    2  A    between atoms: C_2  and  O_3
REMARK    3  A    between atoms: O_3  and  C_4
REMARK    4  A    between atoms: C_4  and  C_6
REMARK    5  A    between atoms: C_9  and  N_10
REMARK    6  A    between atoms: C_11  and  C_13
REMARK    7  A    between atoms: C_13  and  S_14
REMARK    8  A    between atoms: S_14  and  C_15
REMARK    9  A    between atoms: C_20  and  C_21
REMARK                            x       y       z     vdW  Elec       q    Type
REMARK                         _______ _______ _______ _____ _____    ______ ____
ROOT
ATOM      1  N   UNL     1       2.549   5.238  20.658  0.00  0.00    +0.000 N 
ATOM      2  C   UNL     1       1.811   4.070  20.591  0.00  0.00    +0.000 C 
ATOM      3  O   UNL     1       0.653   3.966  20.192  0.00  0.00    +0.000 OA
ATOM      4  H   UNL     1       3.554   5.147  20.790  0.00  0.00    +0.000 HD
ENDROOT
BRANCH   1   8
ATOM      5  C   UNL     1       1.174   9.147  19.875  0.00  0.00    +0.000 A 
ATOM      6  C   UNL     1       1.895   8.462  18.894  0.00  0.00    +0.000 A 
ATOM      7  C   UNL     1       2.347   7.163  19.129  0.00  0.00    +0.000 A 
ATOM      8  C   UNL     1       2.085   6.530  20.345  0.00  0.00    +0.000 A 
ATOM      9  C   UNL     1       1.325   7.200  21.311  0.00  0.00    +0.000 A 
ATOM     10  C   UNL     1       0.882   8.508  21.085  0.00  0.00    +0.000 A 
BRANCH   5  11
ATOM     11  C   UNL     1       0.813  10.562  19.596  0.00  0.00    +0.000 C 
ATOM     12  O   UNL     1       0.609  10.991  18.469  0.00  0.00    +0.000 OA
BRANCH  11  13
ATOM     13  O   UNL     1       0.850  11.290  20.735  0.00  0.00    +0.000 OA
BRANCH  13  15
ATOM     14  C   UNL     1       0.441  13.642  20.853  0.00  0.00    +0.000 C 
ATOM     15  C   UNL     1       1.488  12.571  20.612  0.00  0.00    +0.000 C 
ENDBRANCH  13  15
ENDBRANCH  11  13
ENDBRANCH   5  11
ENDBRANCH   1   8
BRANCH   2  16
ATOM     16  C   UNL     1       2.580   2.841  21.036  0.00  0.00    +0.000 C 
BRANCH  16  17
ATOM     17  S   UNL     1       3.457   2.100  19.646  0.00  0.00    +0.000 S 
BRANCH  17  18
ATOM     18  C   UNL     1       4.228   3.454  18.897  0.00  0.00    +0.000 A 
ATOM     19  N   UNL     1       5.265   4.092  19.345  0.00  0.00    +0.000 NA
ATOM     20  N   UNL     1       5.598   5.071  18.418  0.00  0.00    +0.000 N 
ATOM     21  C   UNL     1       6.656   5.933  18.586  0.00  0.00    +0.000 A 
ATOM     22  O   UNL     1       7.380   6.017  19.571  0.00  0.00    +0.000 OA
ATOM     23  C   UNL     1       6.878   6.832  17.383  0.00  0.00    +0.000 A 
ATOM     24  C   UNL     1       8.062   7.759  17.384  0.00  0.00    +0.000 C 
ATOM     25  N   UNL     1       6.109   6.807  16.336  0.00  0.00    +0.000 NA
ATOM     26  N   UNL     1       5.014   5.931  16.298  0.00  0.00    +0.000 NA
ATOM     27  C   UNL     1       4.831   5.138  17.294  0.00  0.00    +0.000 A 
ATOM     28  S   UNL     1       3.555   3.979  17.377  0.00  0.00    +0.000 S 
ENDBRANCH  17  18
ENDBRANCH  16  17
ENDBRANCH   2  16
TORSDOF 7
ENDMDL
MODEL 6
REMARK VINA RESULT:      -7.1      2.335      2.945
REMARK  Name = 
REMARK  9 active torsions:
REMARK  status: ('A' for Active; 'I' for Inactive)
REMARK    1  A    between atoms: C_1  and  C_2
REMARK    2  A    between atoms: C_2  and  O_3
REMARK    3  A    between atoms: O_3  and  C_4
REMARK    4  A    between atoms: C_4  and  C_6
REMARK    5  A    between atoms: C_9  and  N_10
REMARK    6  A    between atoms: C_11  and  C_13
REMARK    7  A    between atoms: C_13  and  S_14
REMARK    8  A    between atoms: S_14  and  C_15
REMARK    9  A    between atoms: C_20  and  C_21
REMARK                            x       y       z     vdW  Elec       q    Type
REMARK                         _______ _______ _______ _____ _____    ______ ____
ROOT
ATOM      1  N   UNL     1       2.948   6.328  19.769  0.00  0.00    +0.000 N 
ATOM      2  C   UNL     1       2.550   5.051  19.421  0.00  0.00    +0.000 C 
ATOM      3  O   UNL     1       1.503   4.746  18.854  0.00  0.00    +0.000 OA
ATOM      4  H   UNL     1       3.925   6.459  20.023  0.00  0.00    +0.000 HD
ENDROOT
BRANCH   1   8
ATOM      5  C   UNL     1       0.727   9.894  19.406  0.00  0.00    +0.000 A 
ATOM      6  C   UNL     1       1.395   9.384  18.290  0.00  0.00    +0.000 A 
ATOM      7  C   UNL     1       2.125   8.199  18.388  0.00  0.00    +0.000 A 
ATOM      8  C   UNL     1       2.195   7.506  19.597  0.00  0.00    +0.000 A 
ATOM      9  C   UNL     1       1.490   7.994  20.703  0.00  0.00    +0.000 A 
ATOM     10  C   UNL     1       0.769   9.189  20.614  0.00  0.00    +0.000 A 
BRANCH   5  11
ATOM     11  C   UNL     1       0.056  11.212  19.257  0.00  0.00    +0.000 C 
ATOM     12  O   UNL     1       0.641  12.279  19.379  0.00  0.00    +0.000 OA
BRANCH  11  13
ATOM     13  O   UNL     1      -1.274  11.046  19.077  0.00  0.00    +0.000 OA
BRANCH  13  15
ATOM     14  C   UNL     1      -2.923  10.774  17.368  0.00  0.00    +0.000 C 
ATOM     15  C   UNL     1      -1.803  11.654  17.889  0.00  0.00    +0.000 C 
ENDBRANCH  13  15
ENDBRANCH  11  13
ENDBRANCH   5  11
ENDBRANCH   1   8
BRANCH   2  16
ATOM     16  C   UNL     1       3.567   3.981  19.774  0.00  0.00    +0.000 C 
BRANCH  16  17
ATOM     17  S   UNL     1       3.665   2.741  18.469  0.00  0.00    +0.000 S 
BRANCH  17  18
ATOM     18  C   UNL     1       4.798   3.425  17.357  0.00  0.00    +0.000 A 
ATOM     19  N   UNL     1       4.859   3.190  16.082  0.00  0.00    +0.000 NA
ATOM     20  N   UNL     1       5.870   3.980  15.550  0.00  0.00    +0.000 N 
ATOM     21  C   UNL     1       6.201   3.975  14.216  0.00  0.00    +0.000 A 
ATOM     22  O   UNL     1       5.733   3.246  13.350  0.00  0.00    +0.000 OA
ATOM     23  C   UNL     1       7.260   5.006  13.869  0.00  0.00    +0.000 A 
ATOM     24  C   UNL     1       7.652   5.182  12.428  0.00  0.00    +0.000 C 
ATOM     25  N   UNL     1       7.816   5.769  14.762  0.00  0.00    +0.000 NA
ATOM     26  N   UNL     1       7.449   5.644  16.110  0.00  0.00    +0.000 NA
ATOM     27  C   UNL     1       6.529   4.800  16.417  0.00  0.00    +0.000 A 
ATOM     28  S   UNL     1       5.942   4.560  18.022  0.00  0.00    +0.000 S 
ENDBRANCH  17  18
ENDBRANCH  16  17
ENDBRANCH   2  16
TORSDOF 7
ENDMDL
MODEL 7
REMARK VINA RESULT:      -7.0      6.312     10.460
REMARK  Name = 
REMARK  9 active torsions:
REMARK  status: ('A' for Active; 'I' for Inactive)
REMARK    1  A    between atoms: C_1  and  C_2
REMARK    2  A    between atoms: C_2  and  O_3
REMARK    3  A    between atoms: O_3  and  C_4
REMARK    4  A    between atoms: C_4  and  C_6
REMARK    5  A    between atoms: C_9  and  N_10
REMARK    6  A    between atoms: C_11  and  C_13
REMARK    7  A    between atoms: C_13  and  S_14
REMARK    8  A    between atoms: S_14  and  C_15
REMARK    9  A    between atoms: C_20  and  C_21
REMARK                            x       y       z     vdW  Elec       q    Type
REMARK                         _______ _______ _______ _____ _____    ______ ____
ROOT
ATOM      1  N   UNL     1       0.280  10.642  19.128  0.00  0.00    +0.000 N 
ATOM      2  C   UNL     1      -0.859  10.876  18.379  0.00  0.00    +0.000 C 
ATOM      3  O   UNL     1      -1.367  10.103  17.569  0.00  0.00    +0.000 OA
ATOM      4  H   UNL     1       0.456  11.263  19.913  0.00  0.00    +0.000 HD
ENDROOT
BRANCH   1   8
ATOM      5  C   UNL     1       2.642   7.151  18.989  0.00  0.00    +0.000 A 
ATOM      6  C   UNL     1       2.589   7.991  17.874  0.00  0.00    +0.000 A 
ATOM      7  C   UNL     1       1.824   9.157  17.905  0.00  0.00    +0.000 A 
ATOM      8  C   UNL     1       1.103   9.502  19.049  0.00  0.00    +0.000 A 
ATOM      9  C   UNL     1       1.189   8.684  20.181  0.00  0.00    +0.000 A 
ATOM     10  C   UNL     1       1.944   7.506  20.150  0.00  0.00    +0.000 A 
BRANCH   5  11
ATOM     11  C   UNL     1       3.392   5.876  18.851  0.00  0.00    +0.000 C 
ATOM     12  O   UNL     1       4.272   5.529  19.627  0.00  0.00    +0.000 OA
BRANCH  11  13
ATOM     13  O   UNL     1       3.031   5.238  17.714  0.00  0.00    +0.000 OA
BRANCH  13  15
ATOM     14  C   UNL     1       2.376   2.944  17.580  0.00  0.00    +0.000 C 
ATOM     15  C   UNL     1       1.903   4.360  17.847  0.00  0.00    +0.000 C 
ENDBRANCH  13  15
ENDBRANCH  11  13
ENDBRANCH   5  11
ENDBRANCH   1   8
BRANCH   2  16
ATOM     16  C   UNL     1      -1.506  12.219  18.662  0.00  0.00    +0.000 C 
BRANCH  16  17
ATOM     17  S   UNL     1      -0.796  12.968  20.140  0.00  0.00    +0.000 S 
BRANCH  17  18
ATOM     18  C   UNL     1      -2.093  12.903  21.280  0.00  0.00    +0.000 A 
ATOM     19  N   UNL     1      -3.299  13.346  21.098  0.00  0.00    +0.000 NA
ATOM     20  N   UNL     1      -4.041  13.047  22.233  0.00  0.00    +0.000 N 
ATOM     21  C   UNL     1      -5.367  13.380  22.371  0.00  0.00    +0.000 A 
ATOM     22  O   UNL     1      -6.041  14.034  21.585  0.00  0.00    +0.000 OA
ATOM     23  C   UNL     1      -5.978  12.844  23.653  0.00  0.00    +0.000 A 
ATOM     24  C   UNL     1      -7.449  13.047  23.892  0.00  0.00    +0.000 C 
ATOM     25  N   UNL     1      -5.290  12.183  24.536  0.00  0.00    +0.000 NA
ATOM     26  N   UNL     1      -3.922  11.955  24.324  0.00  0.00    +0.000 NA
ATOM     27  C   UNL     1      -3.396  12.373  23.228  0.00  0.00    +0.000 A 
ATOM     28  S   UNL     1      -1.739  12.136  22.805  0.00  0.00    +0.000 S 
ENDBRANCH  17  18
ENDBRANCH  16  17
ENDBRANCH   2  16
TORSDOF 7
ENDMDL
MODEL 8
REMARK VINA RESULT:      -6.8      2.408      2.963
REMARK  Name = 
REMARK  9 active torsions:
REMARK  status: ('A' for Active; 'I' for Inactive)
REMARK    1  A    between atoms: C_1  and  C_2
REMARK    2  A    between atoms: C_2  and  O_3
REMARK    3  A    between atoms: O_3  and  C_4
REMARK    4  A    between atoms: C_4  and  C_6
REMARK    5  A    between atoms: C_9  and  N_10
REMARK    6  A    between atoms: C_11  and  C_13
REMARK    7  A    between atoms: C_13  and  S_14
REMARK    8  A    between atoms: S_14  and  C_15
REMARK    9  A    between atoms: C_20  and  C_21
REMARK                            x       y       z     vdW  Elec       q    Type
REMARK                         _______ _______ _______ _____ _____    ______ ____
ROOT
ATOM      1  N   UNL     1       2.958   6.153  19.466  0.00  0.00    +0.000 N 
ATOM      2  C   UNL     1       2.432   4.928  19.835  0.00  0.00    +0.000 C 
ATOM      3  O   UNL     1       1.255   4.695  20.099  0.00  0.00    +0.000 OA
ATOM      4  H   UNL     1       3.891   6.155  19.060  0.00  0.00    +0.000 HD
ENDROOT
BRANCH   1   8
ATOM      5  C   UNL     1       0.791   9.751  19.091  0.00  0.00    +0.000 A 
ATOM      6  C   UNL     1       0.950   9.172  20.352  0.00  0.00    +0.000 A 
ATOM      7  C   UNL     1       1.674   7.988  20.498  0.00  0.00    +0.000 A 
ATOM      8  C   UNL     1       2.252   7.369  19.390  0.00  0.00    +0.000 A 
ATOM      9  C   UNL     1       2.130   7.972  18.132  0.00  0.00    +0.000 A 
ATOM     10  C   UNL     1       1.392   9.151  17.979  0.00  0.00    +0.000 A 
BRANCH   5  11
ATOM     11  C   UNL     1      -0.078  10.953  18.995  0.00  0.00    +0.000 C 
ATOM     12  O   UNL     1      -1.297  10.894  18.916  0.00  0.00    +0.000 OA
BRANCH  11  13
ATOM     13  O   UNL     1       0.675  12.073  18.905  0.00  0.00    +0.000 OA
BRANCH  13  15
ATOM     14  C   UNL     1      -0.435  13.912  19.953  0.00  0.00    +0.000 C 
ATOM     15  C   UNL     1       0.680  12.892  20.084  0.00  0.00    +0.000 C 
ENDBRANCH  13  15
ENDBRANCH  11  13
ENDBRANCH   5  11
ENDBRANCH   1   8
BRANCH   2  16
ATOM     16  C   UNL     1       3.458   3.811  19.864  0.00  0.00    +0.000 C 
BRANCH  16  17
ATOM     17  S   UNL     1       3.324   2.786  18.387  0.00  0.00    +0.000 S 
BRANCH  17  18
ATOM     18  C   UNL     1       4.546   3.428  17.346  0.00  0.00    +0.000 A 
ATOM     19  N   UNL     1       4.620   3.267  16.060  0.00  0.00    +0.000 NA
ATOM     20  N   UNL     1       5.714   3.991  15.602  0.00  0.00    +0.000 N 
ATOM     21  C   UNL     1       6.080   4.036  14.278  0.00  0.00    +0.000 A 
ATOM     22  O   UNL     1       5.572   3.408  13.358  0.00  0.00    +0.000 OA
ATOM     23  C   UNL     1       7.239   4.984  14.021  0.00  0.00    +0.000 A 
ATOM     24  C   UNL     1       7.685   5.211  12.603  0.00  0.00    +0.000 C 
ATOM     25  N   UNL     1       7.837   5.636  14.973  0.00  0.00    +0.000 NA
ATOM     26  N   UNL     1       7.421   5.464  16.302  0.00  0.00    +0.000 NA
ATOM     27  C   UNL     1       6.420   4.692  16.534  0.00  0.00    +0.000 A 
ATOM     28  S   UNL     1       5.769   4.409  18.107  0.00  0.00    +0.000 S 
ENDBRANCH  17  18
ENDBRANCH  16  17
ENDBRANCH   2  16
TORSDOF 7
ENDMDL
MODEL 9
REMARK VINA RESULT:      -6.8      2.654      3.325
REMARK  Name = 
REMARK  9 active torsions:
REMARK  status: ('A' for Active; 'I' for Inactive)
REMARK    1  A    between atoms: C_1  and  C_2
REMARK    2  A    between atoms: C_2  and  O_3
REMARK    3  A    between atoms: O_3  and  C_4
REMARK    4  A    between atoms: C_4  and  C_6
REMARK    5  A    between atoms: C_9  and  N_10
REMARK    6  A    between atoms: C_11  and  C_13
REMARK    7  A    between atoms: C_13  and  S_14
REMARK    8  A    between atoms: S_14  and  C_15
REMARK    9  A    between atoms: C_20  and  C_21
REMARK                            x       y       z     vdW  Elec       q    Type
REMARK                         _______ _______ _______ _____ _____    ______ ____
ROOT
ATOM      1  N   UNL     1       2.775   5.559  18.919  0.00  0.00    +0.000 N 
ATOM      2  C   UNL     1       2.209   4.557  18.152  0.00  0.00    +0.000 C 
ATOM      3  O   UNL     1       1.179   4.646  17.488  0.00  0.00    +0.000 OA
ATOM      4  H   UNL     1       3.734   5.422  19.228  0.00  0.00    +0.000 HD
ENDROOT
BRANCH   1   8
ATOM      5  C   UNL     1       1.219   9.398  19.704  0.00  0.00    +0.000 A 
ATOM      6  C   UNL     1       1.681   9.093  18.422  0.00  0.00    +0.000 A 
ATOM      7  C   UNL     1       2.188   7.824  18.139  0.00  0.00    +0.000 A 
ATOM      8  C   UNL     1       2.238   6.843  19.130  0.00  0.00    +0.000 A 
ATOM      9  C   UNL     1       1.734   7.135  20.404  0.00  0.00    +0.000 A 
ATOM     10  C   UNL     1       1.239   8.410  20.696  0.00  0.00    +0.000 A 
BRANCH   5  11
ATOM     11  C   UNL     1       0.789  10.798  19.961  0.00  0.00    +0.000 C 
ATOM     12  O   UNL     1       0.957  11.708  19.161  0.00  0.00    +0.000 OA
BRANCH  11  13
ATOM     13  O   UNL     1       0.299  10.917  21.216  0.00  0.00    +0.000 OA
BRANCH  13  15
ATOM     14  C   UNL     1      -1.143  11.934  22.829  0.00  0.00    +0.000 C 
ATOM     15  C   UNL     1      -0.656  11.975  21.393  0.00  0.00    +0.000 C 
ENDBRANCH  13  15
ENDBRANCH  11  13
ENDBRANCH   5  11
ENDBRANCH   1   8
BRANCH   2  16
ATOM     16  C   UNL     1       3.007   3.267  18.154  0.00  0.00    +0.000 C 
BRANCH  16  17
ATOM     17  S   UNL     1       4.682   3.556  18.755  0.00  0.00    +0.000 S 
BRANCH  17  18
ATOM     18  C   UNL     1       5.555   3.960  17.319  0.00  0.00    +0.000 A 
ATOM     19  N   UNL     1       5.297   3.538  16.119  0.00  0.00    +0.000 NA
ATOM     20  N   UNL     1       6.196   4.144  15.251  0.00  0.00    +0.000 N 
ATOM     21  C   UNL     1       6.200   3.913  13.896  0.00  0.00    +0.000 A 
ATOM     22  O   UNL     1       5.497   3.114  13.289  0.00  0.00    +0.000 OA
ATOM     23  C   UNL     1       7.203   4.778  13.155  0.00  0.00    +0.000 A 
ATOM     24  C   UNL     1       7.250   4.706  11.653  0.00  0.00    +0.000 C 
ATOM     25  N   UNL     1       7.999   5.607  13.762  0.00  0.00    +0.000 NA
ATOM     26  N   UNL     1       7.956   5.715  15.160  0.00  0.00    +0.000 NA
ATOM     27  C   UNL     1       7.089   5.015  15.801  0.00  0.00    +0.000 A 
ATOM     28  S   UNL     1       6.888   5.067  17.514  0.00  0.00    +0.000 S 
ENDBRANCH  17  18
ENDBRANCH  16  17
ENDBRANCH   2  16
TORSDOF 7
ENDMDL
