MODEL 1
REMARK VINA RESULT:      -8.4      0.000      0.000
REMARK  Name = 
REMARK  11 active torsions:
REMARK  status: ('A' for Active; 'I' for Inactive)
REMARK    1  A    between atoms: C_1  and  O_2
REMARK    2  A    between atoms: O_2  and  C_3
REMARK    3  A    between atoms: C_6  and  N_7
REMARK    4  A    between atoms: C_8  and  C_9
REMARK    5  A    between atoms: C_9  and  C_10
REMARK    6  A    between atoms: C_10  and  N_11
REMARK    7  A    between atoms: C_18  and  O_19
REMARK    8  A    between atoms: O_19  and  C_20
REMARK    9  A    between atoms: C_20  and  C_21
REMARK   10  A    between atoms: C_20  and  C_22
REMARK   11  A    between atoms: C_29  and  C_30
REMARK                            x       y       z     vdW  Elec       q    Type
REMARK                         _______ _______ _______ _____ _____    ______ ____
ROOT
ATOM      1  N   UNL     1       0.724  13.603  21.371  0.00  0.00    +0.000 N 
ATOM      2  C   UNL     1       0.349  12.258  21.292  0.00  0.00    +0.000 A 
ATOM      3  N   UNL     1      -0.670  11.781  21.940  0.00  0.00    +0.000 NA
ATOM      4  C   UNL     1      -1.450  12.643  22.724  0.00  0.00    +0.000 A 
ATOM      5  N   UNL     1      -2.525  12.075  23.308  0.00  0.00    +0.000 NA
ATOM      6  C   UNL     1      -3.335  12.871  24.060  0.00  0.00    +0.000 A 
ATOM      7  C   UNL     1      -4.538  12.241  24.697  0.00  0.00    +0.000 C 
ATOM      8  C   UNL     1      -3.108  14.233  24.234  0.00  0.00    +0.000 A 
ATOM      9  C   UNL     1      -1.996  14.798  23.628  0.00  0.00    +0.000 A 
ATOM     10  C   UNL     1      -1.162  13.983  22.864  0.00  0.00    +0.000 A 
ATOM     11  C   UNL     1       0.011  14.505  22.176  0.00  0.00    +0.000 A 
ATOM     12  O   UNL     1       0.298  15.686  22.368  0.00  0.00    +0.000 OA
ENDROOT
BRANCH   1  16
ATOM     13  C   UNL     1       3.889  15.373  19.172  0.00  0.00    +0.000 A 
ATOM     14  C   UNL     1       4.129  14.853  20.447  0.00  0.00    +0.000 A 
ATOM     15  C   UNL     1       3.100  14.245  21.176  0.00  0.00    +0.000 A 
ATOM     16  C   UNL     1       1.813  14.167  20.637  0.00  0.00    +0.000 A 
ATOM     17  C   UNL     1       1.567  14.762  19.389  0.00  0.00    +0.000 A 
ATOM     18  C   UNL     1       2.597  15.357  18.657  0.00  0.00    +0.000 A 
BRANCH  13  20
ATOM     19  C   UNL     1       5.530  17.056  19.171  0.00  0.00    +0.000 C 
ATOM     20  O   UNL     1       4.972  15.910  18.532  0.00  0.00    +0.000 OA
ENDBRANCH  13  20
ENDBRANCH   1  16
BRANCH   2  21
ATOM     21  C   UNL     1       1.131  11.299  20.370  0.00  0.00    +0.000 C 
BRANCH  21  22
ATOM     22  C   UNL     1       0.341  10.071  19.872  0.00  0.00    +0.000 C 
BRANCH  22  23
ATOM     23  N   UNL     1       1.211   8.936  19.524  0.00  0.00    +0.000 N 
ATOM     24  C   UNL     1       1.915   8.914  18.355  0.00  0.00    +0.000 C 
ATOM     25  O   UNL     1       1.911   9.720  17.442  0.00  0.00    +0.000 OA
ATOM     26  C   UNL     1       2.706   7.694  18.355  0.00  0.00    +0.000 A 
ATOM     27  C   UNL     1       3.555   7.251  17.356  0.00  0.00    +0.000 A 
ATOM     28  C   UNL     1       4.205   6.042  17.563  0.00  0.00    +0.000 A 
ATOM     29  C   UNL     1       3.966   5.307  18.735  0.00  0.00    +0.000 A 
ATOM     30  C   UNL     1       3.039   5.735  19.711  0.00  0.00    +0.000 A 
ATOM     31  C   UNL     1       2.450   6.986  19.524  0.00  0.00    +0.000 A 
ATOM     32  C   UNL     1       1.504   7.832  20.300  0.00  0.00    +0.000 C 
ATOM     33  O   UNL     1       1.103   7.588  21.422  0.00  0.00    +0.000 OA
BRANCH  30  34
ATOM     34  O   UNL     1       2.734   4.949  20.793  0.00  0.00    +0.000 OA
BRANCH  34  35
ATOM     35  C   UNL     1       2.212   3.635  20.475  0.00  0.00    +0.000 C 
ATOM     36  C   UNL     1       2.340   2.690  21.672  0.00  0.00    +0.000 C 
ATOM     37  C   UNL     1       0.749   3.773  20.069  0.00  0.00    +0.000 C 
ENDBRANCH  34  35
ENDBRANCH  30  34
ENDBRANCH  22  23
ENDBRANCH  21  22
ENDBRANCH   2  21
TORSDOF 7
ENDMDL
MODEL 2
REMARK VINA RESULT:      -8.3      0.807      1.210
REMARK  Name = 
REMARK  11 active torsions:
REMARK  status: ('A' for Active; 'I' for Inactive)
REMARK    1  A    between atoms: C_1  and  O_2
REMARK    2  A    between atoms: O_2  and  C_3
REMARK    3  A    between atoms: C_6  and  N_7
REMARK    4  A    between atoms: C_8  and  C_9
REMARK    5  A    between atoms: C_9  and  C_10
REMARK    6  A    between atoms: C_10  and  N_11
REMARK    7  A    between atoms: C_18  and  O_19
REMARK    8  A    between atoms: O_19  and  C_20
REMARK    9  A    between atoms: C_20  and  C_21
REMARK   10  A    between atoms: C_20  and  C_22
REMARK   11  A    between atoms: C_29  and  C_30
REMARK                            x       y       z     vdW  Elec       q    Type
REMARK                         _______ _______ _______ _____ _____    ______ ____
ROOT
ATOM      1  N   UNL     1       0.406  13.151  21.224  0.00  0.00    +0.000 N 
ATOM      2  C   UNL     1       0.186  11.815  21.574  0.00  0.00    +0.000 A 
ATOM      3  N   UNL     1      -0.795  11.450  22.342  0.00  0.00    +0.000 NA
ATOM      4  C   UNL     1      -1.693  12.417  22.816  0.00  0.00    +0.000 A 
ATOM      5  N   UNL     1      -2.717  11.939  23.552  0.00  0.00    +0.000 NA
ATOM      6  C   UNL     1      -3.637  12.830  24.017  0.00  0.00    +0.000 A 
ATOM      7  C   UNL     1      -4.782  12.296  24.823  0.00  0.00    +0.000 C 
ATOM      8  C   UNL     1      -3.569  14.195  23.752  0.00  0.00    +0.000 A 
ATOM      9  C   UNL     1      -2.506  14.667  22.996  0.00  0.00    +0.000 A 
ATOM     10  C   UNL     1      -1.561  13.757  22.526  0.00  0.00    +0.000 A 
ATOM     11  C   UNL     1      -0.431  14.170  21.706  0.00  0.00    +0.000 A 
ATOM     12  O   UNL     1      -0.284  15.377  21.515  0.00  0.00    +0.000 OA
ENDROOT
BRANCH   1  16
ATOM     13  C   UNL     1       3.582  14.351  18.682  0.00  0.00    +0.000 A 
ATOM     14  C   UNL     1       2.384  13.886  18.133  0.00  0.00    +0.000 A 
ATOM     15  C   UNL     1       1.318  13.509  18.957  0.00  0.00    +0.000 A 
ATOM     16  C   UNL     1       1.450  13.579  20.347  0.00  0.00    +0.000 A 
ATOM     17  C   UNL     1       2.685  13.974  20.888  0.00  0.00    +0.000 A 
ATOM     18  C   UNL     1       3.743  14.362  20.064  0.00  0.00    +0.000 A 
BRANCH  13  20
ATOM     19  C   UNL     1       5.826  14.971  18.362  0.00  0.00    +0.000 C 
ATOM     20  O   UNL     1       4.544  14.730  17.788  0.00  0.00    +0.000 OA
ENDBRANCH  13  20
ENDBRANCH   1  16
BRANCH   2  21
ATOM     21  C   UNL     1       1.102  10.714  21.000  0.00  0.00    +0.000 C 
BRANCH  21  22
ATOM     22  C   UNL     1       0.467   9.832  19.904  0.00  0.00    +0.000 C 
BRANCH  22  23
ATOM     23  N   UNL     1       1.350   8.736  19.471  0.00  0.00    +0.000 N 
ATOM     24  C   UNL     1       2.076   8.824  18.319  0.00  0.00    +0.000 C 
ATOM     25  O   UNL     1       2.085   9.709  17.484  0.00  0.00    +0.000 OA
ATOM     26  C   UNL     1       2.873   7.611  18.224  0.00  0.00    +0.000 A 
ATOM     27  C   UNL     1       3.744   7.264  17.206  0.00  0.00    +0.000 A 
ATOM     28  C   UNL     1       4.396   6.044  17.314  0.00  0.00    +0.000 A 
ATOM     29  C   UNL     1       4.138   5.204  18.409  0.00  0.00    +0.000 A 
ATOM     30  C   UNL     1       3.190   5.538  19.401  0.00  0.00    +0.000 A 
ATOM     31  C   UNL     1       2.598   6.799  19.318  0.00  0.00    +0.000 A 
ATOM     32  C   UNL     1       1.633   7.568  20.149  0.00  0.00    +0.000 C 
ATOM     33  O   UNL     1       1.212   7.221  21.236  0.00  0.00    +0.000 OA
BRANCH  30  34
ATOM     34  O   UNL     1       2.869   4.655  20.401  0.00  0.00    +0.000 OA
BRANCH  34  35
ATOM     35  C   UNL     1       1.580   4.008  20.264  0.00  0.00    +0.000 C 
ATOM     36  C   UNL     1       1.471   3.280  18.922  0.00  0.00    +0.000 C 
ATOM     37  C   UNL     1       1.401   3.021  21.412  0.00  0.00    +0.000 C 
ENDBRANCH  34  35
ENDBRANCH  30  34
ENDBRANCH  22  23
ENDBRANCH  21  22
ENDBRANCH   2  21
TORSDOF 7
ENDMDL
MODEL 3
REMARK VINA RESULT:      -8.2      1.725      5.229
REMARK  Name = 
REMARK  11 active torsions:
REMARK  status: ('A' for Active; 'I' for Inactive)
REMARK    1  A    between atoms: C_1  and  O_2
REMARK    2  A    between atoms: O_2  and  C_3
REMARK    3  A    between atoms: C_6  and  N_7
REMARK    4  A    between atoms: C_8  and  C_9
REMARK    5  A    between atoms: C_9  and  C_10
REMARK    6  A    between atoms: C_10  and  N_11
REMARK    7  A    between atoms: C_18  and  O_19
REMARK    8  A    between atoms: O_19  and  C_20
REMARK    9  A    between atoms: C_20  and  C_21
REMARK   10  A    between atoms: C_20  and  C_22
REMARK   11  A    between atoms: C_29  and  C_30
REMARK                            x       y       z     vdW  Elec       q    Type
REMARK                         _______ _______ _______ _____ _____    ______ ____
ROOT
ATOM      1  N   UNL     1       0.092  13.620  20.680  0.00  0.00    +0.000 N 
ATOM      2  C   UNL     1       1.094  12.659  20.510  0.00  0.00    +0.000 A 
ATOM      3  N   UNL     1       2.274  12.958  20.057  0.00  0.00    +0.000 NA
ATOM      4  C   UNL     1       2.576  14.294  19.757  0.00  0.00    +0.000 A 
ATOM      5  N   UNL     1       3.843  14.521  19.355  0.00  0.00    +0.000 NA
ATOM      6  C   UNL     1       4.202  15.806  19.076  0.00  0.00    +0.000 A 
ATOM      7  C   UNL     1       5.615  16.058  18.643  0.00  0.00    +0.000 C 
ATOM      8  C   UNL     1       3.326  16.880  19.202  0.00  0.00    +0.000 A 
ATOM      9  C   UNL     1       2.026  16.626  19.612  0.00  0.00    +0.000 A 
ATOM     10  C   UNL     1       1.656  15.311  19.892  0.00  0.00    +0.000 A 
ATOM     11  C   UNL     1       0.319  14.965  20.352  0.00  0.00    +0.000 A 
ATOM     12  O   UNL     1      -0.514  15.871  20.399  0.00  0.00    +0.000 OA
ENDROOT
BRANCH   1  16
ATOM     13  C   UNL     1      -3.753  12.664  22.194  0.00  0.00    +0.000 A 
ATOM     14  C   UNL     1      -2.682  12.848  23.072  0.00  0.00    +0.000 A 
ATOM     15  C   UNL     1      -1.412  13.186  22.590  0.00  0.00    +0.000 A 
ATOM     16  C   UNL     1      -1.201  13.329  21.216  0.00  0.00    +0.000 A 
ATOM     17  C   UNL     1      -2.266  13.066  20.339  0.00  0.00    +0.000 A 
ATOM     18  C   UNL     1      -3.535  12.740  20.822  0.00  0.00    +0.000 A 
BRANCH  13  20
ATOM     19  C   UNL     1      -6.093  12.779  22.011  0.00  0.00    +0.000 C 
ATOM     20  O   UNL     1      -4.958  12.374  22.772  0.00  0.00    +0.000 OA
ENDBRANCH  13  20
ENDBRANCH   1  16
BRANCH   2  21
ATOM     21  C   UNL     1       0.826  11.194  20.913  0.00  0.00    +0.000 C 
BRANCH  21  22
ATOM     22  C   UNL     1       0.253  10.296  19.797  0.00  0.00    +0.000 C 
BRANCH  22  23
ATOM     23  N   UNL     1       1.119   9.148  19.487  0.00  0.00    +0.000 N 
ATOM     24  C   UNL     1       1.895   9.127  18.365  0.00  0.00    +0.000 C 
ATOM     25  O   UNL     1       1.965   9.945  17.466  0.00  0.00    +0.000 OA
ATOM     26  C   UNL     1       2.659   7.889  18.396  0.00  0.00    +0.000 A 
ATOM     27  C   UNL     1       3.560   7.442  17.446  0.00  0.00    +0.000 A 
ATOM     28  C   UNL     1       4.170   6.216  17.675  0.00  0.00    +0.000 A 
ATOM     29  C   UNL     1       3.842   5.471  18.818  0.00  0.00    +0.000 A 
ATOM     30  C   UNL     1       2.864   5.906  19.740  0.00  0.00    +0.000 A 
ATOM     31  C   UNL     1       2.315   7.172  19.535  0.00  0.00    +0.000 A 
ATOM     32  C   UNL     1       1.340   8.027  20.264  0.00  0.00    +0.000 C 
ATOM     33  O   UNL     1       0.863   7.777  21.355  0.00  0.00    +0.000 OA
BRANCH  30  34
ATOM     34  O   UNL     1       2.475   5.111  20.789  0.00  0.00    +0.000 OA
BRANCH  34  35
ATOM     35  C   UNL     1       2.219   3.725  20.453  0.00  0.00    +0.000 C 
ATOM     36  C   UNL     1       2.358   2.828  21.685  0.00  0.00    +0.000 C 
ATOM     37  C   UNL     1       0.813   3.611  19.876  0.00  0.00    +0.000 C 
ENDBRANCH  34  35
ENDBRANCH  30  34
ENDBRANCH  22  23
ENDBRANCH  21  22
ENDBRANCH   2  21
TORSDOF 7
ENDMDL
MODEL 4
REMARK VINA RESULT:      -8.2      1.647      5.322
REMARK  Name = 
REMARK  11 active torsions:
REMARK  status: ('A' for Active; 'I' for Inactive)
REMARK    1  A    between atoms: C_1  and  O_2
REMARK    2  A    between atoms: O_2  and  C_3
REMARK    3  A    between atoms: C_6  and  N_7
REMARK    4  A    between atoms: C_8  and  C_9
REMARK    5  A    between atoms: C_9  and  C_10
REMARK    6  A    between atoms: C_10  and  N_11
REMARK    7  A    between atoms: C_18  and  O_19
REMARK    8  A    between atoms: O_19  and  C_20
REMARK    9  A    between atoms: C_20  and  C_21
REMARK   10  A    between atoms: C_20  and  C_22
REMARK   11  A    between atoms: C_29  and  C_30
REMARK                            x       y       z     vdW  Elec       q    Type
REMARK                         _______ _______ _______ _____ _____    ______ ____
ROOT
ATOM      1  N   UNL     1       0.125  13.511  20.379  0.00  0.00    +0.000 N 
ATOM      2  C   UNL     1       1.074  12.499  20.194  0.00  0.00    +0.000 A 
ATOM      3  N   UNL     1       2.201  12.708  19.584  0.00  0.00    +0.000 NA
ATOM      4  C   UNL     1       2.504  13.996  19.120  0.00  0.00    +0.000 A 
ATOM      5  N   UNL     1       3.722  14.133  18.558  0.00  0.00    +0.000 NA
ATOM      6  C   UNL     1       4.082  15.370  18.113  0.00  0.00    +0.000 A 
ATOM      7  C   UNL     1       5.442  15.524  17.501  0.00  0.00    +0.000 C 
ATOM      8  C   UNL     1       3.257  16.485  18.229  0.00  0.00    +0.000 A 
ATOM      9  C   UNL     1       2.006  16.322  18.807  0.00  0.00    +0.000 A 
ATOM     10  C   UNL     1       1.635  15.056  19.256  0.00  0.00    +0.000 A 
ATOM     11  C   UNL     1       0.350  14.809  19.895  0.00  0.00    +0.000 A 
ATOM     12  O   UNL     1      -0.445  15.747  19.945  0.00  0.00    +0.000 OA
ENDROOT
BRANCH   1  16
ATOM     13  C   UNL     1      -3.510  13.065  22.518  0.00  0.00    +0.000 A 
ATOM     14  C   UNL     1      -3.475  12.831  21.141  0.00  0.00    +0.000 A 
ATOM     15  C   UNL     1      -2.279  12.951  20.425  0.00  0.00    +0.000 A 
ATOM     16  C   UNL     1      -1.104  13.324  21.083  0.00  0.00    +0.000 A 
ATOM     17  C   UNL     1      -1.167  13.632  22.452  0.00  0.00    +0.000 A 
ATOM     18  C   UNL     1      -2.359  13.500  23.168  0.00  0.00    +0.000 A 
BRANCH  13  20
ATOM     19  C   UNL     1      -4.643  12.536  24.508  0.00  0.00    +0.000 C 
ATOM     20  O   UNL     1      -4.720  12.882  23.127  0.00  0.00    +0.000 OA
ENDBRANCH  13  20
ENDBRANCH   1  16
BRANCH   2  21
ATOM     21  C   UNL     1       0.814  11.092  20.769  0.00  0.00    +0.000 C 
BRANCH  21  22
ATOM     22  C   UNL     1       0.215  10.074  19.776  0.00  0.00    +0.000 C 
BRANCH  22  23
ATOM     23  N   UNL     1       1.136   8.967  19.468  0.00  0.00    +0.000 N 
ATOM     24  C   UNL     1       1.916   8.984  18.349  0.00  0.00    +0.000 C 
ATOM     25  O   UNL     1       1.952   9.806  17.451  0.00  0.00    +0.000 OA
ATOM     26  C   UNL     1       2.738   7.784  18.382  0.00  0.00    +0.000 A 
ATOM     27  C   UNL     1       3.663   7.381  17.435  0.00  0.00    +0.000 A 
ATOM     28  C   UNL     1       4.330   6.186  17.665  0.00  0.00    +0.000 A 
ATOM     29  C   UNL     1       4.033   5.424  18.807  0.00  0.00    +0.000 A 
ATOM     30  C   UNL     1       3.032   5.811  19.725  0.00  0.00    +0.000 A 
ATOM     31  C   UNL     1       2.424   7.050  19.519  0.00  0.00    +0.000 A 
ATOM     32  C   UNL     1       1.406   7.858  20.244  0.00  0.00    +0.000 C 
ATOM     33  O   UNL     1       0.938   7.584  21.333  0.00  0.00    +0.000 OA
BRANCH  30  34
ATOM     34  O   UNL     1       2.677   4.998  20.772  0.00  0.00    +0.000 OA
BRANCH  34  35
ATOM     35  C   UNL     1       2.300   3.648  20.406  0.00  0.00    +0.000 C 
ATOM     36  C   UNL     1       2.417   2.702  21.603  0.00  0.00    +0.000 C 
ATOM     37  C   UNL     1       0.867   3.662  19.885  0.00  0.00    +0.000 C 
ENDBRANCH  34  35
ENDBRANCH  30  34
ENDBRANCH  22  23
ENDBRANCH  21  22
ENDBRANCH   2  21
TORSDOF 7
ENDMDL
MODEL 5
REMARK VINA RESULT:      -7.9      1.091      2.735
REMARK  Name = 
REMARK  11 active torsions:
REMARK  status: ('A' for Active; 'I' for Inactive)
REMARK    1  A    between atoms: C_1  and  O_2
REMARK    2  A    between atoms: O_2  and  C_3
REMARK    3  A    between atoms: C_6  and  N_7
REMARK    4  A    between atoms: C_8  and  C_9
REMARK    5  A    between atoms: C_9  and  C_10
REMARK    6  A    between atoms: C_10  and  N_11
REMARK    7  A    between atoms: C_18  and  O_19
REMARK    8  A    between atoms: O_19  and  C_20
REMARK    9  A    between atoms: C_20  and  C_21
REMARK   10  A    between atoms: C_20  and  C_22
REMARK   11  A    between atoms: C_29  and  C_30
REMARK                            x       y       z     vdW  Elec       q    Type
REMARK                         _______ _______ _______ _____ _____    ______ ____
ROOT
ATOM      1  N   UNL     1       0.949  13.725  21.224  0.00  0.00    +0.000 N 
ATOM      2  C   UNL     1       0.528  12.396  21.105  0.00  0.00    +0.000 A 
ATOM      3  N   UNL     1      -0.497  11.932  21.752  0.00  0.00    +0.000 NA
ATOM      4  C   UNL     1      -1.237  12.792  22.575  0.00  0.00    +0.000 A 
ATOM      5  N   UNL     1      -2.322  12.241  23.156  0.00  0.00    +0.000 NA
ATOM      6  C   UNL     1      -3.096  13.037  23.946  0.00  0.00    +0.000 A 
ATOM      7  C   UNL     1      -4.309  12.426  24.579  0.00  0.00    +0.000 C 
ATOM      8  C   UNL     1      -2.820  14.384  24.162  0.00  0.00    +0.000 A 
ATOM      9  C   UNL     1      -1.698  14.932  23.559  0.00  0.00    +0.000 A 
ATOM     10  C   UNL     1      -0.902  14.116  22.756  0.00  0.00    +0.000 A 
ATOM     11  C   UNL     1       0.278  14.622  22.069  0.00  0.00    +0.000 A 
ATOM     12  O   UNL     1       0.608  15.786  22.297  0.00  0.00    +0.000 OA
ENDROOT
BRANCH   1  16
ATOM     13  C   UNL     1       4.271  15.263  19.081  0.00  0.00    +0.000 A 
ATOM     14  C   UNL     1       3.007  15.234  18.486  0.00  0.00    +0.000 A 
ATOM     15  C   UNL     1       1.897  14.752  19.187  0.00  0.00    +0.000 A 
ATOM     16  C   UNL     1       2.047  14.277  20.493  0.00  0.00    +0.000 A 
ATOM     17  C   UNL     1       3.335  14.238  21.053  0.00  0.00    +0.000 A 
ATOM     18  C   UNL     1       4.440  14.731  20.356  0.00  0.00    +0.000 A 
BRANCH  13  20
ATOM     19  C   UNL     1       6.254  14.842  17.893  0.00  0.00    +0.000 C 
ATOM     20  O   UNL     1       5.279  15.789  18.322  0.00  0.00    +0.000 OA
ENDBRANCH  13  20
ENDBRANCH   1  16
BRANCH   2  21
ATOM     21  C   UNL     1       1.265  11.444  20.140  0.00  0.00    +0.000 C 
BRANCH  21  22
ATOM     22  C   UNL     1       0.429  10.259  19.615  0.00  0.00    +0.000 C 
BRANCH  22  23
ATOM     23  N   UNL     1       1.215   9.022  19.479  0.00  0.00    +0.000 N 
ATOM     24  C   UNL     1       1.169   8.044  20.430  0.00  0.00    +0.000 C 
ATOM     25  O   UNL     1       0.576   8.036  21.493  0.00  0.00    +0.000 OA
ATOM     26  C   UNL     1       2.006   6.952  19.960  0.00  0.00    +0.000 A 
ATOM     27  C   UNL     1       2.268   5.761  20.615  0.00  0.00    +0.000 A 
ATOM     28  C   UNL     1       3.113   4.859  19.983  0.00  0.00    +0.000 A 
ATOM     29  C   UNL     1       3.686   5.184  18.743  0.00  0.00    +0.000 A 
ATOM     30  C   UNL     1       3.470   6.434  18.123  0.00  0.00    +0.000 A 
ATOM     31  C   UNL     1       2.562   7.299  18.734  0.00  0.00    +0.000 A 
ATOM     32  C   UNL     1       1.999   8.638  18.410  0.00  0.00    +0.000 C 
ATOM     33  O   UNL     1       2.188   9.246  17.373  0.00  0.00    +0.000 OA
BRANCH  30  34
ATOM     34  O   UNL     1       4.129   6.777  16.970  0.00  0.00    +0.000 OA
BRANCH  34  35
ATOM     35  C   UNL     1       5.385   6.090  16.748  0.00  0.00    +0.000 C 
ATOM     36  C   UNL     1       5.532   5.677  15.282  0.00  0.00    +0.000 C 
ATOM     37  C   UNL     1       6.528   7.015  17.150  0.00  0.00    +0.000 C 
ENDBRANCH  34  35
ENDBRANCH  30  34
ENDBRANCH  22  23
ENDBRANCH  21  22
ENDBRANCH   2  21
TORSDOF 7
ENDMDL
MODEL 6
REMARK VINA RESULT:      -7.8      3.005      5.616
REMARK  Name = 
REMARK  11 active torsions:
REMARK  status: ('A' for Active; 'I' for Inactive)
REMARK    1  A    between atoms: C_1  and  O_2
REMARK    2  A    between atoms: O_2  and  C_3
REMARK    3  A    between atoms: C_6  and  N_7
REMARK    4  A    between atoms: C_8  and  C_9
REMARK    5  A    between atoms: C_9  and  C_10
REMARK    6  A    between atoms: C_10  and  N_11
REMARK    7  A    between atoms: C_18  and  O_19
REMARK    8  A    between atoms: O_19  and  C_20
REMARK    9  A    between atoms: C_20  and  C_21
REMARK   10  A    between atoms: C_20  and  C_22
REMARK   11  A    between atoms: C_29  and  C_30
REMARK                            x       y       z     vdW  Elec       q    Type
REMARK                         _______ _______ _______ _____ _____    ______ ____
ROOT
ATOM      1  N   UNL     1      -1.971  11.800  20.013  0.00  0.00    +0.000 N 
ATOM      2  C   UNL     1      -1.020  10.891  19.535  0.00  0.00    +0.000 A 
ATOM      3  N   UNL     1      -1.148  10.288  18.392  0.00  0.00    +0.000 NA
ATOM      4  C   UNL     1      -2.257  10.576  17.584  0.00  0.00    +0.000 A 
ATOM      5  N   UNL     1      -2.275   9.953  16.388  0.00  0.00    +0.000 NA
ATOM      6  C   UNL     1      -3.315  10.216  15.549  0.00  0.00    +0.000 A 
ATOM      7  C   UNL     1      -3.326   9.534  14.214  0.00  0.00    +0.000 C 
ATOM      8  C   UNL     1      -4.340  11.102  15.868  0.00  0.00    +0.000 A 
ATOM      9  C   UNL     1      -4.306  11.729  17.105  0.00  0.00    +0.000 A 
ATOM     10  C   UNL     1      -3.245  11.456  17.967  0.00  0.00    +0.000 A 
ATOM     11  C   UNL     1      -3.125  12.092  19.271  0.00  0.00    +0.000 A 
ATOM     12  O   UNL     1      -4.051  12.820  19.631  0.00  0.00    +0.000 OA
ENDROOT
BRANCH   1  16
ATOM     13  C   UNL     1      -1.596  14.013  23.611  0.00  0.00    +0.000 A 
ATOM     14  C   UNL     1      -2.439  12.900  23.559  0.00  0.00    +0.000 A 
ATOM     15  C   UNL     1      -2.556  12.145  22.387  0.00  0.00    +0.000 A 
ATOM     16  C   UNL     1      -1.837  12.511  21.245  0.00  0.00    +0.000 A 
ATOM     17  C   UNL     1      -1.054  13.676  21.286  0.00  0.00    +0.000 A 
ATOM     18  C   UNL     1      -0.929  14.421  22.461  0.00  0.00    +0.000 A 
BRANCH  13  20
ATOM     19  C   UNL     1      -2.790  14.912  25.424  0.00  0.00    +0.000 C 
ATOM     20  O   UNL     1      -1.526  14.655  24.816  0.00  0.00    +0.000 OA
ENDBRANCH  13  20
ENDBRANCH   1  16
BRANCH   2  21
ATOM     21  C   UNL     1       0.256  10.617  20.357  0.00  0.00    +0.000 C 
BRANCH  21  22
ATOM     22  C   UNL     1       1.522  10.310  19.529  0.00  0.00    +0.000 C 
BRANCH  22  23
ATOM     23  N   UNL     1       1.832   8.872  19.474  0.00  0.00    +0.000 N 
ATOM     24  C   UNL     1       1.553   8.045  20.524  0.00  0.00    +0.000 C 
ATOM     25  O   UNL     1       1.095   8.322  21.617  0.00  0.00    +0.000 OA
ATOM     26  C   UNL     1       1.928   6.699  20.119  0.00  0.00    +0.000 A 
ATOM     27  C   UNL     1       1.838   5.545  20.878  0.00  0.00    +0.000 A 
ATOM     28  C   UNL     1       2.268   4.363  20.292  0.00  0.00    +0.000 A 
ATOM     29  C   UNL     1       2.796   4.375  18.991  0.00  0.00    +0.000 A 
ATOM     30  C   UNL     1       2.953   5.572  18.258  0.00  0.00    +0.000 A 
ATOM     31  C   UNL     1       2.448   6.740  18.831  0.00  0.00    +0.000 A 
ATOM     32  C   UNL     1       2.338   8.161  18.404  0.00  0.00    +0.000 C 
ATOM     33  O   UNL     1       2.620   8.586  17.299  0.00  0.00    +0.000 OA
BRANCH  30  34
ATOM     34  O   UNL     1       3.576   5.579  17.036  0.00  0.00    +0.000 OA
BRANCH  34  35
ATOM     35  C   UNL     1       4.967   5.175  17.049  0.00  0.00    +0.000 C 
ATOM     36  C   UNL     1       5.351   4.488  15.736  0.00  0.00    +0.000 C 
ATOM     37  C   UNL     1       5.835   6.409  17.269  0.00  0.00    +0.000 C 
ENDBRANCH  34  35
ENDBRANCH  30  34
ENDBRANCH  22  23
ENDBRANCH  21  22
ENDBRANCH   2  21
TORSDOF 7
ENDMDL
MODEL 7
REMARK VINA RESULT:      -7.8      2.988      4.991
REMARK  Name = 
REMARK  11 active torsions:
REMARK  status: ('A' for Active; 'I' for Inactive)
REMARK    1  A    between atoms: C_1  and  O_2
REMARK    2  A    between atoms: O_2  and  C_3
REMARK    3  A    between atoms: C_6  and  N_7
REMARK    4  A    between atoms: C_8  and  C_9
REMARK    5  A    between atoms: C_9  and  C_10
REMARK    6  A    between atoms: C_10  and  N_11
REMARK    7  A    between atoms: C_18  and  O_19
REMARK    8  A    between atoms: O_19  and  C_20
REMARK    9  A    between atoms: C_20  and  C_21
REMARK   10  A    between atoms: C_20  and  C_22
REMARK   11  A    between atoms: C_29  and  C_30
REMARK                            x       y       z     vdW  Elec       q    Type
REMARK                         _______ _______ _______ _____ _____    ______ ____
ROOT
ATOM      1  N   UNL     1      -1.640  11.722  19.532  0.00  0.00    +0.000 N 
ATOM      2  C   UNL     1      -0.696  10.906  18.899  0.00  0.00    +0.000 A 
ATOM      3  N   UNL     1      -0.922  10.346  17.749  0.00  0.00    +0.000 NA
ATOM      4  C   UNL     1      -2.137  10.587  17.094  0.00  0.00    +0.000 A 
ATOM      5  N   UNL     1      -2.258  10.018  15.878  0.00  0.00    +0.000 NA
ATOM      6  C   UNL     1      -3.409  10.240  15.182  0.00  0.00    +0.000 A 
ATOM      7  C   UNL     1      -3.535   9.619  13.824  0.00  0.00    +0.000 C 
ATOM      8  C   UNL     1      -4.444  11.034  15.667  0.00  0.00    +0.000 A 
ATOM      9  C   UNL     1      -4.302  11.608  16.922  0.00  0.00    +0.000 A 
ATOM     10  C   UNL     1      -3.128  11.375  17.637  0.00  0.00    +0.000 A 
ATOM     11  C   UNL     1      -2.894  11.961  18.949  0.00  0.00    +0.000 A 
ATOM     12  O   UNL     1      -3.815  12.603  19.453  0.00  0.00    +0.000 OA
ENDROOT
BRANCH   1  16
ATOM     13  C   UNL     1      -1.012  13.785  23.184  0.00  0.00    +0.000 A 
ATOM     14  C   UNL     1      -1.452  12.459  23.197  0.00  0.00    +0.000 A 
ATOM     15  C   UNL     1      -1.642  11.756  22.001  0.00  0.00    +0.000 A 
ATOM     16  C   UNL     1      -1.406  12.386  20.776  0.00  0.00    +0.000 A 
ATOM     17  C   UNL     1      -1.040  13.742  20.773  0.00  0.00    +0.000 A 
ATOM     18  C   UNL     1      -0.839  14.438  21.967  0.00  0.00    +0.000 A 
BRANCH  13  20
ATOM     19  C   UNL     1      -0.786  15.790  24.389  0.00  0.00    +0.000 C 
ATOM     20  O   UNL     1      -0.822  14.365  24.407  0.00  0.00    +0.000 OA
ENDBRANCH  13  20
ENDBRANCH   1  16
BRANCH   2  21
ATOM     21  C   UNL     1       0.686  10.690  19.548  0.00  0.00    +0.000 C 
BRANCH  21  22
ATOM     22  C   UNL     1       0.846   9.375  20.339  0.00  0.00    +0.000 C 
BRANCH  22  23
ATOM     23  N   UNL     1       1.661   8.377  19.626  0.00  0.00    +0.000 N 
ATOM     24  C   UNL     1       2.358   8.704  18.500  0.00  0.00    +0.000 C 
ATOM     25  O   UNL     1       2.389   9.761  17.897  0.00  0.00    +0.000 OA
ATOM     26  C   UNL     1       3.091   7.516  18.090  0.00  0.00    +0.000 A 
ATOM     27  C   UNL     1       3.914   7.384  16.986  0.00  0.00    +0.000 A 
ATOM     28  C   UNL     1       4.507   6.146  16.778  0.00  0.00    +0.000 A 
ATOM     29  C   UNL     1       4.237   5.082  17.654  0.00  0.00    +0.000 A 
ATOM     30  C   UNL     1       3.335   5.211  18.733  0.00  0.00    +0.000 A 
ATOM     31  C   UNL     1       2.805   6.480  18.972  0.00  0.00    +0.000 A 
ATOM     32  C   UNL     1       1.904   7.070  19.998  0.00  0.00    +0.000 C 
ATOM     33  O   UNL     1       1.495   6.493  20.988  0.00  0.00    +0.000 OA
BRANCH  30  34
ATOM     34  O   UNL     1       2.997   4.131  19.508  0.00  0.00    +0.000 OA
BRANCH  34  35
ATOM     35  C   UNL     1       2.179   3.131  18.852  0.00  0.00    +0.000 C 
ATOM     36  C   UNL     1       2.935   1.807  18.717  0.00  0.00    +0.000 C 
ATOM     37  C   UNL     1       0.905   2.928  19.664  0.00  0.00    +0.000 C 
ENDBRANCH  34  35
ENDBRANCH  30  34
ENDBRANCH  22  23
ENDBRANCH  21  22
ENDBRANCH   2  21
TORSDOF 7
ENDMDL
MODEL 8
REMARK VINA RESULT:      -7.8      0.892      1.188
REMARK  Name = 
REMARK  11 active torsions:
REMARK  status: ('A' for Active; 'I' for Inactive)
REMARK    1  A    between atoms: C_1  and  O_2
REMARK    2  A    between atoms: O_2  and  C_3
REMARK    3  A    between atoms: C_6  and  N_7
REMARK    4  A    between atoms: C_8  and  C_9
REMARK    5  A    between atoms: C_9  and  C_10
REMARK    6  A    between atoms: C_10  and  N_11
REMARK    7  A    between atoms: C_18  and  O_19
REMARK    8  A    between atoms: O_19  and  C_20
REMARK    9  A    between atoms: C_20  and  C_21
REMARK   10  A    between atoms: C_20  and  C_22
REMARK   11  A    between atoms: C_29  and  C_30
REMARK                            x       y       z     vdW  Elec       q    Type
REMARK                         _______ _______ _______ _____ _____    ______ ____
ROOT
ATOM      1  N   UNL     1       0.806  13.783  20.569  0.00  0.00    +0.000 N 
ATOM      2  C   UNL     1       0.415  12.445  20.687  0.00  0.00    +0.000 A 
ATOM      3  N   UNL     1      -0.659  12.089  21.324  0.00  0.00    +0.000 NA
ATOM      4  C   UNL     1      -1.482  13.073  21.887  0.00  0.00    +0.000 A 
ATOM      5  N   UNL     1      -2.608  12.617  22.472  0.00  0.00    +0.000 NA
ATOM      6  C   UNL     1      -3.461  13.531  23.013  0.00  0.00    +0.000 A 
ATOM      7  C   UNL     1      -4.720  13.023  23.650  0.00  0.00    +0.000 C 
ATOM      8  C   UNL     1      -3.224  14.902  22.973  0.00  0.00    +0.000 A 
ATOM      9  C   UNL     1      -2.059  15.352  22.371  0.00  0.00    +0.000 A 
ATOM     10  C   UNL     1      -1.182  14.416  21.823  0.00  0.00    +0.000 A 
ATOM     11  C   UNL     1       0.049  14.810  21.153  0.00  0.00    +0.000 A 
ATOM     12  O   UNL     1       0.341  16.006  21.166  0.00  0.00    +0.000 OA
ENDROOT
BRANCH   1  16
ATOM     13  C   UNL     1       4.288  14.959  18.453  0.00  0.00    +0.000 A 
ATOM     14  C   UNL     1       3.080  14.791  17.772  0.00  0.00    +0.000 A 
ATOM     15  C   UNL     1       1.916  14.427  18.459  0.00  0.00    +0.000 A 
ATOM     16  C   UNL     1       1.958  14.210  19.840  0.00  0.00    +0.000 A 
ATOM     17  C   UNL     1       3.194  14.305  20.500  0.00  0.00    +0.000 A 
ATOM     18  C   UNL     1       4.352  14.681  19.815  0.00  0.00    +0.000 A 
BRANCH  13  20
ATOM     19  C   UNL     1       6.575  14.679  17.987  0.00  0.00    +0.000 C 
ATOM     20  O   UNL     1       5.354  15.354  17.692  0.00  0.00    +0.000 OA
ENDBRANCH  13  20
ENDBRANCH   1  16
BRANCH   2  21
ATOM     21  C   UNL     1       1.249  11.342  20.004  0.00  0.00    +0.000 C 
BRANCH  21  22
ATOM     22  C   UNL     1       0.464  10.078  19.595  0.00  0.00    +0.000 C 
BRANCH  22  23
ATOM     23  N   UNL     1       1.338   8.923  19.331  0.00  0.00    +0.000 N 
ATOM     24  C   UNL     1       2.110   8.860  18.208  0.00  0.00    +0.000 C 
ATOM     25  O   UNL     1       2.172   9.640  17.275  0.00  0.00    +0.000 OA
ATOM     26  C   UNL     1       2.884   7.631  18.290  0.00  0.00    +0.000 A 
ATOM     27  C   UNL     1       3.786   7.150  17.357  0.00  0.00    +0.000 A 
ATOM     28  C   UNL     1       4.405   5.940  17.636  0.00  0.00    +0.000 A 
ATOM     29  C   UNL     1       4.087   5.242  18.811  0.00  0.00    +0.000 A 
ATOM     30  C   UNL     1       3.108   5.708  19.717  0.00  0.00    +0.000 A 
ATOM     31  C   UNL     1       2.548   6.960  19.460  0.00  0.00    +0.000 A 
ATOM     32  C   UNL     1       1.569   7.839  20.154  0.00  0.00    +0.000 C 
ATOM     33  O   UNL     1       1.098   7.631  21.256  0.00  0.00    +0.000 OA
BRANCH  30  34
ATOM     34  O   UNL     1       2.728   4.956  20.799  0.00  0.00    +0.000 OA
BRANCH  34  35
ATOM     35  C   UNL     1       2.210   3.640  20.487  0.00  0.00    +0.000 C 
ATOM     36  C   UNL     1       2.372   2.691  21.676  0.00  0.00    +0.000 C 
ATOM     37  C   UNL     1       0.738   3.767  20.114  0.00  0.00    +0.000 C 
ENDBRANCH  34  35
ENDBRANCH  30  34
ENDBRANCH  22  23
ENDBRANCH  21  22
ENDBRANCH   2  21
TORSDOF 7
ENDMDL
MODEL 9
REMARK VINA RESULT:      -7.7      2.309      5.167
REMARK  Name = 
REMARK  11 active torsions:
REMARK  status: ('A' for Active; 'I' for Inactive)
REMARK    1  A    between atoms: C_1  and  O_2
REMARK    2  A    between atoms: O_2  and  C_3
REMARK    3  A    between atoms: C_6  and  N_7
REMARK    4  A    between atoms: C_8  and  C_9
REMARK    5  A    between atoms: C_9  and  C_10
REMARK    6  A    between atoms: C_10  and  N_11
REMARK    7  A    between atoms: C_18  and  O_19
REMARK    8  A    between atoms: O_19  and  C_20
REMARK    9  A    between atoms: C_20  and  C_21
REMARK   10  A    between atoms: C_20  and  C_22
REMARK   11  A    between atoms: C_29  and  C_30
REMARK                            x       y       z     vdW  Elec       q    Type
REMARK                         _______ _______ _______ _____ _____    ______ ____
ROOT
ATOM      1  N   UNL     1       0.174  13.129  19.721  0.00  0.00    +0.000 N 
ATOM      2  C   UNL     1       1.129  12.354  20.389  0.00  0.00    +0.000 A 
ATOM      3  N   UNL     1       2.315  12.802  20.668  0.00  0.00    +0.000 NA
ATOM      4  C   UNL     1       2.651  14.119  20.322  0.00  0.00    +0.000 A 
ATOM      5  N   UNL     1       3.880  14.518  20.707  0.00  0.00    +0.000 NA
ATOM      6  C   UNL     1       4.252  15.798  20.422  0.00  0.00    +0.000 A 
ATOM      7  C   UNL     1       5.613  16.245  20.864  0.00  0.00    +0.000 C 
ATOM      8  C   UNL     1       3.417  16.701  19.770  0.00  0.00    +0.000 A 
ATOM      9  C   UNL     1       2.158  16.269  19.378  0.00  0.00    +0.000 A 
ATOM     10  C   UNL     1       1.780  14.958  19.664  0.00  0.00    +0.000 A 
ATOM     11  C   UNL     1       0.468  14.437  19.308  0.00  0.00    +0.000 A 
ATOM     12  O   UNL     1      -0.274  15.173  18.656  0.00  0.00    +0.000 OA
ENDROOT
BRANCH   1  16
ATOM     13  C   UNL     1      -3.806  11.906  18.915  0.00  0.00    +0.000 A 
ATOM     14  C   UNL     1      -2.806  11.706  17.960  0.00  0.00    +0.000 A 
ATOM     15  C   UNL     1      -1.483  12.082  18.220  0.00  0.00    +0.000 A 
ATOM     16  C   UNL     1      -1.153  12.680  19.439  0.00  0.00    +0.000 A 
ATOM     17  C   UNL     1      -2.180  12.948  20.359  0.00  0.00    +0.000 A 
ATOM     18  C   UNL     1      -3.498  12.560  20.103  0.00  0.00    +0.000 A 
BRANCH  13  20
ATOM     19  C   UNL     1      -6.076  11.797  19.514  0.00  0.00    +0.000 C 
ATOM     20  O   UNL     1      -5.055  11.467  18.574  0.00  0.00    +0.000 OA
ENDBRANCH  13  20
ENDBRANCH   1  16
BRANCH   2  21
ATOM     21  C   UNL     1       0.764  10.932  20.863  0.00  0.00    +0.000 C 
BRANCH  21  22
ATOM     22  C   UNL     1       0.238   9.985  19.765  0.00  0.00    +0.000 C 
BRANCH  22  23
ATOM     23  N   UNL     1       1.172   8.887  19.464  0.00  0.00    +0.000 N 
ATOM     24  C   UNL     1       1.940   8.900  18.336  0.00  0.00    +0.000 C 
ATOM     25  O   UNL     1       1.955   9.709  17.427  0.00  0.00    +0.000 OA
ATOM     26  C   UNL     1       2.779   7.712  18.378  0.00  0.00    +0.000 A 
ATOM     27  C   UNL     1       3.700   7.308  17.428  0.00  0.00    +0.000 A 
ATOM     28  C   UNL     1       4.386   6.125  17.667  0.00  0.00    +0.000 A 
ATOM     29  C   UNL     1       4.111   5.376  18.822  0.00  0.00    +0.000 A 
ATOM     30  C   UNL     1       3.113   5.762  19.745  0.00  0.00    +0.000 A 
ATOM     31  C   UNL     1       2.486   6.989  19.528  0.00  0.00    +0.000 A 
ATOM     32  C   UNL     1       1.465   7.793  20.252  0.00  0.00    +0.000 C 
ATOM     33  O   UNL     1       1.011   7.527  21.349  0.00  0.00    +0.000 OA
BRANCH  30  34
ATOM     34  O   UNL     1       2.780   4.958  20.806  0.00  0.00    +0.000 OA
BRANCH  34  35
ATOM     35  C   UNL     1       2.298   3.638  20.454  0.00  0.00    +0.000 C 
ATOM     36  C   UNL     1       2.305   2.710  21.671  0.00  0.00    +0.000 C 
ATOM     37  C   UNL     1       0.884   3.763  19.897  0.00  0.00    +0.000 C 
ENDBRANCH  34  35
ENDBRANCH  30  34
ENDBRANCH  22  23
ENDBRANCH  21  22
ENDBRANCH   2  21
TORSDOF 7
ENDMDL
