MODEL 1
REMARK VINA RESULT:      -7.6      0.000      0.000
REMARK  Name = 
REMARK  8 active torsions:
REMARK  status: ('A' for Active; 'I' for Inactive)
REMARK    1  A    between atoms: C_1  and  O_2
REMARK    2  A    between atoms: O_2  and  C_3
REMARK    3  A    between atoms: C_6  and  C_7
REMARK    4  A    between atoms: C_7  and  N_8
REMARK    5  A    between atoms: C_11  and  C_12
REMARK    6  A    between atoms: C_16  and  C_17
REMARK    7  A    between atoms: C_23  and  O_24
REMARK    8  A    between atoms: O_24  and  C_25
REMARK                            x       y       z     vdW  Elec       q    Type
REMARK                         _______ _______ _______ _____ _____    ______ ____
ROOT
ATOM      1  N   UNL     1       1.902   7.085  20.831  0.00  0.00    +0.000 N 
ATOM      2  C   UNL     1       2.226   5.916  20.142  0.00  0.00    +0.000 A 
ATOM      3  C   UNL     1       3.401   5.932  19.417  0.00  0.00    +0.000 A 
ATOM      4  C   UNL     1       3.778   4.774  18.769  0.00  0.00    +0.000 A 
ATOM      5  N   UNL     1       3.032   3.653  18.852  0.00  0.00    +0.000 NA
ATOM      6  C   UNL     1       1.920   3.734  19.599  0.00  0.00    +0.000 A 
ATOM      7  N   UNL     1       1.473   4.818  20.251  0.00  0.00    +0.000 NA
ATOM      8  H   UNL     1       2.466   7.131  21.676  0.00  0.00    +0.000 HD
ENDROOT
BRANCH   4   9
ATOM      9  C   UNL     1       5.010   4.688  17.959  0.00  0.00    +0.000 A 
ATOM     10  C   UNL     1       6.283   4.915  18.520  0.00  0.00    +0.000 A 
ATOM     11  C   UNL     1       7.448   4.840  17.753  0.00  0.00    +0.000 A 
ATOM     12  C   UNL     1       7.367   4.529  16.399  0.00  0.00    +0.000 A 
ATOM     13  C   UNL     1       6.121   4.292  15.816  0.00  0.00    +0.000 A 
ATOM     14  C   UNL     1       4.956   4.370  16.589  0.00  0.00    +0.000 A 
BRANCH  13  15
ATOM     15  C   UNL     1       6.038   3.966  14.423  0.00  0.00    +0.000 C 
ATOM     16  N   UNL     1       5.981   3.708  13.295  0.00  0.00    +0.000 NA
ENDBRANCH  13  15
ENDBRANCH   4   9
BRANCH   1  17
ATOM     17  C   UNL     1       0.492   7.319  21.130  0.00  0.00    +0.000 C 
BRANCH  17  21
ATOM     18  C   UNL     1      -0.198  11.570  21.742  0.00  0.00    +0.000 A 
ATOM     19  C   UNL     1      -0.491  10.662  22.754  0.00  0.00    +0.000 A 
ATOM     20  C   UNL     1      -0.269   9.301  22.559  0.00  0.00    +0.000 A 
ATOM     21  C   UNL     1       0.250   8.808  21.346  0.00  0.00    +0.000 A 
ATOM     22  C   UNL     1       0.569   9.733  20.334  0.00  0.00    +0.000 A 
ATOM     23  C   UNL     1       0.334  11.103  20.538  0.00  0.00    +0.000 A 
BRANCH  18  25
ATOM     24  C   UNL     1      -1.351  13.106  23.139  0.00  0.00    +0.000 C 
ATOM     25  O   UNL     1      -0.462  12.875  22.055  0.00  0.00    +0.000 OA
ENDBRANCH  18  25
BRANCH  22  26
ATOM     26  O   UNL     1       1.107   9.209  19.184  0.00  0.00    +0.000 OA
ATOM     27  C   UNL     1       1.668  10.129  18.253  0.00  0.00    +0.000 C 
ENDBRANCH  22  26
ENDBRANCH  17  21
ENDBRANCH   1  17
TORSDOF 6
ENDMDL
MODEL 2
REMARK VINA RESULT:      -7.4      3.007      4.334
REMARK  Name = 
REMARK  8 active torsions:
REMARK  status: ('A' for Active; 'I' for Inactive)
REMARK    1  A    between atoms: C_1  and  O_2
REMARK    2  A    between atoms: O_2  and  C_3
REMARK    3  A    between atoms: C_6  and  C_7
REMARK    4  A    between atoms: C_7  and  N_8
REMARK    5  A    between atoms: C_11  and  C_12
REMARK    6  A    between atoms: C_16  and  C_17
REMARK    7  A    between atoms: C_23  and  O_24
REMARK    8  A    between atoms: O_24  and  C_25
REMARK                            x       y       z     vdW  Elec       q    Type
REMARK                         _______ _______ _______ _____ _____    ______ ____
ROOT
ATOM      1  N   UNL     1       1.267  10.146  19.131  0.00  0.00    +0.000 N 
ATOM      2  C   UNL     1       1.508   8.833  19.535  0.00  0.00    +0.000 A 
ATOM      3  C   UNL     1       2.193   8.028  18.645  0.00  0.00    +0.000 A 
ATOM      4  C   UNL     1       2.496   6.741  19.037  0.00  0.00    +0.000 A 
ATOM      5  N   UNL     1       2.152   6.283  20.258  0.00  0.00    +0.000 NA
ATOM      6  C   UNL     1       1.508   7.149  21.057  0.00  0.00    +0.000 A 
ATOM      7  N   UNL     1       1.163   8.410  20.754  0.00  0.00    +0.000 NA
ATOM      8  H   UNL     1       2.121  10.683  19.245  0.00  0.00    +0.000 HD
ENDROOT
BRANCH   4   9
ATOM      9  C   UNL     1       3.216   5.797  18.157  0.00  0.00    +0.000 A 
ATOM     10  C   UNL     1       2.686   4.530  17.840  0.00  0.00    +0.000 A 
ATOM     11  C   UNL     1       3.370   3.635  17.014  0.00  0.00    +0.000 A 
ATOM     12  C   UNL     1       4.604   3.990  16.478  0.00  0.00    +0.000 A 
ATOM     13  C   UNL     1       5.150   5.241  16.768  0.00  0.00    +0.000 A 
ATOM     14  C   UNL     1       4.462   6.135  17.598  0.00  0.00    +0.000 A 
BRANCH  13  15
ATOM     15  C   UNL     1       6.419   5.610  16.211  0.00  0.00    +0.000 C 
ATOM     16  N   UNL     1       7.448   5.909  15.772  0.00  0.00    +0.000 NA
ENDBRANCH  13  15
ENDBRANCH   4   9
BRANCH   1  17
ATOM     17  C   UNL     1       0.129  10.834  19.734  0.00  0.00    +0.000 C 
BRANCH  17  21
ATOM     18  C   UNL     1      -3.229  10.857  16.968  0.00  0.00    +0.000 A 
ATOM     19  C   UNL     1      -2.113  10.070  16.706  0.00  0.00    +0.000 A 
ATOM     20  C   UNL     1      -1.037  10.061  17.591  0.00  0.00    +0.000 A 
ATOM     21  C   UNL     1      -1.046  10.841  18.764  0.00  0.00    +0.000 A 
ATOM     22  C   UNL     1      -2.188  11.616  19.039  0.00  0.00    +0.000 A 
ATOM     23  C   UNL     1      -3.264  11.623  18.135  0.00  0.00    +0.000 A 
BRANCH  18  25
ATOM     24  C   UNL     1      -3.828  10.331  14.731  0.00  0.00    +0.000 C 
ATOM     25  O   UNL     1      -4.213  10.780  16.023  0.00  0.00    +0.000 OA
ENDBRANCH  18  25
BRANCH  22  26
ATOM     26  O   UNL     1      -2.166  12.330  20.212  0.00  0.00    +0.000 OA
ATOM     27  C   UNL     1      -1.874  13.721  20.119  0.00  0.00    +0.000 C 
ENDBRANCH  22  26
ENDBRANCH  17  21
ENDBRANCH   1  17
TORSDOF 6
ENDMDL
MODEL 3
REMARK VINA RESULT:      -7.1      1.619      2.076
REMARK  Name = 
REMARK  8 active torsions:
REMARK  status: ('A' for Active; 'I' for Inactive)
REMARK    1  A    between atoms: C_1  and  O_2
REMARK    2  A    between atoms: O_2  and  C_3
REMARK    3  A    between atoms: C_6  and  C_7
REMARK    4  A    between atoms: C_7  and  N_8
REMARK    5  A    between atoms: C_11  and  C_12
REMARK    6  A    between atoms: C_16  and  C_17
REMARK    7  A    between atoms: C_23  and  O_24
REMARK    8  A    between atoms: O_24  and  C_25
REMARK                            x       y       z     vdW  Elec       q    Type
REMARK                         _______ _______ _______ _____ _____    ______ ____
ROOT
ATOM      1  N   UNL     1       1.972   9.315  17.842  0.00  0.00    +0.000 N 
ATOM      2  C   UNL     1       2.408   8.081  18.322  0.00  0.00    +0.000 A 
ATOM      3  C   UNL     1       3.508   7.528  17.695  0.00  0.00    +0.000 A 
ATOM      4  C   UNL     1       3.998   6.334  18.181  0.00  0.00    +0.000 A 
ATOM      5  N   UNL     1       3.434   5.729  19.247  0.00  0.00    +0.000 NA
ATOM      6  C   UNL     1       2.383   6.357  19.798  0.00  0.00    +0.000 A 
ATOM      7  N   UNL     1       1.835   7.510  19.384  0.00  0.00    +0.000 NA
ATOM      8  H   UNL     1       2.587  10.040  18.202  0.00  0.00    +0.000 HD
ENDROOT
BRANCH   4   9
ATOM      9  C   UNL     1       5.163   5.654  17.578  0.00  0.00    +0.000 A 
ATOM     10  C   UNL     1       6.351   5.437  18.303  0.00  0.00    +0.000 A 
ATOM     11  C   UNL     1       7.455   4.800  17.730  0.00  0.00    +0.000 A 
ATOM     12  C   UNL     1       7.393   4.359  16.412  0.00  0.00    +0.000 A 
ATOM     13  C   UNL     1       6.226   4.553  15.670  0.00  0.00    +0.000 A 
ATOM     14  C   UNL     1       5.123   5.193  16.249  0.00  0.00    +0.000 A 
BRANCH  13  15
ATOM     15  C   UNL     1       6.161   4.093  14.315  0.00  0.00    +0.000 C 
ATOM     16  N   UNL     1       6.113   3.711  13.222  0.00  0.00    +0.000 NA
ENDBRANCH  13  15
ENDBRANCH   4   9
BRANCH   1  17
ATOM     17  C   UNL     1       0.570   9.662  18.060  0.00  0.00    +0.000 C 
BRANCH  17  21
ATOM     18  C   UNL     1       0.203  12.151  21.609  0.00  0.00    +0.000 A 
ATOM     19  C   UNL     1      -0.476  10.940  21.532  0.00  0.00    +0.000 A 
ATOM     20  C   UNL     1      -0.359  10.142  20.397  0.00  0.00    +0.000 A 
ATOM     21  C   UNL     1       0.440  10.533  19.304  0.00  0.00    +0.000 A 
ATOM     22  C   UNL     1       1.146  11.747  19.397  0.00  0.00    +0.000 A 
ATOM     23  C   UNL     1       1.015  12.548  20.543  0.00  0.00    +0.000 A 
BRANCH  18  25
ATOM     24  C   UNL     1      -1.182  13.619  22.860  0.00  0.00    +0.000 C 
ATOM     25  O   UNL     1       0.004  12.842  22.772  0.00  0.00    +0.000 OA
ENDBRANCH  18  25
BRANCH  22  26
ATOM     26  O   UNL     1       1.941  12.068  18.324  0.00  0.00    +0.000 OA
ATOM     27  C   UNL     1       2.420  13.407  18.248  0.00  0.00    +0.000 C 
ENDBRANCH  22  26
ENDBRANCH  17  21
ENDBRANCH   1  17
TORSDOF 6
ENDMDL
MODEL 4
REMARK VINA RESULT:      -7.1      1.035      1.179
REMARK  Name = 
REMARK  8 active torsions:
REMARK  status: ('A' for Active; 'I' for Inactive)
REMARK    1  A    between atoms: C_1  and  O_2
REMARK    2  A    between atoms: O_2  and  C_3
REMARK    3  A    between atoms: C_6  and  C_7
REMARK    4  A    between atoms: C_7  and  N_8
REMARK    5  A    between atoms: C_11  and  C_12
REMARK    6  A    between atoms: C_16  and  C_17
REMARK    7  A    between atoms: C_23  and  O_24
REMARK    8  A    between atoms: O_24  and  C_25
REMARK                            x       y       z     vdW  Elec       q    Type
REMARK                         _______ _______ _______ _____ _____    ______ ____
ROOT
ATOM      1  N   UNL     1       2.533   6.693  20.251  0.00  0.00    +0.000 N 
ATOM      2  C   UNL     1       2.722   5.659  19.333  0.00  0.00    +0.000 A 
ATOM      3  C   UNL     1       3.788   5.792  18.465  0.00  0.00    +0.000 A 
ATOM      4  C   UNL     1       4.036   4.761  17.582  0.00  0.00    +0.000 A 
ATOM      5  N   UNL     1       3.273   3.649  17.575  0.00  0.00    +0.000 NA
ATOM      6  C   UNL     1       2.275   3.608  18.472  0.00  0.00    +0.000 A 
ATOM      7  N   UNL     1       1.956   4.565  19.355  0.00  0.00    +0.000 NA
ATOM      8  H   UNL     1       3.207   6.586  21.004  0.00  0.00    +0.000 HD
ENDROOT
BRANCH   4   9
ATOM      9  C   UNL     1       5.144   4.807  16.606  0.00  0.00    +0.000 A 
ATOM     10  C   UNL     1       6.361   5.456  16.897  0.00  0.00    +0.000 A 
ATOM     11  C   UNL     1       7.406   5.505  15.972  0.00  0.00    +0.000 A 
ATOM     12  C   UNL     1       7.260   4.899  14.728  0.00  0.00    +0.000 A 
ATOM     13  C   UNL     1       6.069   4.242  14.413  0.00  0.00    +0.000 A 
ATOM     14  C   UNL     1       5.023   4.197  15.344  0.00  0.00    +0.000 A 
BRANCH  13  15
ATOM     15  C   UNL     1       5.920   3.612  13.134  0.00  0.00    +0.000 C 
ATOM     16  N   UNL     1       5.790   3.099  12.105  0.00  0.00    +0.000 NA
ENDBRANCH  13  15
ENDBRANCH   4   9
BRANCH   1  17
ATOM     17  C   UNL     1       1.185   6.883  20.778  0.00  0.00    +0.000 C 
BRANCH  17  21
ATOM     18  C   UNL     1       0.470  11.112  21.505  0.00  0.00    +0.000 A 
ATOM     19  C   UNL     1       0.419  10.204  22.557  0.00  0.00    +0.000 A 
ATOM     20  C   UNL     1       0.648   8.850  22.326  0.00  0.00    +0.000 A 
ATOM     21  C   UNL     1       0.934   8.364  21.034  0.00  0.00    +0.000 A 
ATOM     22  C   UNL     1       1.010   9.290  19.977  0.00  0.00    +0.000 A 
ATOM     23  C   UNL     1       0.769  10.652  20.220  0.00  0.00    +0.000 A 
BRANCH  18  25
ATOM     24  C   UNL     1      -1.131  12.834  21.838  0.00  0.00    +0.000 C 
ATOM     25  O   UNL     1       0.224  12.409  21.861  0.00  0.00    +0.000 OA
ENDBRANCH  18  25
BRANCH  22  26
ATOM     26  O   UNL     1       1.327   8.774  18.744  0.00  0.00    +0.000 OA
ATOM     27  C   UNL     1       2.045   9.622  17.852  0.00  0.00    +0.000 C 
ENDBRANCH  22  26
ENDBRANCH  17  21
ENDBRANCH   1  17
TORSDOF 6
ENDMDL
MODEL 5
REMARK VINA RESULT:      -7.1      1.269      2.165
REMARK  Name = 
REMARK  8 active torsions:
REMARK  status: ('A' for Active; 'I' for Inactive)
REMARK    1  A    between atoms: C_1  and  O_2
REMARK    2  A    between atoms: O_2  and  C_3
REMARK    3  A    between atoms: C_6  and  C_7
REMARK    4  A    between atoms: C_7  and  N_8
REMARK    5  A    between atoms: C_11  and  C_12
REMARK    6  A    between atoms: C_16  and  C_17
REMARK    7  A    between atoms: C_23  and  O_24
REMARK    8  A    between atoms: O_24  and  C_25
REMARK                            x       y       z     vdW  Elec       q    Type
REMARK                         _______ _______ _______ _____ _____    ______ ____
ROOT
ATOM      1  N   UNL     1       2.240   7.465  20.692  0.00  0.00    +0.000 N 
ATOM      2  C   UNL     1       2.406   6.288  19.963  0.00  0.00    +0.000 A 
ATOM      3  C   UNL     1       3.580   6.168  19.243  0.00  0.00    +0.000 A 
ATOM      4  C   UNL     1       3.800   4.993  18.555  0.00  0.00    +0.000 A 
ATOM      5  N   UNL     1       2.907   3.983  18.595  0.00  0.00    +0.000 NA
ATOM      6  C   UNL     1       1.810   4.190  19.339  0.00  0.00    +0.000 A 
ATOM      7  N   UNL     1       1.510   5.301  20.028  0.00  0.00    +0.000 NA
ATOM      8  H   UNL     1       2.797   7.404  21.540  0.00  0.00    +0.000 HD
ENDROOT
BRANCH   4   9
ATOM      9  C   UNL     1       5.017   4.767  17.748  0.00  0.00    +0.000 A 
ATOM     10  C   UNL     1       6.306   4.857  18.311  0.00  0.00    +0.000 A 
ATOM     11  C   UNL     1       7.457   4.650  17.546  0.00  0.00    +0.000 A 
ATOM     12  C   UNL     1       7.343   4.341  16.194  0.00  0.00    +0.000 A 
ATOM     13  C   UNL     1       6.080   4.237  15.610  0.00  0.00    +0.000 A 
ATOM     14  C   UNL     1       4.929   4.448  16.381  0.00  0.00    +0.000 A 
BRANCH  13  15
ATOM     15  C   UNL     1       5.963   3.913  14.219  0.00  0.00    +0.000 C 
ATOM     16  N   UNL     1       5.867   3.663  13.092  0.00  0.00    +0.000 NA
ENDBRANCH  13  15
ENDBRANCH   4   9
BRANCH   1  17
ATOM     17  C   UNL     1       0.873   7.880  20.992  0.00  0.00    +0.000 C 
BRANCH  17  21
ATOM     18  C   UNL     1       0.116  11.818  19.305  0.00  0.00    +0.000 A 
ATOM     19  C   UNL     1       0.717  10.831  18.532  0.00  0.00    +0.000 A 
ATOM     20  C   UNL     1       0.959   9.570  19.071  0.00  0.00    +0.000 A 
ATOM     21  C   UNL     1       0.609   9.260  20.400  0.00  0.00    +0.000 A 
ATOM     22  C   UNL     1      -0.022  10.254  21.171  0.00  0.00    +0.000 A 
ATOM     23  C   UNL     1      -0.254  11.525  20.620  0.00  0.00    +0.000 A 
BRANCH  18  25
ATOM     24  C   UNL     1       0.482  14.165  19.289  0.00  0.00    +0.000 C 
ATOM     25  O   UNL     1      -0.064  13.012  18.663  0.00  0.00    +0.000 OA
ENDBRANCH  18  25
BRANCH  22  26
ATOM     26  O   UNL     1      -0.378   9.893  22.447  0.00  0.00    +0.000 OA
ATOM     27  C   UNL     1      -1.221  10.791  23.164  0.00  0.00    +0.000 C 
ENDBRANCH  22  26
ENDBRANCH  17  21
ENDBRANCH   1  17
TORSDOF 6
ENDMDL
MODEL 6
REMARK VINA RESULT:      -7.1      3.027      4.297
REMARK  Name = 
REMARK  8 active torsions:
REMARK  status: ('A' for Active; 'I' for Inactive)
REMARK    1  A    between atoms: C_1  and  O_2
REMARK    2  A    between atoms: O_2  and  C_3
REMARK    3  A    between atoms: C_6  and  C_7
REMARK    4  A    between atoms: C_7  and  N_8
REMARK    5  A    between atoms: C_11  and  C_12
REMARK    6  A    between atoms: C_16  and  C_17
REMARK    7  A    between atoms: C_23  and  O_24
REMARK    8  A    between atoms: O_24  and  C_25
REMARK                            x       y       z     vdW  Elec       q    Type
REMARK                         _______ _______ _______ _____ _____    ______ ____
ROOT
ATOM      1  N   UNL     1       1.289  10.445  18.068  0.00  0.00    +0.000 N 
ATOM      2  C   UNL     1       1.551   9.238  18.717  0.00  0.00    +0.000 A 
ATOM      3  C   UNL     1       2.202   8.268  17.979  0.00  0.00    +0.000 A 
ATOM      4  C   UNL     1       2.525   7.084  18.608  0.00  0.00    +0.000 A 
ATOM      5  N   UNL     1       2.232   6.882  19.909  0.00  0.00    +0.000 NA
ATOM      6  C   UNL     1       1.619   7.894  20.544  0.00  0.00    +0.000 A 
ATOM      7  N   UNL     1       1.258   9.070  20.009  0.00  0.00    +0.000 NA
ATOM      8  H   UNL     1       2.146  10.990  18.037  0.00  0.00    +0.000 HD
ENDROOT
BRANCH   4   9
ATOM      9  C   UNL     1       3.211   5.980  17.907  0.00  0.00    +0.000 A 
ATOM     10  C   UNL     1       2.662   4.683  17.852  0.00  0.00    +0.000 A 
ATOM     11  C   UNL     1       3.314   3.637  17.194  0.00  0.00    +0.000 A 
ATOM     12  C   UNL     1       4.535   3.866  16.569  0.00  0.00    +0.000 A 
ATOM     13  C   UNL     1       5.101   5.142  16.600  0.00  0.00    +0.000 A 
ATOM     14  C   UNL     1       4.445   6.187  17.262  0.00  0.00    +0.000 A 
BRANCH  13  15
ATOM     15  C   UNL     1       6.357   5.379  15.950  0.00  0.00    +0.000 C 
ATOM     16  N   UNL     1       7.377   5.568  15.436  0.00  0.00    +0.000 NA
ENDBRANCH  13  15
ENDBRANCH   4   9
BRANCH   1  17
ATOM     17  C   UNL     1       0.176  11.246  18.567  0.00  0.00    +0.000 C 
BRANCH  17  21
ATOM     18  C   UNL     1       1.369  15.419  18.865  0.00  0.00    +0.000 A 
ATOM     19  C   UNL     1       2.274  14.465  18.412  0.00  0.00    +0.000 A 
ATOM     20  C   UNL     1       1.893  13.129  18.316  0.00  0.00    +0.000 A 
ATOM     21  C   UNL     1       0.596  12.708  18.671  0.00  0.00    +0.000 A 
ATOM     22  C   UNL     1      -0.324  13.681  19.104  0.00  0.00    +0.000 A 
ATOM     23  C   UNL     1       0.073  15.024  19.205  0.00  0.00    +0.000 A 
BRANCH  18  25
ATOM     24  C   UNL     1       1.003  17.734  18.481  0.00  0.00    +0.000 C 
ATOM     25  O   UNL     1       1.865  16.692  18.917  0.00  0.00    +0.000 OA
ENDBRANCH  18  25
BRANCH  22  26
ATOM     26  O   UNL     1      -1.586  13.229  19.402  0.00  0.00    +0.000 OA
ATOM     27  C   UNL     1      -2.038  13.404  20.742  0.00  0.00    +0.000 C 
ENDBRANCH  22  26
ENDBRANCH  17  21
ENDBRANCH   1  17
TORSDOF 6
ENDMDL
MODEL 7
REMARK VINA RESULT:      -7.1      2.850      4.841
REMARK  Name = 
REMARK  8 active torsions:
REMARK  status: ('A' for Active; 'I' for Inactive)
REMARK    1  A    between atoms: C_1  and  O_2
REMARK    2  A    between atoms: O_2  and  C_3
REMARK    3  A    between atoms: C_6  and  C_7
REMARK    4  A    between atoms: C_7  and  N_8
REMARK    5  A    between atoms: C_11  and  C_12
REMARK    6  A    between atoms: C_16  and  C_17
REMARK    7  A    between atoms: C_23  and  O_24
REMARK    8  A    between atoms: O_24  and  C_25
REMARK                            x       y       z     vdW  Elec       q    Type
REMARK                         _______ _______ _______ _____ _____    ______ ____
ROOT
ATOM      1  N   UNL     1       0.025  10.162  21.266  0.00  0.00    +0.000 N 
ATOM      2  C   UNL     1       0.807   9.663  20.225  0.00  0.00    +0.000 A 
ATOM      3  C   UNL     1       1.291   8.378  20.377  0.00  0.00    +0.000 A 
ATOM      4  C   UNL     1       2.022   7.834  19.342  0.00  0.00    +0.000 A 
ATOM      5  N   UNL     1       2.245   8.526  18.206  0.00  0.00    +0.000 NA
ATOM      6  C   UNL     1       1.715   9.758  18.147  0.00  0.00    +0.000 A 
ATOM      7  N   UNL     1       1.005  10.368  19.108  0.00  0.00    +0.000 NA
ATOM      8  H   UNL     1      -0.907   9.764  21.193  0.00  0.00    +0.000 HD
ENDROOT
BRANCH   4   9
ATOM      9  C   UNL     1       2.592   6.473  19.408  0.00  0.00    +0.000 A 
ATOM     10  C   UNL     1       3.639   6.066  18.556  0.00  0.00    +0.000 A 
ATOM     11  C   UNL     1       4.174   4.777  18.614  0.00  0.00    +0.000 A 
ATOM     12  C   UNL     1       3.674   3.860  19.534  0.00  0.00    +0.000 A 
ATOM     13  C   UNL     1       2.642   4.236  20.396  0.00  0.00    +0.000 A 
ATOM     14  C   UNL     1       2.108   5.529  20.333  0.00  0.00    +0.000 A 
BRANCH  13  15
ATOM     15  C   UNL     1       2.132   3.293  21.347  0.00  0.00    +0.000 C 
ATOM     16  N   UNL     1       1.727   2.524  22.112  0.00  0.00    +0.000 NA
ENDBRANCH  13  15
ENDBRANCH   4   9
BRANCH   1  17
ATOM     17  C   UNL     1      -0.037  11.613  21.422  0.00  0.00    +0.000 C 
BRANCH  17  21
ATOM     18  C   UNL     1      -4.102  12.824  22.389  0.00  0.00    +0.000 A 
ATOM     19  C   UNL     1      -3.231  12.432  23.400  0.00  0.00    +0.000 A 
ATOM     20  C   UNL     1      -1.929  12.045  23.092  0.00  0.00    +0.000 A 
ATOM     21  C   UNL     1      -1.460  12.036  21.763  0.00  0.00    +0.000 A 
ATOM     22  C   UNL     1      -2.338  12.458  20.746  0.00  0.00    +0.000 A 
ATOM     23  C   UNL     1      -3.651  12.839  21.067  0.00  0.00    +0.000 A 
BRANCH  18  25
ATOM     24  C   UNL     1      -5.477  14.445  23.447  0.00  0.00    +0.000 C 
ATOM     25  O   UNL     1      -5.350  13.177  22.820  0.00  0.00    +0.000 OA
ENDBRANCH  18  25
BRANCH  22  26
ATOM     26  O   UNL     1      -1.825  12.469  19.472  0.00  0.00    +0.000 OA
ATOM     27  C   UNL     1      -2.431  11.598  18.521  0.00  0.00    +0.000 C 
ENDBRANCH  22  26
ENDBRANCH  17  21
ENDBRANCH   1  17
TORSDOF 6
ENDMDL
MODEL 8
REMARK VINA RESULT:      -7.1      1.576      2.342
REMARK  Name = 
REMARK  8 active torsions:
REMARK  status: ('A' for Active; 'I' for Inactive)
REMARK    1  A    between atoms: C_1  and  O_2
REMARK    2  A    between atoms: O_2  and  C_3
REMARK    3  A    between atoms: C_6  and  C_7
REMARK    4  A    between atoms: C_7  and  N_8
REMARK    5  A    between atoms: C_11  and  C_12
REMARK    6  A    between atoms: C_16  and  C_17
REMARK    7  A    between atoms: C_23  and  O_24
REMARK    8  A    between atoms: O_24  and  C_25
REMARK                            x       y       z     vdW  Elec       q    Type
REMARK                         _______ _______ _______ _____ _____    ______ ____
ROOT
ATOM      1  N   UNL     1       2.691   6.948  20.154  0.00  0.00    +0.000 N 
ATOM      2  C   UNL     1       2.761   5.916  19.219  0.00  0.00    +0.000 A 
ATOM      3  C   UNL     1       3.836   5.941  18.351  0.00  0.00    +0.000 A 
ATOM      4  C   UNL     1       3.965   4.904  17.450  0.00  0.00    +0.000 A 
ATOM      5  N   UNL     1       3.081   3.886  17.426  0.00  0.00    +0.000 NA
ATOM      6  C   UNL     1       2.085   3.943  18.324  0.00  0.00    +0.000 A 
ATOM      7  N   UNL     1       1.876   4.916  19.224  0.00  0.00    +0.000 NA
ATOM      8  H   UNL     1       3.349   6.753  20.904  0.00  0.00    +0.000 HD
ENDROOT
BRANCH   4   9
ATOM      9  C   UNL     1       5.071   4.841  16.473  0.00  0.00    +0.000 A 
ATOM     10  C   UNL     1       6.344   5.375  16.759  0.00  0.00    +0.000 A 
ATOM     11  C   UNL     1       7.388   5.320  15.832  0.00  0.00    +0.000 A 
ATOM     12  C   UNL     1       7.183   4.723  14.593  0.00  0.00    +0.000 A 
ATOM     13  C   UNL     1       5.936   4.178  14.283  0.00  0.00    +0.000 A 
ATOM     14  C   UNL     1       4.892   4.237  15.215  0.00  0.00    +0.000 A 
BRANCH  13  15
ATOM     15  C   UNL     1       5.727   3.558  13.008  0.00  0.00    +0.000 C 
ATOM     16  N   UNL     1       5.548   3.062  11.977  0.00  0.00    +0.000 NA
ENDBRANCH  13  15
ENDBRANCH   4   9
BRANCH   1  17
ATOM     17  C   UNL     1       1.373   7.282  20.687  0.00  0.00    +0.000 C 
BRANCH  17  21
ATOM     18  C   UNL     1       0.217  11.271  19.393  0.00  0.00    +0.000 A 
ATOM     19  C   UNL     1       1.093  10.514  18.623  0.00  0.00    +0.000 A 
ATOM     20  C   UNL     1       1.463   9.236  19.035  0.00  0.00    +0.000 A 
ATOM     21  C   UNL     1       0.970   8.679  20.232  0.00  0.00    +0.000 A 
ATOM     22  C   UNL     1       0.063   9.439  20.995  0.00  0.00    +0.000 A 
ATOM     23  C   UNL     1      -0.297  10.730  20.573  0.00  0.00    +0.000 A 
BRANCH  18  25
ATOM     24  C   UNL     1      -1.208  13.171  19.403  0.00  0.00    +0.000 C 
ATOM     25  O   UNL     1      -0.065  12.508  18.882  0.00  0.00    +0.000 OA
ENDBRANCH  18  25
BRANCH  22  26
ATOM     26  O   UNL     1      -0.420   8.840  22.132  0.00  0.00    +0.000 OA
ATOM     27  C   UNL     1      -0.286   9.562  23.353  0.00  0.00    +0.000 C 
ENDBRANCH  22  26
ENDBRANCH  17  21
ENDBRANCH   1  17
TORSDOF 6
ENDMDL
MODEL 9
REMARK VINA RESULT:      -7.0      3.418      5.857
REMARK  Name = 
REMARK  8 active torsions:
REMARK  status: ('A' for Active; 'I' for Inactive)
REMARK    1  A    between atoms: C_1  and  O_2
REMARK    2  A    between atoms: O_2  and  C_3
REMARK    3  A    between atoms: C_6  and  C_7
REMARK    4  A    between atoms: C_7  and  N_8
REMARK    5  A    between atoms: C_11  and  C_12
REMARK    6  A    between atoms: C_16  and  C_17
REMARK    7  A    between atoms: C_23  and  O_24
REMARK    8  A    between atoms: O_24  and  C_25
REMARK                            x       y       z     vdW  Elec       q    Type
REMARK                         _______ _______ _______ _____ _____    ______ ____
ROOT
ATOM      1  N   UNL     1       0.605  11.452  18.609  0.00  0.00    +0.000 N 
ATOM      2  C   UNL     1       0.831  10.501  19.603  0.00  0.00    +0.000 A 
ATOM      3  C   UNL     1       1.228   9.247  19.180  0.00  0.00    +0.000 A 
ATOM      4  C   UNL     1       1.513   8.300  20.142  0.00  0.00    +0.000 A 
ATOM      5  N   UNL     1       1.424   8.589  21.456  0.00  0.00    +0.000 NA
ATOM      6  C   UNL     1       1.050   9.842  21.764  0.00  0.00    +0.000 A 
ATOM      7  N   UNL     1       0.744  10.819  20.897  0.00  0.00    +0.000 NA
ATOM      8  H   UNL     1       1.503  11.805  18.287  0.00  0.00    +0.000 HD
ENDROOT
BRANCH   4   9
ATOM      9  C   UNL     1       1.936   6.927  19.796  0.00  0.00    +0.000 A 
ATOM     10  C   UNL     1       2.552   6.630  18.564  0.00  0.00    +0.000 A 
ATOM     11  C   UNL     1       2.946   5.331  18.235  0.00  0.00    +0.000 A 
ATOM     12  C   UNL     1       2.736   4.293  19.137  0.00  0.00    +0.000 A 
ATOM     13  C   UNL     1       2.135   4.557  20.369  0.00  0.00    +0.000 A 
ATOM     14  C   UNL     1       1.740   5.861  20.694  0.00  0.00    +0.000 A 
BRANCH  13  15
ATOM     15  C   UNL     1       1.923   3.490  21.301  0.00  0.00    +0.000 C 
ATOM     16  N   UNL     1       1.755   2.619  22.046  0.00  0.00    +0.000 NA
ENDBRANCH  13  15
ENDBRANCH   4   9
BRANCH   1  17
ATOM     17  C   UNL     1      -0.306  12.549  18.924  0.00  0.00    +0.000 C 
BRANCH  17  21
ATOM     18  C   UNL     1      -4.395  11.387  18.001  0.00  0.00    +0.000 A 
ATOM     19  C   UNL     1      -3.377  11.147  17.084  0.00  0.00    +0.000 A 
ATOM     20  C   UNL     1      -2.067  11.518  17.379  0.00  0.00    +0.000 A 
ATOM     21  C   UNL     1      -1.738  12.141  18.598  0.00  0.00    +0.000 A 
ATOM     22  C   UNL     1      -2.767  12.359  19.534  0.00  0.00    +0.000 A 
ATOM     23  C   UNL     1      -4.086  11.988  19.223  0.00  0.00    +0.000 A 
BRANCH  18  25
ATOM     24  C   UNL     1      -6.568  10.648  18.611  0.00  0.00    +0.000 C 
ATOM     25  O   UNL     1      -5.635  10.980  17.592  0.00  0.00    +0.000 OA
ENDBRANCH  18  25
BRANCH  22  26
ATOM     26  O   UNL     1      -2.391  12.935  20.722  0.00  0.00    +0.000 OA
ATOM     27  C   UNL     1      -3.242  13.947  21.251  0.00  0.00    +0.000 C 
ENDBRANCH  22  26
ENDBRANCH  17  21
ENDBRANCH   1  17
TORSDOF 6
ENDMDL
