MODEL 1
REMARK VINA RESULT:      -7.8      0.000      0.000
REMARK  Name = 
REMARK  5 active torsions:
REMARK  status: ('A' for Active; 'I' for Inactive)
REMARK    1  A    between atoms: C_1  and  C_2
REMARK    2  A    between atoms: C_2  and  N_3
REMARK    3  A    between atoms: C_7  and  C_8
REMARK    4  A    between atoms: N_10  and  C_11
REMARK    5  A    between atoms: C_15  and  C_16
REMARK                            x       y       z     vdW  Elec       q    Type
REMARK                         _______ _______ _______ _____ _____    ______ ____
ROOT
ATOM      1  C   UNL     1       4.594   4.498  17.691  0.00  0.00    +0.000 C 
ATOM      2  C   UNL     1       4.170   5.957  17.434  0.00  0.00    +0.000 C 
ATOM      3  C   UNL     1       5.103   6.741  16.516  0.00  0.00    +0.000 C 
ATOM      4  C   UNL     1       5.581   5.964  15.282  0.00  0.00    +0.000 C 
ATOM      5  C   UNL     1       5.988   4.498  15.543  0.00  0.00    +0.000 C 
ATOM      6  C   UNL     1       6.287   3.890  14.156  0.00  0.00    +0.000 C 
ATOM      7  C   UNL     1       7.264   4.347  16.392  0.00  0.00    +0.000 C 
ATOM      8  C   UNL     1       7.161   4.957  17.790  0.00  0.00    +0.000 C 
ATOM      9  C   UNL     1       5.903   4.465  18.523  0.00  0.00    +0.000 C 
ATOM     10  C   UNL     1       7.286   6.468  17.791  0.00  0.00    +0.000 A 
ATOM     11  C   UNL     1       8.426   7.059  18.362  0.00  0.00    +0.000 A 
ATOM     12  C   UNL     1       8.572   8.447  18.405  0.00  0.00    +0.000 A 
ATOM     13  C   UNL     1       7.581   9.266  17.878  0.00  0.00    +0.000 A 
ATOM     14  C   UNL     1       6.457   8.698  17.294  0.00  0.00    +0.000 A 
ATOM     15  C   UNL     1       6.300   7.301  17.237  0.00  0.00    +0.000 A 
ATOM     16  C   UNL     1       4.836   3.803  16.311  0.00  0.00    +0.000 C 
ENDROOT
BRANCH   1  19
ATOM     17  C   UNL     1       2.183   4.029  18.335  0.00  0.00    +0.000 C 
ATOM     18  O   UNL     1       1.750   4.765  17.440  0.00  0.00    +0.000 OA
ATOM     19  N   UNL     1       3.539   3.821  18.497  0.00  0.00    +0.000 N 
ATOM     20  H   UNL     1       3.817   3.204  19.254  0.00  0.00    +0.000 HD
BRANCH  17  25
ATOM     21  N   UNL     1       0.974   4.060  20.647  0.00  0.00    +0.000 NA
ATOM     22  C   UNL     1       1.029   2.985  21.670  0.00  0.00    +0.000 C 
ATOM     23  C   UNL     1       2.104   2.038  21.189  0.00  0.00    +0.000 C 
ATOM     24  C   UNL     1       1.782   1.940  19.716  0.00  0.00    +0.000 C 
ATOM     25  C   UNL     1       1.235   3.334  19.348  0.00  0.00    +0.000 C 
BRANCH  21  27
ATOM     26  C   UNL     1       1.471   6.562  20.716  0.00  0.00    +0.000 C 
ATOM     27  C   UNL     1       1.959   5.129  20.908  0.00  0.00    +0.000 C 
ENDBRANCH  21  27
ENDBRANCH  17  25
ENDBRANCH   1  19
TORSDOF 3
ENDMDL
MODEL 2
REMARK VINA RESULT:      -7.0      3.689      6.544
REMARK  Name = 
REMARK  5 active torsions:
REMARK  status: ('A' for Active; 'I' for Inactive)
REMARK    1  A    between atoms: C_1  and  C_2
REMARK    2  A    between atoms: C_2  and  N_3
REMARK    3  A    between atoms: C_7  and  C_8
REMARK    4  A    between atoms: N_10  and  C_11
REMARK    5  A    between atoms: C_15  and  C_16
REMARK                            x       y       z     vdW  Elec       q    Type
REMARK                         _______ _______ _______ _____ _____    ______ ____
ROOT
ATOM      1  C   UNL     1       2.424   7.214  18.157  0.00  0.00    +0.000 C 
ATOM      2  C   UNL     1       2.508   7.074  19.688  0.00  0.00    +0.000 C 
ATOM      3  C   UNL     1       3.278   5.851  20.177  0.00  0.00    +0.000 C 
ATOM      4  C   UNL     1       4.581   5.574  19.416  0.00  0.00    +0.000 C 
ATOM      5  C   UNL     1       4.495   5.732  17.883  0.00  0.00    +0.000 C 
ATOM      6  C   UNL     1       5.936   5.549  17.359  0.00  0.00    +0.000 C 
ATOM      7  C   UNL     1       3.621   4.668  17.194  0.00  0.00    +0.000 C 
ATOM      8  C   UNL     1       2.161   4.668  17.649  0.00  0.00    +0.000 C 
ATOM      9  C   UNL     1       1.550   6.075  17.567  0.00  0.00    +0.000 C 
ATOM     10  C   UNL     1       1.959   4.020  19.005  0.00  0.00    +0.000 A 
ATOM     11  C   UNL     1       1.271   2.798  19.082  0.00  0.00    +0.000 A 
ATOM     12  C   UNL     1       1.043   2.178  20.313  0.00  0.00    +0.000 A 
ATOM     13  C   UNL     1       1.499   2.768  21.484  0.00  0.00    +0.000 A 
ATOM     14  C   UNL     1       2.197   3.967  21.423  0.00  0.00    +0.000 A 
ATOM     15  C   UNL     1       2.441   4.600  20.190  0.00  0.00    +0.000 A 
ATOM     16  C   UNL     1       3.872   7.116  17.571  0.00  0.00    +0.000 C 
ENDROOT
BRANCH   1  19
ATOM     17  C   UNL     1       0.999   9.241  18.711  0.00  0.00    +0.000 C 
ATOM     18  O   UNL     1       0.880   8.895  19.892  0.00  0.00    +0.000 OA
ATOM     19  N   UNL     1       1.757   8.503  17.822  0.00  0.00    +0.000 N 
ATOM     20  H   UNL     1       1.806   8.852  16.869  0.00  0.00    +0.000 HD
BRANCH  17  25
ATOM     21  N   UNL     1       0.701  11.833  18.707  0.00  0.00    +0.000 NA
ATOM     22  C   UNL     1      -0.579  12.560  18.899  0.00  0.00    +0.000 C 
ATOM     23  C   UNL     1      -1.570  11.505  19.335  0.00  0.00    +0.000 C 
ATOM     24  C   UNL     1      -1.245  10.376  18.385  0.00  0.00    +0.000 C 
ATOM     25  C   UNL     1       0.274  10.494  18.152  0.00  0.00    +0.000 C 
BRANCH  21  27
ATOM     26  C   UNL     1       1.839  13.015  20.660  0.00  0.00    +0.000 C 
ATOM     27  C   UNL     1       1.466  11.710  19.963  0.00  0.00    +0.000 C 
ENDBRANCH  21  27
ENDBRANCH  17  25
ENDBRANCH   1  19
TORSDOF 3
ENDMDL
MODEL 3
REMARK VINA RESULT:      -6.7      8.508     11.788
REMARK  Name = 
REMARK  5 active torsions:
REMARK  status: ('A' for Active; 'I' for Inactive)
REMARK    1  A    between atoms: C_1  and  C_2
REMARK    2  A    between atoms: C_2  and  N_3
REMARK    3  A    between atoms: C_7  and  C_8
REMARK    4  A    between atoms: N_10  and  C_11
REMARK    5  A    between atoms: C_15  and  C_16
REMARK                            x       y       z     vdW  Elec       q    Type
REMARK                         _______ _______ _______ _____ _____    ______ ____
ROOT
ATOM      1  C   UNL     1      -2.846  13.404  20.543  0.00  0.00    +0.000 C 
ATOM      2  C   UNL     1      -2.823  12.910  22.002  0.00  0.00    +0.000 C 
ATOM      3  C   UNL     1      -1.434  12.596  22.549  0.00  0.00    +0.000 C 
ATOM      4  C   UNL     1      -0.359  13.630  22.184  0.00  0.00    +0.000 C 
ATOM      5  C   UNL     1      -0.398  14.135  20.727  0.00  0.00    +0.000 C 
ATOM      6  C   UNL     1       0.663  15.252  20.639  0.00  0.00    +0.000 C 
ATOM      7  C   UNL     1      -0.020  13.064  19.685  0.00  0.00    +0.000 C 
ATOM      8  C   UNL     1      -0.941  11.844  19.679  0.00  0.00    +0.000 C 
ATOM      9  C   UNL     1      -2.418  12.259  19.588  0.00  0.00    +0.000 C 
ATOM     10  C   UNL     1      -0.672  10.889  20.826  0.00  0.00    +0.000 A 
ATOM     11  C   UNL     1      -0.126   9.625  20.547  0.00  0.00    +0.000 A 
ATOM     12  C   UNL     1       0.118   8.705  21.569  0.00  0.00    +0.000 A 
ATOM     13  C   UNL     1      -0.181   9.033  22.885  0.00  0.00    +0.000 A 
ATOM     14  C   UNL     1      -0.704  10.285  23.180  0.00  0.00    +0.000 A 
ATOM     15  C   UNL     1      -0.947  11.225  22.161  0.00  0.00    +0.000 A 
ATOM     16  C   UNL     1      -1.843  14.597  20.411  0.00  0.00    +0.000 C 
ENDROOT
BRANCH   1  19
ATOM     17  C   UNL     1      -5.368  13.129  20.634  0.00  0.00    +0.000 C 
ATOM     18  O   UNL     1      -5.287  12.197  21.443  0.00  0.00    +0.000 OA
ATOM     19  N   UNL     1      -4.240  13.786  20.181  0.00  0.00    +0.000 N 
ATOM     20  H   UNL     1      -4.389  14.540  19.518  0.00  0.00    +0.000 HD
BRANCH  17  25
ATOM     21  N   UNL     1      -7.401  12.653  19.069  0.00  0.00    +0.000 NA
ATOM     22  C   UNL     1      -7.916  13.561  18.013  0.00  0.00    +0.000 C 
ATOM     23  C   UNL     1      -6.879  14.654  17.893  0.00  0.00    +0.000 C 
ATOM     24  C   UNL     1      -6.580  14.947  19.344  0.00  0.00    +0.000 C 
ATOM     25  C   UNL     1      -6.733  13.585  20.051  0.00  0.00    +0.000 C 
BRANCH  21  27
ATOM     26  C   UNL     1      -6.827  10.181  18.805  0.00  0.00    +0.000 C 
ATOM     27  C   UNL     1      -6.474  11.639  18.527  0.00  0.00    +0.000 C 
ENDBRANCH  21  27
ENDBRANCH  17  25
ENDBRANCH   1  19
TORSDOF 3
ENDMDL
MODEL 4
REMARK VINA RESULT:      -6.6      7.813     11.001
REMARK  Name = 
REMARK  5 active torsions:
REMARK  status: ('A' for Active; 'I' for Inactive)
REMARK    1  A    between atoms: C_1  and  C_2
REMARK    2  A    between atoms: C_2  and  N_3
REMARK    3  A    between atoms: C_7  and  C_8
REMARK    4  A    between atoms: N_10  and  C_11
REMARK    5  A    between atoms: C_15  and  C_16
REMARK                            x       y       z     vdW  Elec       q    Type
REMARK                         _______ _______ _______ _____ _____    ______ ____
ROOT
ATOM      1  C   UNL     1       0.864  12.289  19.792  0.00  0.00    +0.000 C 
ATOM      2  C   UNL     1      -0.401  13.167  19.814  0.00  0.00    +0.000 C 
ATOM      3  C   UNL     1      -1.669  12.449  20.267  0.00  0.00    +0.000 C 
ATOM      4  C   UNL     1      -1.480  11.531  21.482  0.00  0.00    +0.000 C 
ATOM      5  C   UNL     1      -0.202  10.667  21.462  0.00  0.00    +0.000 C 
ATOM      6  C   UNL     1      -0.157   9.949  22.828  0.00  0.00    +0.000 C 
ATOM      7  C   UNL     1      -0.203   9.576  20.374  0.00  0.00    +0.000 C 
ATOM      8  C   UNL     1      -0.307  10.115  18.947  0.00  0.00    +0.000 C 
ATOM      9  C   UNL     1       0.741  11.208  18.685  0.00  0.00    +0.000 C 
ATOM     10  C   UNL     1      -1.712  10.550  18.576  0.00  0.00    +0.000 A 
ATOM     11  C   UNL     1      -2.425   9.810  17.619  0.00  0.00    +0.000 A 
ATOM     12  C   UNL     1      -3.712  10.187  17.230  0.00  0.00    +0.000 A 
ATOM     13  C   UNL     1      -4.306  11.310  17.792  0.00  0.00    +0.000 A 
ATOM     14  C   UNL     1      -3.622  12.042  18.753  0.00  0.00    +0.000 A 
ATOM     15  C   UNL     1      -2.327  11.669  19.160  0.00  0.00    +0.000 A 
ATOM     16  C   UNL     1       1.008  11.594  21.186  0.00  0.00    +0.000 C 
ENDROOT
BRANCH   1  19
ATOM     17  C   UNL     1       2.748  13.890  20.371  0.00  0.00    +0.000 C 
ATOM     18  O   UNL     1       2.478  13.848  21.577  0.00  0.00    +0.000 OA
ATOM     19  N   UNL     1       2.039  13.139  19.452  0.00  0.00    +0.000 N 
ATOM     20  H   UNL     1       2.320  13.229  18.480  0.00  0.00    +0.000 HD
BRANCH  17  25
ATOM     21  N   UNL     1       3.557  16.294  19.757  0.00  0.00    +0.000 NA
ATOM     22  C   UNL     1       4.107  16.717  18.445  0.00  0.00    +0.000 C 
ATOM     23  C   UNL     1       3.856  15.549  17.518  0.00  0.00    +0.000 C 
ATOM     24  C   UNL     1       4.254  14.381  18.390  0.00  0.00    +0.000 C 
ATOM     25  C   UNL     1       3.864  14.816  19.817  0.00  0.00    +0.000 C 
BRANCH  21  27
ATOM     26  C   UNL     1       1.645  17.933  19.347  0.00  0.00    +0.000 C 
ATOM     27  C   UNL     1       2.113  16.580  19.875  0.00  0.00    +0.000 C 
ENDBRANCH  21  27
ENDBRANCH  17  25
ENDBRANCH   1  19
TORSDOF 3
ENDMDL
MODEL 5
REMARK VINA RESULT:      -6.6      2.599      4.846
REMARK  Name = 
REMARK  5 active torsions:
REMARK  status: ('A' for Active; 'I' for Inactive)
REMARK    1  A    between atoms: C_1  and  C_2
REMARK    2  A    between atoms: C_2  and  N_3
REMARK    3  A    between atoms: C_7  and  C_8
REMARK    4  A    between atoms: N_10  and  C_11
REMARK    5  A    between atoms: C_15  and  C_16
REMARK                            x       y       z     vdW  Elec       q    Type
REMARK                         _______ _______ _______ _____ _____    ______ ____
ROOT
ATOM      1  C   UNL     1       2.185   5.272  19.543  0.00  0.00    +0.000 C 
ATOM      2  C   UNL     1       2.244   5.710  18.068  0.00  0.00    +0.000 C 
ATOM      3  C   UNL     1       2.982   4.747  17.143  0.00  0.00    +0.000 C 
ATOM      4  C   UNL     1       2.659   3.266  17.380  0.00  0.00    +0.000 C 
ATOM      5  C   UNL     1       2.585   2.836  18.860  0.00  0.00    +0.000 C 
ATOM      6  C   UNL     1       2.112   1.367  18.849  0.00  0.00    +0.000 C 
ATOM      7  C   UNL     1       3.942   2.873  19.589  0.00  0.00    +0.000 C 
ATOM      8  C   UNL     1       4.588   4.257  19.638  0.00  0.00    +0.000 C 
ATOM      9  C   UNL     1       3.606   5.315  20.166  0.00  0.00    +0.000 C 
ATOM     10  C   UNL     1       5.232   4.661  18.325  0.00  0.00    +0.000 A 
ATOM     11  C   UNL     1       6.631   4.761  18.254  0.00  0.00    +0.000 A 
ATOM     12  C   UNL     1       7.265   5.151  17.072  0.00  0.00    +0.000 A 
ATOM     13  C   UNL     1       6.511   5.446  15.943  0.00  0.00    +0.000 A 
ATOM     14  C   UNL     1       5.127   5.334  15.992  0.00  0.00    +0.000 A 
ATOM     15  C   UNL     1       4.476   4.935  17.174  0.00  0.00    +0.000 A 
ATOM     16  C   UNL     1       1.634   3.809  19.602  0.00  0.00    +0.000 C 
ENDROOT
BRANCH   1  19
ATOM     17  C   UNL     1       1.492   7.606  20.261  0.00  0.00    +0.000 C 
ATOM     18  O   UNL     1       2.325   8.136  19.516  0.00  0.00    +0.000 OA
ATOM     19  N   UNL     1       1.339   6.234  20.303  0.00  0.00    +0.000 N 
ATOM     20  H   UNL     1       0.634   5.875  20.940  0.00  0.00    +0.000 HD
BRANCH  17  25
ATOM     21  N   UNL     1      -0.390   9.386  20.575  0.00  0.00    +0.000 NA
ATOM     22  C   UNL     1      -0.291  10.620  21.395  0.00  0.00    +0.000 C 
ATOM     23  C   UNL     1       1.169  10.725  21.773  0.00  0.00    +0.000 C 
ATOM     24  C   UNL     1       1.486   9.297  22.151  0.00  0.00    +0.000 C 
ATOM     25  C   UNL     1       0.603   8.446  21.217  0.00  0.00    +0.000 C 
BRANCH  21  27
ATOM     26  C   UNL     1      -1.181  10.351  18.349  0.00  0.00    +0.000 C 
ATOM     27  C   UNL     1      -0.095   9.639  19.151  0.00  0.00    +0.000 C 
ENDBRANCH  21  27
ENDBRANCH  17  25
ENDBRANCH   1  19
TORSDOF 3
ENDMDL
MODEL 6
REMARK VINA RESULT:      -6.5      3.167      5.478
REMARK  Name = 
REMARK  5 active torsions:
REMARK  status: ('A' for Active; 'I' for Inactive)
REMARK    1  A    between atoms: C_1  and  C_2
REMARK    2  A    between atoms: C_2  and  N_3
REMARK    3  A    between atoms: C_7  and  C_8
REMARK    4  A    between atoms: N_10  and  C_11
REMARK    5  A    between atoms: C_15  and  C_16
REMARK                            x       y       z     vdW  Elec       q    Type
REMARK                         _______ _______ _______ _____ _____    ______ ____
ROOT
ATOM      1  C   UNL     1       2.332   6.076  19.255  0.00  0.00    +0.000 C 
ATOM      2  C   UNL     1       2.277   5.941  17.722  0.00  0.00    +0.000 C 
ATOM      3  C   UNL     1       2.843   4.634  17.175  0.00  0.00    +0.000 C 
ATOM      4  C   UNL     1       2.433   3.383  17.964  0.00  0.00    +0.000 C 
ATOM      5  C   UNL     1       2.474   3.531  19.499  0.00  0.00    +0.000 C 
ATOM      6  C   UNL     1       1.891   2.217  20.065  0.00  0.00    +0.000 C 
ATOM      7  C   UNL     1       3.895   3.683  20.074  0.00  0.00    +0.000 C 
ATOM      8  C   UNL     1       4.648   4.912  19.564  0.00  0.00    +0.000 C 
ATOM      9  C   UNL     1       3.807   6.189  19.725  0.00  0.00    +0.000 C 
ATOM     10  C   UNL     1       5.186   4.740  18.157  0.00  0.00    +0.000 A 
ATOM     11  C   UNL     1       6.575   4.656  17.963  0.00  0.00    +0.000 A 
ATOM     12  C   UNL     1       7.116   4.520  16.683  0.00  0.00    +0.000 A 
ATOM     13  C   UNL     1       6.277   4.465  15.577  0.00  0.00    +0.000 A 
ATOM     14  C   UNL     1       4.901   4.528  15.752  0.00  0.00    +0.000 A 
ATOM     15  C   UNL     1       4.342   4.658  17.038  0.00  0.00    +0.000 A 
ATOM     16  C   UNL     1       1.679   4.802  19.888  0.00  0.00    +0.000 C 
ENDROOT
BRANCH   1  19
ATOM     17  C   UNL     1       1.765   8.536  18.990  0.00  0.00    +0.000 C 
ATOM     18  O   UNL     1       2.426   8.627  17.949  0.00  0.00    +0.000 OA
ATOM     19  N   UNL     1       1.641   7.333  19.658  0.00  0.00    +0.000 N 
ATOM     20  H   UNL     1       1.083   7.340  20.505  0.00  0.00    +0.000 HD
BRANCH  17  25
ATOM     21  N   UNL     1      -0.295  10.134  19.100  0.00  0.00    +0.000 NA
ATOM     22  C   UNL     1      -0.253  11.614  18.992  0.00  0.00    +0.000 C 
ATOM     23  C   UNL     1       1.160  11.938  18.566  0.00  0.00    +0.000 C 
ATOM     24  C   UNL     1       1.962  11.021  19.459  0.00  0.00    +0.000 C 
ATOM     25  C   UNL     1       1.074   9.772  19.626  0.00  0.00    +0.000 C 
BRANCH  21  27
ATOM     26  C   UNL     1      -1.852   9.968  17.085  0.00  0.00    +0.000 C 
ATOM     27  C   UNL     1      -0.595   9.489  17.806  0.00  0.00    +0.000 C 
ENDBRANCH  21  27
ENDBRANCH  17  25
ENDBRANCH   1  19
TORSDOF 3
ENDMDL
MODEL 7
REMARK VINA RESULT:      -6.5      2.804      5.202
REMARK  Name = 
REMARK  5 active torsions:
REMARK  status: ('A' for Active; 'I' for Inactive)
REMARK    1  A    between atoms: C_1  and  C_2
REMARK    2  A    between atoms: C_2  and  N_3
REMARK    3  A    between atoms: C_7  and  C_8
REMARK    4  A    between atoms: N_10  and  C_11
REMARK    5  A    between atoms: C_15  and  C_16
REMARK                            x       y       z     vdW  Elec       q    Type
REMARK                         _______ _______ _______ _____ _____    ______ ____
ROOT
ATOM      1  C   UNL     1       2.504   6.315  19.059  0.00  0.00    +0.000 C 
ATOM      2  C   UNL     1       2.266   5.794  17.630  0.00  0.00    +0.000 C 
ATOM      3  C   UNL     1       2.832   4.404  17.353  0.00  0.00    +0.000 C 
ATOM      4  C   UNL     1       2.594   3.386  18.476  0.00  0.00    +0.000 C 
ATOM      5  C   UNL     1       2.817   3.918  19.907  0.00  0.00    +0.000 C 
ATOM      6  C   UNL     1       2.384   2.779  20.854  0.00  0.00    +0.000 C 
ATOM      7  C   UNL     1       4.288   4.243  20.229  0.00  0.00    +0.000 C 
ATOM      8  C   UNL     1       4.902   5.320  19.334  0.00  0.00    +0.000 C 
ATOM      9  C   UNL     1       4.018   6.576  19.284  0.00  0.00    +0.000 C 
ATOM     10  C   UNL     1       5.270   4.809  17.954  0.00  0.00    +0.000 A 
ATOM     11  C   UNL     1       6.626   4.710  17.602  0.00  0.00    +0.000 A 
ATOM     12  C   UNL     1       7.010   4.266  16.335  0.00  0.00    +0.000 A 
ATOM     13  C   UNL     1       6.045   3.913  15.401  0.00  0.00    +0.000 A 
ATOM     14  C   UNL     1       4.701   3.987  15.739  0.00  0.00    +0.000 A 
ATOM     15  C   UNL     1       4.299   4.426  17.014  0.00  0.00    +0.000 A 
ATOM     16  C   UNL     1       2.007   5.229  20.070  0.00  0.00    +0.000 C 
ENDROOT
BRANCH   1  19
ATOM     17  C   UNL     1       1.919   8.682  18.354  0.00  0.00    +0.000 C 
ATOM     18  O   UNL     1       2.588   8.591  17.318  0.00  0.00    +0.000 OA
ATOM     19  N   UNL     1       1.800   7.617  19.226  0.00  0.00    +0.000 N 
ATOM     20  H   UNL     1       1.235   7.770  20.055  0.00  0.00    +0.000 HD
BRANCH  17  25
ATOM     21  N   UNL     1       0.988  10.239  20.230  0.00  0.00    +0.000 NA
ATOM     22  C   UNL     1      -0.388  10.795  20.294  0.00  0.00    +0.000 C 
ATOM     23  C   UNL     1      -1.156  10.071  19.212  0.00  0.00    +0.000 C 
ATOM     24  C   UNL     1      -0.166  10.099  18.070  0.00  0.00    +0.000 C 
ATOM     25  C   UNL     1       1.213  10.005  18.754  0.00  0.00    +0.000 C 
BRANCH  21  27
ATOM     26  C   UNL     1       0.459   9.007  22.400  0.00  0.00    +0.000 C 
ATOM     27  C   UNL     1       1.129   9.006  21.029  0.00  0.00    +0.000 C 
ENDBRANCH  21  27
ENDBRANCH  17  25
ENDBRANCH   1  19
TORSDOF 3
ENDMDL
MODEL 8
REMARK VINA RESULT:      -6.5      7.561     10.901
REMARK  Name = 
REMARK  5 active torsions:
REMARK  status: ('A' for Active; 'I' for Inactive)
REMARK    1  A    between atoms: C_1  and  C_2
REMARK    2  A    between atoms: C_2  and  N_3
REMARK    3  A    between atoms: C_7  and  C_8
REMARK    4  A    between atoms: N_10  and  C_11
REMARK    5  A    between atoms: C_15  and  C_16
REMARK                            x       y       z     vdW  Elec       q    Type
REMARK                         _______ _______ _______ _____ _____    ______ ____
ROOT
ATOM      1  C   UNL     1       0.565  13.194  18.978  0.00  0.00    +0.000 C 
ATOM      2  C   UNL     1       1.437  11.925  18.996  0.00  0.00    +0.000 C 
ATOM      3  C   UNL     1       0.668  10.623  19.202  0.00  0.00    +0.000 C 
ATOM      4  C   UNL     1      -0.633  10.520  18.394  0.00  0.00    +0.000 C 
ATOM      5  C   UNL     1      -1.495  11.800  18.366  0.00  0.00    +0.000 C 
ATOM      6  C   UNL     1      -2.656  11.506  17.392  0.00  0.00    +0.000 C 
ATOM      7  C   UNL     1      -2.121  12.161  19.726  0.00  0.00    +0.000 C 
ATOM      8  C   UNL     1      -1.101  12.426  20.834  0.00  0.00    +0.000 C 
ATOM      9  C   UNL     1      -0.040  13.442  20.386  0.00  0.00    +0.000 C 
ATOM     10  C   UNL     1      -0.493  11.157  21.400  0.00  0.00    +0.000 A 
ATOM     11  C   UNL     1      -0.805  10.779  22.717  0.00  0.00    +0.000 A 
ATOM     12  C   UNL     1      -0.251   9.630  23.286  0.00  0.00    +0.000 A 
ATOM     13  C   UNL     1       0.623   8.842  22.548  0.00  0.00    +0.000 A 
ATOM     14  C   UNL     1       0.927   9.191  21.239  0.00  0.00    +0.000 A 
ATOM     15  C   UNL     1       0.370  10.342  20.650  0.00  0.00    +0.000 A 
ATOM     16  C   UNL     1      -0.590  12.985  17.944  0.00  0.00    +0.000 C 
ENDROOT
BRANCH   1  19
ATOM     17  C   UNL     1       2.421  14.855  19.470  0.00  0.00    +0.000 C 
ATOM     18  O   UNL     1       2.715  14.287  20.529  0.00  0.00    +0.000 OA
ATOM     19  N   UNL     1       1.422  14.368  18.650  0.00  0.00    +0.000 N 
ATOM     20  H   UNL     1       1.238  14.890  17.799  0.00  0.00    +0.000 HD
BRANCH  17  25
ATOM     21  N   UNL     1       4.369  16.016  18.180  0.00  0.00    +0.000 NA
ATOM     22  C   UNL     1       5.301  17.027  18.739  0.00  0.00    +0.000 C 
ATOM     23  C   UNL     1       5.031  17.031  20.226  0.00  0.00    +0.000 C 
ATOM     24  C   UNL     1       3.521  17.000  20.259  0.00  0.00    +0.000 C 
ATOM     25  C   UNL     1       3.126  16.164  19.025  0.00  0.00    +0.000 C 
BRANCH  21  27
ATOM     26  C   UNL     1       6.395  14.506  17.824  0.00  0.00    +0.000 C 
ATOM     27  C   UNL     1       4.932  14.651  18.230  0.00  0.00    +0.000 C 
ENDBRANCH  21  27
ENDBRANCH  17  25
ENDBRANCH   1  19
TORSDOF 3
ENDMDL
MODEL 9
REMARK VINA RESULT:      -6.5      3.330      5.868
REMARK  Name = 
REMARK  5 active torsions:
REMARK  status: ('A' for Active; 'I' for Inactive)
REMARK    1  A    between atoms: C_1  and  C_2
REMARK    2  A    between atoms: C_2  and  N_3
REMARK    3  A    between atoms: C_7  and  C_8
REMARK    4  A    between atoms: N_10  and  C_11
REMARK    5  A    between atoms: C_15  and  C_16
REMARK                            x       y       z     vdW  Elec       q    Type
REMARK                         _______ _______ _______ _____ _____    ______ ____
ROOT
ATOM      1  C   UNL     1       2.968   6.692  18.652  0.00  0.00    +0.000 C 
ATOM      2  C   UNL     1       3.455   6.001  19.939  0.00  0.00    +0.000 C 
ATOM      3  C   UNL     1       4.632   5.049  19.747  0.00  0.00    +0.000 C 
ATOM      4  C   UNL     1       5.737   5.582  18.825  0.00  0.00    +0.000 C 
ATOM      5  C   UNL     1       5.243   6.289  17.545  0.00  0.00    +0.000 C 
ATOM      6  C   UNL     1       6.506   6.857  16.863  0.00  0.00    +0.000 C 
ATOM      7  C   UNL     1       4.564   5.346  16.534  0.00  0.00    +0.000 C 
ATOM      8  C   UNL     1       3.317   4.643  17.073  0.00  0.00    +0.000 C 
ATOM      9  C   UNL     1       2.334   5.647  17.695  0.00  0.00    +0.000 C 
ATOM     10  C   UNL     1       3.640   3.488  18.002  0.00  0.00    +0.000 A 
ATOM     11  C   UNL     1       3.363   2.177  17.582  0.00  0.00    +0.000 A 
ATOM     12  C   UNL     1       3.622   1.085  18.413  0.00  0.00    +0.000 A 
ATOM     13  C   UNL     1       4.163   1.287  19.677  0.00  0.00    +0.000 A 
ATOM     14  C   UNL     1       4.460   2.576  20.100  0.00  0.00    +0.000 A 
ATOM     15  C   UNL     1       4.211   3.685  19.270  0.00  0.00    +0.000 A 
ATOM     16  C   UNL     1       4.199   7.359  17.953  0.00  0.00    +0.000 C 
ENDROOT
BRANCH   1  19
ATOM     17  C   UNL     1       1.616   8.804  18.257  0.00  0.00    +0.000 C 
ATOM     18  O   UNL     1       2.197   9.035  17.190  0.00  0.00    +0.000 OA
ATOM     19  N   UNL     1       1.906   7.676  19.001  0.00  0.00    +0.000 N 
ATOM     20  H   UNL     1       1.387   7.557  19.865  0.00  0.00    +0.000 HD
BRANCH  17  25
ATOM     21  N   UNL     1       0.831  11.259  18.661  0.00  0.00    +0.000 NA
ATOM     22  C   UNL     1       0.460  11.848  19.973  0.00  0.00    +0.000 C 
ATOM     23  C   UNL     1       0.874  10.818  20.998  0.00  0.00    +0.000 C 
ATOM     24  C   UNL     1       0.392   9.540  20.353  0.00  0.00    +0.000 C 
ATOM     25  C   UNL     1       0.563   9.784  18.840  0.00  0.00    +0.000 C 
BRANCH  21  27
ATOM     26  C   UNL     1       2.635  13.013  18.237  0.00  0.00    +0.000 C 
ATOM     27  C   UNL     1       2.234  11.542  18.300  0.00  0.00    +0.000 C 
ENDBRANCH  21  27
ENDBRANCH  17  25
ENDBRANCH   1  19
TORSDOF 3
ENDMDL
