MODEL 1
REMARK VINA RESULT:      -7.9      0.000      0.000
REMARK  Name = 
REMARK  6 active torsions:
REMARK  status: ('A' for Active; 'I' for Inactive)
REMARK    1  A    between atoms: C_1  and  C_2
REMARK    2  A    between atoms: C_12  and  N_13
REMARK    3  A    between atoms: N_13  and  C_14
REMARK    4  A    between atoms: C_14  and  C_15
REMARK    5  A    between atoms: C_21  and  C_22
REMARK    6  A    between atoms: C_30  and  C_31
REMARK                            x       y       z     vdW  Elec       q    Type
REMARK                         _______ _______ _______ _____ _____    ______ ____
ROOT
ATOM      1  C   UNL     1      -3.336  12.376  24.155  0.00  0.00    +0.000 C 
ATOM      2  C   UNL     1      -3.444  13.827  23.691  0.00  0.00    +0.000 C 
ATOM      3  C   UNL     1      -2.668  14.724  24.573  0.00  0.00    +0.000 A 
ATOM      4  C   UNL     1      -2.548  15.203  25.868  0.00  0.00    +0.000 A 
ATOM      5  N   UNL     1      -1.506  16.046  25.980  0.00  0.00    +0.000 NA
ATOM      6  N   UNL     1      -0.964  16.077  24.732  0.00  0.00    +0.000 N 
ATOM      7  C   UNL     1      -1.646  15.297  23.881  0.00  0.00    +0.000 A 
ATOM      8  C   UNL     1      -1.591  14.888  22.457  0.00  0.00    +0.000 C 
ATOM      9  N   UNL     1      -2.803  14.011  22.336  0.00  0.00    +0.000 N 
ATOM     10  C   UNL     1      -3.132  13.336  21.182  0.00  0.00    +0.000 C 
ATOM     11  N   UNL     1      -2.307  13.220  20.194  0.00  0.00    +0.000 NA
ATOM     12  C   UNL     1      -2.707  12.395  19.037  0.00  0.00    +0.000 C 
ATOM     13  C   UNL     1      -4.199  12.062  18.950  0.00  0.00    +0.000 A 
ATOM     14  C   UNL     1      -4.792  11.541  17.786  0.00  0.00    +0.000 A 
ATOM     15  C   UNL     1      -6.081  11.020  17.811  0.00  0.00    +0.000 A 
ATOM     16  C   UNL     1      -6.850  11.133  18.964  0.00  0.00    +0.000 A 
ATOM     17  C   UNL     1      -6.338  11.790  20.092  0.00  0.00    +0.000 A 
ATOM     18  C   UNL     1      -4.997  12.241  20.084  0.00  0.00    +0.000 A 
ATOM     19  N   UNL     1      -4.387  12.808  21.209  0.00  0.00    +0.000 N 
ATOM     20  H   UNL     1      -0.139  16.658  24.583  0.00  0.00    +0.000 HD
ATOM     21  H   UNL     1      -5.052  13.138  21.904  0.00  0.00    +0.000 HD
ENDROOT
BRANCH  17  22
ATOM     22  C   UNL     1      -7.193  12.034  21.298  0.00  0.00    +0.000 C 
ATOM     23  N   UNL     1      -7.827  10.971  21.883  0.00  0.00    +0.000 N 
ATOM     24  O   UNL     1      -7.374  13.164  21.743  0.00  0.00    +0.000 OA
ATOM     25  H   UNL     1      -7.856  10.035  21.515  0.00  0.00    +0.000 HD
ATOM     26  H   UNL     1      -8.452  11.184  22.651  0.00  0.00    +0.000 HD
ENDBRANCH  17  22
BRANCH  12  27
ATOM     27  N   UNL     1      -1.824  11.207  19.040  0.00  0.00    +0.000 NA
ATOM     28  H   UNL     1      -1.910  10.790  18.115  0.00  0.00    +0.000 HD
BRANCH  27  29
ATOM     29  C   UNL     1      -0.436  11.503  19.332  0.00  0.00    +0.000 C 
BRANCH  29  30
ATOM     30  C   UNL     1       0.285  10.461  20.143  0.00  0.00    +0.000 A 
ATOM     31  C   UNL     1       0.099  10.489  21.536  0.00  0.00    +0.000 A 
ATOM     32  F   UNL     1      -0.563  11.509  22.102  0.00  0.00    +0.000 F 
ATOM     33  C   UNL     1       0.529   9.454  22.354  0.00  0.00    +0.000 A 
ATOM     34  C   UNL     1       1.158   8.355  21.786  0.00  0.00    +0.000 A 
ATOM     35  C   UNL     1       1.406   8.333  20.411  0.00  0.00    +0.000 A 
ATOM     36  C   UNL     1       1.005   9.396  19.570  0.00  0.00    +0.000 A 
BRANCH  36  37
ATOM     37  C   UNL     1       1.364   9.299  18.101  0.00  0.00    +0.000 C 
ATOM     38  F   UNL     1       2.104   8.222  17.730  0.00  0.00    +0.000 F 
ATOM     39  F   UNL     1       0.254   9.273  17.308  0.00  0.00    +0.000 F 
ATOM     40  F   UNL     1       2.079  10.385  17.686  0.00  0.00    +0.000 F 
ENDBRANCH  36  37
ENDBRANCH  29  30
ENDBRANCH  27  29
ENDBRANCH  12  27
TORSDOF 5
ENDMDL
MODEL 2
REMARK VINA RESULT:      -7.5      1.461      2.682
REMARK  Name = 
REMARK  6 active torsions:
REMARK  status: ('A' for Active; 'I' for Inactive)
REMARK    1  A    between atoms: C_1  and  C_2
REMARK    2  A    between atoms: C_12  and  N_13
REMARK    3  A    between atoms: N_13  and  C_14
REMARK    4  A    between atoms: C_14  and  C_15
REMARK    5  A    between atoms: C_21  and  C_22
REMARK    6  A    between atoms: C_30  and  C_31
REMARK                            x       y       z     vdW  Elec       q    Type
REMARK                         _______ _______ _______ _____ _____    ______ ____
ROOT
ATOM      1  C   UNL     1      -2.105  12.428  23.085  0.00  0.00    +0.000 C 
ATOM      2  C   UNL     1      -2.102  13.849  22.528  0.00  0.00    +0.000 C 
ATOM      3  C   UNL     1      -1.241  14.734  23.342  0.00  0.00    +0.000 A 
ATOM      4  C   UNL     1      -1.063  15.284  24.601  0.00  0.00    +0.000 A 
ATOM      5  N   UNL     1       0.045  16.043  24.647  0.00  0.00    +0.000 NA
ATOM      6  N   UNL     1       0.569  15.950  23.395  0.00  0.00    +0.000 N 
ATOM      7  C   UNL     1      -0.187  15.175  22.603  0.00  0.00    +0.000 A 
ATOM      8  C   UNL     1      -0.187  14.672  21.209  0.00  0.00    +0.000 C 
ATOM      9  N   UNL     1      -1.469  13.892  21.157  0.00  0.00    +0.000 N 
ATOM     10  C   UNL     1      -1.869  13.174  20.054  0.00  0.00    +0.000 C 
ATOM     11  N   UNL     1      -1.071  12.927  19.067  0.00  0.00    +0.000 NA
ATOM     12  C   UNL     1      -1.556  12.065  17.970  0.00  0.00    +0.000 C 
ATOM     13  C   UNL     1      -3.071  11.851  17.920  0.00  0.00    +0.000 A 
ATOM     14  C   UNL     1      -3.722  11.306  16.799  0.00  0.00    +0.000 A 
ATOM     15  C   UNL     1      -5.049  10.896  16.871  0.00  0.00    +0.000 A 
ATOM     16  C   UNL     1      -5.788  11.146  18.022  0.00  0.00    +0.000 A 
ATOM     17  C   UNL     1      -5.207  11.830  19.099  0.00  0.00    +0.000 A 
ATOM     18  C   UNL     1      -3.834  12.168  19.048  0.00  0.00    +0.000 A 
ATOM     19  N   UNL     1      -3.163  12.754  20.128  0.00  0.00    +0.000 N 
ATOM     20  H   UNL     1       1.436  16.450  23.199  0.00  0.00    +0.000 HD
ATOM     21  H   UNL     1      -3.788  13.181  20.806  0.00  0.00    +0.000 HD
ENDROOT
BRANCH  17  22
ATOM     22  C   UNL     1      -6.021  12.221  20.295  0.00  0.00    +0.000 C 
ATOM     23  N   UNL     1      -7.267  12.751  20.101  0.00  0.00    +0.000 N 
ATOM     24  O   UNL     1      -5.581  12.117  21.437  0.00  0.00    +0.000 OA
ATOM     25  H   UNL     1      -7.660  13.005  19.209  0.00  0.00    +0.000 HD
ATOM     26  H   UNL     1      -7.758  13.068  20.927  0.00  0.00    +0.000 HD
ENDBRANCH  17  22
BRANCH  12  27
ATOM     27  N   UNL     1      -0.773  10.811  18.041  0.00  0.00    +0.000 NA
ATOM     28  H   UNL     1      -0.390  10.664  17.110  0.00  0.00    +0.000 HD
BRANCH  27  29
ATOM     29  C   UNL     1       0.291  10.833  19.026  0.00  0.00    +0.000 C 
BRANCH  29  30
ATOM     30  C   UNL     1       0.851   9.488  19.397  0.00  0.00    +0.000 A 
ATOM     31  C   UNL     1       1.675   8.852  18.452  0.00  0.00    +0.000 A 
ATOM     32  F   UNL     1       1.804   9.371  17.221  0.00  0.00    +0.000 F 
ATOM     33  C   UNL     1       2.420   7.725  18.768  0.00  0.00    +0.000 A 
ATOM     34  C   UNL     1       2.357   7.208  20.055  0.00  0.00    +0.000 A 
ATOM     35  C   UNL     1       1.500   7.788  20.993  0.00  0.00    +0.000 A 
ATOM     36  C   UNL     1       0.708   8.915  20.675  0.00  0.00    +0.000 A 
BRANCH  36  37
ATOM     37  C   UNL     1      -0.225   9.440  21.747  0.00  0.00    +0.000 C 
ATOM     38  F   UNL     1       0.345  10.171  22.739  0.00  0.00    +0.000 F 
ATOM     39  F   UNL     1      -1.205  10.232  21.223  0.00  0.00    +0.000 F 
ATOM     40  F   UNL     1      -0.882   8.425  22.382  0.00  0.00    +0.000 F 
ENDBRANCH  36  37
ENDBRANCH  29  30
ENDBRANCH  27  29
ENDBRANCH  12  27
TORSDOF 5
ENDMDL
MODEL 3
REMARK VINA RESULT:      -7.5      0.987      1.240
REMARK  Name = 
REMARK  6 active torsions:
REMARK  status: ('A' for Active; 'I' for Inactive)
REMARK    1  A    between atoms: C_1  and  C_2
REMARK    2  A    between atoms: C_12  and  N_13
REMARK    3  A    between atoms: N_13  and  C_14
REMARK    4  A    between atoms: C_14  and  C_15
REMARK    5  A    between atoms: C_21  and  C_22
REMARK    6  A    between atoms: C_30  and  C_31
REMARK                            x       y       z     vdW  Elec       q    Type
REMARK                         _______ _______ _______ _____ _____    ______ ____
ROOT
ATOM      1  C   UNL     1      -2.557  12.417  23.554  0.00  0.00    +0.000 C 
ATOM      2  C   UNL     1      -2.596  13.860  23.055  0.00  0.00    +0.000 C 
ATOM      3  C   UNL     1      -1.807  14.746  23.938  0.00  0.00    +0.000 A 
ATOM      4  C   UNL     1      -1.701  15.249  25.225  0.00  0.00    +0.000 A 
ATOM      5  N   UNL     1      -0.630  16.053  25.345  0.00  0.00    +0.000 NA
ATOM      6  N   UNL     1      -0.056  16.036  24.111  0.00  0.00    +0.000 N 
ATOM      7  C   UNL     1      -0.747  15.263  23.260  0.00  0.00    +0.000 A 
ATOM      8  C   UNL     1      -0.673  14.820  21.847  0.00  0.00    +0.000 C 
ATOM      9  N   UNL     1      -1.915  13.988  21.714  0.00  0.00    +0.000 N 
ATOM     10  C   UNL     1      -2.241  13.301  20.567  0.00  0.00    +0.000 C 
ATOM     11  N   UNL     1      -1.397  13.131  19.603  0.00  0.00    +0.000 NA
ATOM     12  C   UNL     1      -1.801  12.295  18.454  0.00  0.00    +0.000 C 
ATOM     13  C   UNL     1      -3.302  12.019  18.336  0.00  0.00    +0.000 A 
ATOM     14  C   UNL     1      -3.885  11.494  17.169  0.00  0.00    +0.000 A 
ATOM     15  C   UNL     1      -5.194  11.025  17.172  0.00  0.00    +0.000 A 
ATOM     16  C   UNL     1      -5.987  11.193  18.302  0.00  0.00    +0.000 A 
ATOM     17  C   UNL     1      -5.477  11.856  19.428  0.00  0.00    +0.000 A 
ATOM     18  C   UNL     1      -4.120  12.254  19.445  0.00  0.00    +0.000 A 
ATOM     19  N   UNL     1      -3.517  12.822  20.573  0.00  0.00    +0.000 N 
ATOM     20  H   UNL     1       0.795  16.580  23.971  0.00  0.00    +0.000 HD
ATOM     21  H   UNL     1      -4.185  13.193  21.243  0.00  0.00    +0.000 HD
ENDROOT
BRANCH  17  22
ATOM     22  C   UNL     1      -6.352  12.160  20.606  0.00  0.00    +0.000 C 
ATOM     23  N   UNL     1      -7.548  12.790  20.395  0.00  0.00    +0.000 N 
ATOM     24  O   UNL     1      -6.003  11.898  21.754  0.00  0.00    +0.000 OA
ATOM     25  H   UNL     1      -7.860  13.169  19.516  0.00  0.00    +0.000 HD
ATOM     26  H   UNL     1      -8.079  13.042  21.219  0.00  0.00    +0.000 HD
ENDBRANCH  17  22
BRANCH  12  27
ATOM     27  N   UNL     1      -0.965  11.075  18.505  0.00  0.00    +0.000 NA
ATOM     28  H   UNL     1      -0.905  10.734  17.548  0.00  0.00    +0.000 HD
BRANCH  27  29
ATOM     29  C   UNL     1       0.361  11.288  19.049  0.00  0.00    +0.000 C 
BRANCH  29  30
ATOM     30  C   UNL     1       0.880  10.184  19.929  0.00  0.00    +0.000 A 
ATOM     31  C   UNL     1       0.668  10.312  21.313  0.00  0.00    +0.000 A 
ATOM     32  F   UNL     1       0.171  11.454  21.809  0.00  0.00    +0.000 F 
ATOM     33  C   UNL     1       0.901   9.262  22.190  0.00  0.00    +0.000 A 
ATOM     34  C   UNL     1       1.351   8.048  21.693  0.00  0.00    +0.000 A 
ATOM     35  C   UNL     1       1.625   7.916  20.329  0.00  0.00    +0.000 A 
ATOM     36  C   UNL     1       1.426   8.987  19.428  0.00  0.00    +0.000 A 
BRANCH  36  37
ATOM     37  C   UNL     1       1.799   8.759  17.977  0.00  0.00    +0.000 C 
ATOM     38  F   UNL     1       2.463   9.769  17.359  0.00  0.00    +0.000 F 
ATOM     39  F   UNL     1       2.585   7.654  17.823  0.00  0.00    +0.000 F 
ATOM     40  F   UNL     1       0.697   8.529  17.205  0.00  0.00    +0.000 F 
ENDBRANCH  36  37
ENDBRANCH  29  30
ENDBRANCH  27  29
ENDBRANCH  12  27
TORSDOF 5
ENDMDL
MODEL 4
REMARK VINA RESULT:      -7.5      3.719      5.980
REMARK  Name = 
REMARK  6 active torsions:
REMARK  status: ('A' for Active; 'I' for Inactive)
REMARK    1  A    between atoms: C_1  and  C_2
REMARK    2  A    between atoms: C_12  and  N_13
REMARK    3  A    between atoms: N_13  and  C_14
REMARK    4  A    between atoms: C_14  and  C_15
REMARK    5  A    between atoms: C_21  and  C_22
REMARK    6  A    between atoms: C_30  and  C_31
REMARK                            x       y       z     vdW  Elec       q    Type
REMARK                         _______ _______ _______ _____ _____    ______ ____
ROOT
ATOM      1  C   UNL     1      -1.528  13.143  23.082  0.00  0.00    +0.000 C 
ATOM      2  C   UNL     1      -2.759  12.324  22.702  0.00  0.00    +0.000 C 
ATOM      3  C   UNL     1      -3.992  12.948  23.227  0.00  0.00    +0.000 A 
ATOM      4  C   UNL     1      -4.662  13.321  24.381  0.00  0.00    +0.000 A 
ATOM      5  N   UNL     1      -5.831  13.920  24.092  0.00  0.00    +0.000 NA
ATOM      6  N   UNL     1      -5.877  13.929  22.732  0.00  0.00    +0.000 N 
ATOM      7  C   UNL     1      -4.789  13.351  22.200  0.00  0.00    +0.000 A 
ATOM      8  C   UNL     1      -4.228  13.054  20.861  0.00  0.00    +0.000 C 
ATOM      9  N   UNL     1      -2.966  12.320  21.206  0.00  0.00    +0.000 N 
ATOM     10  C   UNL     1      -2.060  11.895  20.261  0.00  0.00    +0.000 C 
ATOM     11  N   UNL     1      -2.109  12.293  19.032  0.00  0.00    +0.000 NA
ATOM     12  C   UNL     1      -1.038  11.864  18.110  0.00  0.00    +0.000 C 
ATOM     13  C   UNL     1      -0.180  10.693  18.597  0.00  0.00    +0.000 A 
ATOM     14  C   UNL     1       0.681   9.980  17.743  0.00  0.00    +0.000 A 
ATOM     15  C   UNL     1       1.622   9.093  18.255  0.00  0.00    +0.000 A 
ATOM     16  C   UNL     1       1.630   8.802  19.615  0.00  0.00    +0.000 A 
ATOM     17  C   UNL     1       0.678   9.381  20.466  0.00  0.00    +0.000 A 
ATOM     18  C   UNL     1      -0.220  10.344  19.950  0.00  0.00    +0.000 A 
ATOM     19  N   UNL     1      -1.124  11.040  20.761  0.00  0.00    +0.000 N 
ATOM     20  H   UNL     1      -6.688  14.353  22.283  0.00  0.00    +0.000 HD
ATOM     21  H   UNL     1      -1.287  10.592  21.659  0.00  0.00    +0.000 HD
ENDROOT
BRANCH  17  22
ATOM     22  C   UNL     1       0.590   8.984  21.908  0.00  0.00    +0.000 C 
ATOM     23  N   UNL     1       1.740   8.915  22.646  0.00  0.00    +0.000 N 
ATOM     24  O   UNL     1      -0.480   8.677  22.429  0.00  0.00    +0.000 OA
ATOM     25  H   UNL     1       2.673   9.010  22.280  0.00  0.00    +0.000 HD
ATOM     26  H   UNL     1       1.650   8.575  23.595  0.00  0.00    +0.000 HD
ENDBRANCH  17  22
BRANCH  12  27
ATOM     27  N   UNL     1      -0.263  13.078  17.770  0.00  0.00    +0.000 NA
ATOM     28  H   UNL     1      -0.895  13.679  17.247  0.00  0.00    +0.000 HD
BRANCH  27  29
ATOM     29  C   UNL     1       0.266  13.784  18.921  0.00  0.00    +0.000 C 
BRANCH  29  30
ATOM     30  C   UNL     1       1.553  14.526  18.683  0.00  0.00    +0.000 A 
ATOM     31  C   UNL     1       2.720  13.757  18.534  0.00  0.00    +0.000 A 
ATOM     32  F   UNL     1       2.683  12.436  18.763  0.00  0.00    +0.000 F 
ATOM     33  C   UNL     1       3.913  14.312  18.094  0.00  0.00    +0.000 A 
ATOM     34  C   UNL     1       3.960  15.664  17.786  0.00  0.00    +0.000 A 
ATOM     35  C   UNL     1       2.828  16.459  17.982  0.00  0.00    +0.000 A 
ATOM     36  C   UNL     1       1.616  15.915  18.463  0.00  0.00    +0.000 A 
BRANCH  36  37
ATOM     37  C   UNL     1       0.461  16.870  18.689  0.00  0.00    +0.000 C 
ATOM     38  F   UNL     1      -0.150  16.802  19.900  0.00  0.00    +0.000 F 
ATOM     39  F   UNL     1       0.842  18.171  18.541  0.00  0.00    +0.000 F 
ATOM     40  F   UNL     1      -0.535  16.678  17.774  0.00  0.00    +0.000 F 
ENDBRANCH  36  37
ENDBRANCH  29  30
ENDBRANCH  27  29
ENDBRANCH  12  27
TORSDOF 5
ENDMDL
MODEL 5
REMARK VINA RESULT:      -7.5      3.734      5.834
REMARK  Name = 
REMARK  6 active torsions:
REMARK  status: ('A' for Active; 'I' for Inactive)
REMARK    1  A    between atoms: C_1  and  C_2
REMARK    2  A    between atoms: C_12  and  N_13
REMARK    3  A    between atoms: N_13  and  C_14
REMARK    4  A    between atoms: C_14  and  C_15
REMARK    5  A    between atoms: C_21  and  C_22
REMARK    6  A    between atoms: C_30  and  C_31
REMARK                            x       y       z     vdW  Elec       q    Type
REMARK                         _______ _______ _______ _____ _____    ______ ____
ROOT
ATOM      1  C   UNL     1      -2.699  14.117  22.857  0.00  0.00    +0.000 C 
ATOM      2  C   UNL     1      -3.853  13.214  22.428  0.00  0.00    +0.000 C 
ATOM      3  C   UNL     1      -5.155  13.877  22.654  0.00  0.00    +0.000 A 
ATOM      4  C   UNL     1      -5.997  14.406  23.619  0.00  0.00    +0.000 A 
ATOM      5  N   UNL     1      -7.109  14.919  23.065  0.00  0.00    +0.000 NA
ATOM      6  N   UNL     1      -6.945  14.715  21.729  0.00  0.00    +0.000 N 
ATOM      7  C   UNL     1      -5.785  14.093  21.467  0.00  0.00    +0.000 A 
ATOM      8  C   UNL     1      -5.023  13.607  20.293  0.00  0.00    +0.000 C 
ATOM      9  N   UNL     1      -3.825  12.972  20.937  0.00  0.00    +0.000 N 
ATOM     10  C   UNL     1      -2.783  12.431  20.220  0.00  0.00    +0.000 C 
ATOM     11  N   UNL     1      -2.643  12.632  18.951  0.00  0.00    +0.000 NA
ATOM     12  C   UNL     1      -1.440  12.095  18.283  0.00  0.00    +0.000 C 
ATOM     13  C   UNL     1      -0.663  11.039  19.073  0.00  0.00    +0.000 A 
ATOM     14  C   UNL     1       0.322  10.227  18.484  0.00  0.00    +0.000 A 
ATOM     15  C   UNL     1       1.177   9.458  19.266  0.00  0.00    +0.000 A 
ATOM     16  C   UNL     1       0.976   9.382  20.640  0.00  0.00    +0.000 A 
ATOM     17  C   UNL     1      -0.099  10.058  21.234  0.00  0.00    +0.000 A 
ATOM     18  C   UNL     1      -0.911  10.904  20.443  0.00  0.00    +0.000 A 
ATOM     19  N   UNL     1      -1.932  11.692  20.986  0.00  0.00    +0.000 N 
ATOM     20  H   UNL     1      -7.678  15.041  21.100  0.00  0.00    +0.000 HD
ATOM     21  H   UNL     1      -2.230  11.384  21.908  0.00  0.00    +0.000 HD
ENDROOT
BRANCH  17  22
ATOM     22  C   UNL     1      -0.408   9.888  22.691  0.00  0.00    +0.000 C 
ATOM     23  N   UNL     1      -0.734   8.643  23.155  0.00  0.00    +0.000 N 
ATOM     24  O   UNL     1      -0.419  10.842  23.464  0.00  0.00    +0.000 OA
ATOM     25  H   UNL     1      -0.889   7.830  22.583  0.00  0.00    +0.000 HD
ATOM     26  H   UNL     1      -1.006   8.579  24.128  0.00  0.00    +0.000 HD
ENDBRANCH  17  22
BRANCH  12  27
ATOM     27  N   UNL     1      -0.626  13.263  17.877  0.00  0.00    +0.000 NA
ATOM     28  H   UNL     1      -1.235  13.846  17.306  0.00  0.00    +0.000 HD
BRANCH  27  29
ATOM     29  C   UNL     1      -0.094  14.028  18.988  0.00  0.00    +0.000 C 
BRANCH  29  30
ATOM     30  C   UNL     1       1.206  14.734  18.717  0.00  0.00    +0.000 A 
ATOM     31  C   UNL     1       2.360  13.938  18.615  0.00  0.00    +0.000 A 
ATOM     32  F   UNL     1       2.300  12.632  18.914  0.00  0.00    +0.000 F 
ATOM     33  C   UNL     1       3.564  14.449  18.150  0.00  0.00    +0.000 A 
ATOM     34  C   UNL     1       3.636  15.782  17.770  0.00  0.00    +0.000 A 
ATOM     35  C   UNL     1       2.516  16.605  17.918  0.00  0.00    +0.000 A 
ATOM     36  C   UNL     1       1.293  16.108  18.423  0.00  0.00    +0.000 A 
BRANCH  36  37
ATOM     37  C   UNL     1       0.154  17.093  18.591  0.00  0.00    +0.000 C 
ATOM     38  F   UNL     1      -0.885  16.967  17.727  0.00  0.00    +0.000 F 
ATOM     39  F   UNL     1      -0.395  17.024  19.839  0.00  0.00    +0.000 F 
ATOM     40  F   UNL     1       0.580  18.382  18.454  0.00  0.00    +0.000 F 
ENDBRANCH  36  37
ENDBRANCH  29  30
ENDBRANCH  27  29
ENDBRANCH  12  27
TORSDOF 5
ENDMDL
MODEL 6
REMARK VINA RESULT:      -7.4      3.366      5.583
REMARK  Name = 
REMARK  6 active torsions:
REMARK  status: ('A' for Active; 'I' for Inactive)
REMARK    1  A    between atoms: C_1  and  C_2
REMARK    2  A    between atoms: C_12  and  N_13
REMARK    3  A    between atoms: N_13  and  C_14
REMARK    4  A    between atoms: C_14  and  C_15
REMARK    5  A    between atoms: C_21  and  C_22
REMARK    6  A    between atoms: C_30  and  C_31
REMARK                            x       y       z     vdW  Elec       q    Type
REMARK                         _______ _______ _______ _____ _____    ______ ____
ROOT
ATOM      1  C   UNL     1      -2.947  13.896  22.793  0.00  0.00    +0.000 C 
ATOM      2  C   UNL     1      -4.030  12.914  22.353  0.00  0.00    +0.000 C 
ATOM      3  C   UNL     1      -5.378  13.476  22.580  0.00  0.00    +0.000 A 
ATOM      4  C   UNL     1      -6.260  13.933  23.547  0.00  0.00    +0.000 A 
ATOM      5  N   UNL     1      -7.406  14.367  22.993  0.00  0.00    +0.000 NA
ATOM      6  N   UNL     1      -7.223  14.187  21.656  0.00  0.00    +0.000 N 
ATOM      7  C   UNL     1      -6.020  13.654  21.393  0.00  0.00    +0.000 A 
ATOM      8  C   UNL     1      -5.220  13.237  20.217  0.00  0.00    +0.000 C 
ATOM      9  N   UNL     1      -3.980  12.687  20.860  0.00  0.00    +0.000 N 
ATOM     10  C   UNL     1      -2.899  12.231  20.142  0.00  0.00    +0.000 C 
ATOM     11  N   UNL     1      -2.771  12.453  18.875  0.00  0.00    +0.000 NA
ATOM     12  C   UNL     1      -1.530  12.013  18.206  0.00  0.00    +0.000 C 
ATOM     13  C   UNL     1      -0.679  11.010  18.990  0.00  0.00    +0.000 A 
ATOM     14  C   UNL     1       0.367  10.279  18.398  0.00  0.00    +0.000 A 
ATOM     15  C   UNL     1       1.274   9.568  19.177  0.00  0.00    +0.000 A 
ATOM     16  C   UNL     1       1.075   9.466  20.549  0.00  0.00    +0.000 A 
ATOM     17  C   UNL     1      -0.049  10.056  21.145  0.00  0.00    +0.000 A 
ATOM     18  C   UNL     1      -0.919  10.846  20.358  0.00  0.00    +0.000 A 
ATOM     19  N   UNL     1      -1.997  11.551  20.905  0.00  0.00    +0.000 N 
ATOM     20  H   UNL     1      -7.977  14.462  21.028  0.00  0.00    +0.000 HD
ATOM     21  H   UNL     1      -2.274  11.214  21.823  0.00  0.00    +0.000 HD
ENDROOT
BRANCH  17  22
ATOM     22  C   UNL     1      -0.348   9.851  22.599  0.00  0.00    +0.000 C 
ATOM     23  N   UNL     1      -0.719   8.605  23.027  0.00  0.00    +0.000 N 
ATOM     24  O   UNL     1      -0.311  10.779  23.403  0.00  0.00    +0.000 OA
ATOM     25  H   UNL     1      -0.913   7.818  22.431  0.00  0.00    +0.000 HD
ATOM     26  H   UNL     1      -0.982   8.521  24.002  0.00  0.00    +0.000 HD
ENDBRANCH  17  22
BRANCH  12  27
ATOM     27  N   UNL     1      -0.804  13.241  17.813  0.00  0.00    +0.000 NA
ATOM     28  H   UNL     1      -1.418  13.738  17.171  0.00  0.00    +0.000 HD
BRANCH  27  29
ATOM     29  C   UNL     1      -0.441  14.096  18.926  0.00  0.00    +0.000 C 
BRANCH  29  30
ATOM     30  C   UNL     1       0.568  15.166  18.612  0.00  0.00    +0.000 A 
ATOM     31  C   UNL     1       0.088  16.479  18.467  0.00  0.00    +0.000 A 
ATOM     32  F   UNL     1      -1.233  16.709  18.451  0.00  0.00    +0.000 F 
ATOM     33  C   UNL     1       0.944  17.569  18.399  0.00  0.00    +0.000 A 
ATOM     34  C   UNL     1       2.314  17.364  18.480  0.00  0.00    +0.000 A 
ATOM     35  C   UNL     1       2.816  16.062  18.566  0.00  0.00    +0.000 A 
ATOM     36  C   UNL     1       1.958  14.940  18.600  0.00  0.00    +0.000 A 
BRANCH  36  37
ATOM     37  C   UNL     1       2.601  13.568  18.644  0.00  0.00    +0.000 C 
ATOM     38  F   UNL     1       2.292  12.725  17.626  0.00  0.00    +0.000 F 
ATOM     39  F   UNL     1       3.964  13.647  18.656  0.00  0.00    +0.000 F 
ATOM     40  F   UNL     1       2.268  12.893  19.783  0.00  0.00    +0.000 F 
ENDBRANCH  36  37
ENDBRANCH  29  30
ENDBRANCH  27  29
ENDBRANCH  12  27
TORSDOF 5
ENDMDL
MODEL 7
REMARK VINA RESULT:      -7.4      1.210      2.452
REMARK  Name = 
REMARK  6 active torsions:
REMARK  status: ('A' for Active; 'I' for Inactive)
REMARK    1  A    between atoms: C_1  and  C_2
REMARK    2  A    between atoms: C_12  and  N_13
REMARK    3  A    between atoms: N_13  and  C_14
REMARK    4  A    between atoms: C_14  and  C_15
REMARK    5  A    between atoms: C_21  and  C_22
REMARK    6  A    between atoms: C_30  and  C_31
REMARK                            x       y       z     vdW  Elec       q    Type
REMARK                         _______ _______ _______ _____ _____    ______ ____
ROOT
ATOM      1  C   UNL     1      -2.621  12.729  23.841  0.00  0.00    +0.000 C 
ATOM      2  C   UNL     1      -2.562  14.116  23.204  0.00  0.00    +0.000 C 
ATOM      3  C   UNL     1      -1.635  14.998  23.945  0.00  0.00    +0.000 A 
ATOM      4  C   UNL     1      -1.394  15.607  25.167  0.00  0.00    +0.000 A 
ATOM      5  N   UNL     1      -0.247  16.309  25.142  0.00  0.00    +0.000 NA
ATOM      6  N   UNL     1       0.236  16.119  23.884  0.00  0.00    +0.000 N 
ATOM      7  C   UNL     1      -0.581  15.342  23.156  0.00  0.00    +0.000 A 
ATOM      8  C   UNL     1      -0.645  14.764  21.793  0.00  0.00    +0.000 C 
ATOM      9  N   UNL     1      -1.965  14.050  21.818  0.00  0.00    +0.000 N 
ATOM     10  C   UNL     1      -2.432  13.294  20.767  0.00  0.00    +0.000 C 
ATOM     11  N   UNL     1      -1.676  12.952  19.777  0.00  0.00    +0.000 NA
ATOM     12  C   UNL     1      -2.234  12.056  18.742  0.00  0.00    +0.000 C 
ATOM     13  C   UNL     1      -3.759  11.919  18.743  0.00  0.00    +0.000 A 
ATOM     14  C   UNL     1      -4.468  11.348  17.671  0.00  0.00    +0.000 A 
ATOM     15  C   UNL     1      -5.811  11.012  17.799  0.00  0.00    +0.000 A 
ATOM     16  C   UNL     1      -6.504  11.363  18.953  0.00  0.00    +0.000 A 
ATOM     17  C   UNL     1      -5.859  12.075  19.974  0.00  0.00    +0.000 A 
ATOM     18  C   UNL     1      -4.473  12.337  19.870  0.00  0.00    +0.000 A 
ATOM     19  N   UNL     1      -3.743  12.946  20.897  0.00  0.00    +0.000 N 
ATOM     20  H   UNL     1       1.121  16.562  23.639  0.00  0.00    +0.000 HD
ATOM     21  H   UNL     1      -4.327  13.442  21.566  0.00  0.00    +0.000 HD
ENDROOT
BRANCH  17  22
ATOM     22  C   UNL     1      -6.619  12.572  21.166  0.00  0.00    +0.000 C 
ATOM     23  N   UNL     1      -7.636  13.468  20.975  0.00  0.00    +0.000 N 
ATOM     24  O   UNL     1      -6.323  12.231  22.309  0.00  0.00    +0.000 OA
ATOM     25  H   UNL     1      -7.863  13.913  20.101  0.00  0.00    +0.000 HD
ATOM     26  H   UNL     1      -8.078  13.835  21.808  0.00  0.00    +0.000 HD
ENDBRANCH  17  22
BRANCH  12  27
ATOM     27  N   UNL     1      -1.514  10.769  18.865  0.00  0.00    +0.000 NA
ATOM     28  H   UNL     1      -1.465  10.382  17.926  0.00  0.00    +0.000 HD
BRANCH  27  29
ATOM     29  C   UNL     1      -0.184  10.887  19.430  0.00  0.00    +0.000 C 
BRANCH  29  30
ATOM     30  C   UNL     1       0.547   9.588  19.628  0.00  0.00    +0.000 A 
ATOM     31  C   UNL     1       1.256   9.075  18.527  0.00  0.00    +0.000 A 
ATOM     32  F   UNL     1       1.131   9.655  17.324  0.00  0.00    +0.000 F 
ATOM     33  C   UNL     1       2.140   8.013  18.654  0.00  0.00    +0.000 A 
ATOM     34  C   UNL     1       2.338   7.439  19.902  0.00  0.00    +0.000 A 
ATOM     35  C   UNL     1       1.601   7.894  20.999  0.00  0.00    +0.000 A 
ATOM     36  C   UNL     1       0.671   8.951  20.878  0.00  0.00    +0.000 A 
BRANCH  36  37
ATOM     37  C   UNL     1      -0.114   9.338  22.115  0.00  0.00    +0.000 C 
ATOM     38  F   UNL     1      -0.821  10.495  22.044  0.00  0.00    +0.000 F 
ATOM     39  F   UNL     1      -1.017   8.376  22.464  0.00  0.00    +0.000 F 
ATOM     40  F   UNL     1       0.700   9.481  23.202  0.00  0.00    +0.000 F 
ENDBRANCH  36  37
ENDBRANCH  29  30
ENDBRANCH  27  29
ENDBRANCH  12  27
TORSDOF 5
ENDMDL
MODEL 8
REMARK VINA RESULT:      -7.3      2.326      3.092
REMARK  Name = 
REMARK  6 active torsions:
REMARK  status: ('A' for Active; 'I' for Inactive)
REMARK    1  A    between atoms: C_1  and  C_2
REMARK    2  A    between atoms: C_12  and  N_13
REMARK    3  A    between atoms: N_13  and  C_14
REMARK    4  A    between atoms: C_14  and  C_15
REMARK    5  A    between atoms: C_21  and  C_22
REMARK    6  A    between atoms: C_30  and  C_31
REMARK                            x       y       z     vdW  Elec       q    Type
REMARK                         _______ _______ _______ _____ _____    ______ ____
ROOT
ATOM      1  C   UNL     1      -5.844  12.923  22.478  0.00  0.00    +0.000 C 
ATOM      2  C   UNL     1      -5.424  14.256  21.863  0.00  0.00    +0.000 C 
ATOM      3  C   UNL     1      -5.563  15.356  22.841  0.00  0.00    +0.000 A 
ATOM      4  C   UNL     1      -6.464  16.061  23.622  0.00  0.00    +0.000 A 
ATOM      5  N   UNL     1      -5.840  16.998  24.358  0.00  0.00    +0.000 NA
ATOM      6  N   UNL     1      -4.526  16.860  24.034  0.00  0.00    +0.000 N 
ATOM      7  C   UNL     1      -4.343  15.887  23.129  0.00  0.00    +0.000 A 
ATOM      8  C   UNL     1      -3.228  15.243  22.395  0.00  0.00    +0.000 C 
ATOM      9  N   UNL     1      -3.952  14.256  21.526  0.00  0.00    +0.000 N 
ATOM     10  C   UNL     1      -3.307  13.366  20.699  0.00  0.00    +0.000 C 
ATOM     11  N   UNL     1      -2.034  13.152  20.777  0.00  0.00    +0.000 NA
ATOM     12  C   UNL     1      -1.443  12.106  19.918  0.00  0.00    +0.000 C 
ATOM     13  C   UNL     1      -2.321  11.635  18.755  0.00  0.00    +0.000 A 
ATOM     14  C   UNL     1      -1.816  10.870  17.688  0.00  0.00    +0.000 A 
ATOM     15  C   UNL     1      -2.673  10.251  16.784  0.00  0.00    +0.000 A 
ATOM     16  C   UNL     1      -4.040  10.496  16.849  0.00  0.00    +0.000 A 
ATOM     17  C   UNL     1      -4.554  11.381  17.807  0.00  0.00    +0.000 A 
ATOM     18  C   UNL     1      -3.685  11.939  18.774  0.00  0.00    +0.000 A 
ATOM     19  N   UNL     1      -4.145  12.743  19.823  0.00  0.00    +0.000 N 
ATOM     20  H   UNL     1      -3.852  17.475  24.490  0.00  0.00    +0.000 HD
ATOM     21  H   UNL     1      -5.070  13.129  19.659  0.00  0.00    +0.000 HD
ENDROOT
BRANCH  17  22
ATOM     22  C   UNL     1      -6.005  11.755  17.813  0.00  0.00    +0.000 C 
ATOM     23  N   UNL     1      -6.932  10.797  18.121  0.00  0.00    +0.000 N 
ATOM     24  O   UNL     1      -6.382  12.883  17.505  0.00  0.00    +0.000 OA
ATOM     25  H   UNL     1      -6.738   9.818  18.249  0.00  0.00    +0.000 HD
ATOM     26  H   UNL     1      -7.905  11.068  18.045  0.00  0.00    +0.000 HD
ENDBRANCH  17  22
BRANCH  12  27
ATOM     27  N   UNL     1      -1.002  11.019  20.819  0.00  0.00    +0.000 NA
ATOM     28  H   UNL     1      -1.341  10.154  20.404  0.00  0.00    +0.000 HD
BRANCH  27  29
ATOM     29  C   UNL     1       0.433  10.955  21.013  0.00  0.00    +0.000 C 
BRANCH  29  30
ATOM     30  C   UNL     1       1.187  10.167  19.978  0.00  0.00    +0.000 A 
ATOM     31  C   UNL     1       1.187   8.767  20.111  0.00  0.00    +0.000 A 
ATOM     32  F   UNL     1       0.670   8.201  21.212  0.00  0.00    +0.000 F 
ATOM     33  C   UNL     1       1.654   7.935  19.104  0.00  0.00    +0.000 A 
ATOM     34  C   UNL     1       2.132   8.494  17.928  0.00  0.00    +0.000 A 
ATOM     35  C   UNL     1       2.196   9.884  17.797  0.00  0.00    +0.000 A 
ATOM     36  C   UNL     1       1.757  10.745  18.828  0.00  0.00    +0.000 A 
BRANCH  36  37
ATOM     37  C   UNL     1       1.913  12.236  18.608  0.00  0.00    +0.000 C 
ATOM     38  F   UNL     1       0.853  12.879  18.056  0.00  0.00    +0.000 F 
ATOM     39  F   UNL     1       2.177  12.895  19.774  0.00  0.00    +0.000 F 
ATOM     40  F   UNL     1       2.969  12.514  17.788  0.00  0.00    +0.000 F 
ENDBRANCH  36  37
ENDBRANCH  29  30
ENDBRANCH  27  29
ENDBRANCH  12  27
TORSDOF 5
ENDMDL
MODEL 9
REMARK VINA RESULT:      -7.3      3.914      7.223
REMARK  Name = 
REMARK  6 active torsions:
REMARK  status: ('A' for Active; 'I' for Inactive)
REMARK    1  A    between atoms: C_1  and  C_2
REMARK    2  A    between atoms: C_12  and  N_13
REMARK    3  A    between atoms: N_13  and  C_14
REMARK    4  A    between atoms: C_14  and  C_15
REMARK    5  A    between atoms: C_21  and  C_22
REMARK    6  A    between atoms: C_30  and  C_31
REMARK                            x       y       z     vdW  Elec       q    Type
REMARK                         _______ _______ _______ _____ _____    ______ ____
ROOT
ATOM      1  C   UNL     1       1.992   9.333  17.589  0.00  0.00    +0.000 C 
ATOM      2  C   UNL     1       1.358   8.205  18.402  0.00  0.00    +0.000 C 
ATOM      3  C   UNL     1       2.289   7.064  18.537  0.00  0.00    +0.000 A 
ATOM      4  C   UNL     1       2.991   6.095  17.839  0.00  0.00    +0.000 A 
ATOM      5  N   UNL     1       3.731   5.339  18.670  0.00  0.00    +0.000 NA
ATOM      6  N   UNL     1       3.491   5.860  19.904  0.00  0.00    +0.000 N 
ATOM      7  C   UNL     1       2.631   6.888  19.843  0.00  0.00    +0.000 A 
ATOM      8  C   UNL     1       1.987   7.857  20.761  0.00  0.00    +0.000 C 
ATOM      9  N   UNL     1       1.110   8.639  19.827  0.00  0.00    +0.000 N 
ATOM     10  C   UNL     1       0.353   9.716  20.229  0.00  0.00    +0.000 C 
ATOM     11  N   UNL     1       0.514  10.278  21.382  0.00  0.00    +0.000 NA
ATOM     12  C   UNL     1      -0.273  11.489  21.690  0.00  0.00    +0.000 C 
ATOM     13  C   UNL     1      -1.470  11.748  20.770  0.00  0.00    +0.000 A 
ATOM     14  C   UNL     1      -2.479  12.677  21.084  0.00  0.00    +0.000 A 
ATOM     15  C   UNL     1      -3.411  13.070  20.131  0.00  0.00    +0.000 A 
ATOM     16  C   UNL     1      -3.436  12.445  18.889  0.00  0.00    +0.000 A 
ATOM     17  C   UNL     1      -2.540  11.404  18.605  0.00  0.00    +0.000 A 
ATOM     18  C   UNL     1      -1.542  11.069  19.550  0.00  0.00    +0.000 A 
ATOM     19  N   UNL     1      -0.550  10.117  19.290  0.00  0.00    +0.000 N 
ATOM     20  H   UNL     1       3.965   5.440  20.702  0.00  0.00    +0.000 HD
ATOM     21  H   UNL     1      -0.782   9.493  18.523  0.00  0.00    +0.000 HD
ENDROOT
BRANCH  17  22
ATOM     22  C   UNL     1      -2.634  10.634  17.323  0.00  0.00    +0.000 C 
ATOM     23  N   UNL     1      -2.326  11.266  16.149  0.00  0.00    +0.000 N 
ATOM     24  O   UNL     1      -3.021   9.468  17.297  0.00  0.00    +0.000 OA
ATOM     25  H   UNL     1      -2.136  12.249  16.049  0.00  0.00    +0.000 HD
ATOM     26  H   UNL     1      -2.469  10.736  15.298  0.00  0.00    +0.000 HD
ENDBRANCH  17  22
BRANCH  12  27
ATOM     27  N   UNL     1       0.689  12.612  21.757  0.00  0.00    +0.000 NA
ATOM     28  H   UNL     1       1.302  12.411  22.544  0.00  0.00    +0.000 HD
BRANCH  27  29
ATOM     29  C   UNL     1       1.466  12.798  20.547  0.00  0.00    +0.000 C 
BRANCH  29  30
ATOM     30  C   UNL     1       2.009  14.185  20.340  0.00  0.00    +0.000 A 
ATOM     31  C   UNL     1       3.290  14.457  20.851  0.00  0.00    +0.000 A 
ATOM     32  F   UNL     1       3.906  13.551  21.626  0.00  0.00    +0.000 F 
ATOM     33  C   UNL     1       3.977  15.619  20.530  0.00  0.00    +0.000 A 
ATOM     34  C   UNL     1       3.389  16.541  19.676  0.00  0.00    +0.000 A 
ATOM     35  C   UNL     1       2.093  16.319  19.202  0.00  0.00    +0.000 A 
ATOM     36  C   UNL     1       1.367  15.158  19.550  0.00  0.00    +0.000 A 
BRANCH  36  37
ATOM     37  C   UNL     1      -0.049  15.035  19.026  0.00  0.00    +0.000 C 
ATOM     38  F   UNL     1      -0.338  13.905  18.330  0.00  0.00    +0.000 F 
ATOM     39  F   UNL     1      -0.969  15.093  20.031  0.00  0.00    +0.000 F 
ATOM     40  F   UNL     1      -0.365  16.064  18.186  0.00  0.00    +0.000 F 
ENDBRANCH  36  37
ENDBRANCH  29  30
ENDBRANCH  27  29
ENDBRANCH  12  27
TORSDOF 5
ENDMDL
