MODEL 1
REMARK VINA RESULT:      -7.8      0.000      0.000
REMARK  Name = 
REMARK  4 active torsions:
REMARK  status: ('A' for Active; 'I' for Inactive)
REMARK    1  A    between atoms: N_8  and  C_9
REMARK    2  A    between atoms: C_12  and  C_13
REMARK    3  A    between atoms: C_12  and  C_15
REMARK    4  A    between atoms: C_13  and  O_14
REMARK                            x       y       z     vdW  Elec       q    Type
REMARK                         _______ _______ _______ _____ _____    ______ ____
ROOT
ATOM      1  N   UNL     1       8.473   5.259  20.422  0.00  0.00    +0.000 N 
ATOM      2  C   UNL     1       7.828   5.633  19.289  0.00  0.00    +0.000 A 
ATOM      3  N   UNL     1       6.974   4.829  18.710  0.00  0.00    +0.000 NA
ATOM      4  C   UNL     1       6.394   5.359  17.596  0.00  0.00    +0.000 A 
ATOM      5  C   UNL     1       6.636   6.599  17.039  0.00  0.00    +0.000 A 
ATOM      6  N   UNL     1       5.881   6.818  15.925  0.00  0.00    +0.000 NA
ATOM      7  C   UNL     1       5.155   5.727  15.820  0.00  0.00    +0.000 A 
ATOM      8  N   UNL     1       5.416   4.778  16.797  0.00  0.00    +0.000 N 
ATOM      9  C   UNL     1       7.588   7.465  17.686  0.00  0.00    +0.000 A 
ATOM     10  O   UNL     1       7.897   8.594  17.318  0.00  0.00    +0.000 OA
ATOM     11  N   UNL     1       8.144   6.888  18.814  0.00  0.00    +0.000 N 
ATOM     12  H   UNL     1       8.429   4.265  20.613  0.00  0.00    +0.000 HD
ATOM     13  H   UNL     1       9.364   5.686  20.637  0.00  0.00    +0.000 HD
ATOM     14  H   UNL     1       8.784   7.478  19.317  0.00  0.00    +0.000 HD
ENDROOT
BRANCH   8  15
ATOM     15  C   UNL     1       4.825   3.522  16.948  0.00  0.00    +0.000 C 
ATOM     16  C   UNL     1       3.737   3.251  17.647  0.00  0.00    +0.000 C 
ATOM     17  C   UNL     1       2.863   2.228  18.063  0.00  0.00    +0.000 C 
ATOM     18  C   UNL     1       2.680   3.752  18.458  0.00  0.00    +0.000 C 
BRANCH  18  19
ATOM     19  C   UNL     1       1.541   4.486  17.799  0.00  0.00    +0.000 C 
ATOM     20  F   UNL     1       1.886   5.798  17.700  0.00  0.00    +0.000 F 
ENDBRANCH  18  19
BRANCH  18  21
ATOM     21  C   UNL     1       2.895   4.144  19.899  0.00  0.00    +0.000 C 
BRANCH  21  22
ATOM     22  O   UNL     1       3.914   5.125  20.045  0.00  0.00    +0.000 OA
ATOM     23  H   UNL     1       4.732   4.658  20.280  0.00  0.00    +0.000 HD
ENDBRANCH  21  22
ENDBRANCH  18  21
ENDBRANCH   8  15
TORSDOF 4
ENDMDL
MODEL 2
REMARK VINA RESULT:      -7.6      1.739      2.397
REMARK  Name = 
REMARK  4 active torsions:
REMARK  status: ('A' for Active; 'I' for Inactive)
REMARK    1  A    between atoms: N_8  and  C_9
REMARK    2  A    between atoms: C_12  and  C_13
REMARK    3  A    between atoms: C_12  and  C_15
REMARK    4  A    between atoms: C_13  and  O_14
REMARK                            x       y       z     vdW  Elec       q    Type
REMARK                         _______ _______ _______ _____ _____    ______ ____
ROOT
ATOM      1  N   UNL     1       8.338   6.309  19.438  0.00  0.00    +0.000 N 
ATOM      2  C   UNL     1       7.416   5.684  18.664  0.00  0.00    +0.000 A 
ATOM      3  N   UNL     1       6.554   4.852  19.190  0.00  0.00    +0.000 NA
ATOM      4  C   UNL     1       5.681   4.327  18.284  0.00  0.00    +0.000 A 
ATOM      5  C   UNL     1       5.645   4.564  16.925  0.00  0.00    +0.000 A 
ATOM      6  N   UNL     1       4.639   3.879  16.310  0.00  0.00    +0.000 NA
ATOM      7  C   UNL     1       4.041   3.249  17.298  0.00  0.00    +0.000 A 
ATOM      8  N   UNL     1       4.624   3.461  18.538  0.00  0.00    +0.000 N 
ATOM      9  C   UNL     1       6.610   5.475  16.364  0.00  0.00    +0.000 A 
ATOM     10  O   UNL     1       6.694   5.793  15.182  0.00  0.00    +0.000 OA
ATOM     11  N   UNL     1       7.468   5.988  17.320  0.00  0.00    +0.000 N 
ATOM     12  H   UNL     1       8.455   5.895  20.356  0.00  0.00    +0.000 HD
ATOM     13  H   UNL     1       9.198   6.624  19.011  0.00  0.00    +0.000 HD
ATOM     14  H   UNL     1       8.132   6.660  16.973  0.00  0.00    +0.000 HD
ENDROOT
BRANCH   8  15
ATOM     15  C   UNL     1       4.233   2.928  19.767  0.00  0.00    +0.000 C 
ATOM     16  C   UNL     1       3.109   3.190  20.410  0.00  0.00    +0.000 C 
ATOM     17  C   UNL     1       2.363   2.929  21.575  0.00  0.00    +0.000 C 
ATOM     18  C   UNL     1       1.870   3.890  20.416  0.00  0.00    +0.000 C 
BRANCH  18  19
ATOM     19  C   UNL     1       0.743   3.383  19.554  0.00  0.00    +0.000 C 
ATOM     20  F   UNL     1       0.919   3.871  18.296  0.00  0.00    +0.000 F 
ENDBRANCH  18  19
BRANCH  18  21
ATOM     21  C   UNL     1       1.788   5.369  20.704  0.00  0.00    +0.000 C 
BRANCH  21  22
ATOM     22  O   UNL     1       2.854   6.095  20.106  0.00  0.00    +0.000 OA
ATOM     23  H   UNL     1       3.682   5.745  20.474  0.00  0.00    +0.000 HD
ENDBRANCH  21  22
ENDBRANCH  18  21
ENDBRANCH   8  15
TORSDOF 4
ENDMDL
MODEL 3
REMARK VINA RESULT:      -7.4      2.392      2.898
REMARK  Name = 
REMARK  4 active torsions:
REMARK  status: ('A' for Active; 'I' for Inactive)
REMARK    1  A    between atoms: N_8  and  C_9
REMARK    2  A    between atoms: C_12  and  C_13
REMARK    3  A    between atoms: C_12  and  C_15
REMARK    4  A    between atoms: C_13  and  O_14
REMARK                            x       y       z     vdW  Elec       q    Type
REMARK                         _______ _______ _______ _____ _____    ______ ____
ROOT
ATOM      1  N   UNL     1       8.260   5.414  20.425  0.00  0.00    +0.000 N 
ATOM      2  C   UNL     1       7.406   5.201  19.393  0.00  0.00    +0.000 A 
ATOM      3  N   UNL     1       6.112   5.268  19.572  0.00  0.00    +0.000 NA
ATOM      4  C   UNL     1       5.392   5.052  18.434  0.00  0.00    +0.000 A 
ATOM      5  C   UNL     1       5.884   4.758  17.179  0.00  0.00    +0.000 A 
ATOM      6  N   UNL     1       4.889   4.605  16.260  0.00  0.00    +0.000 NA
ATOM      7  C   UNL     1       3.791   4.838  16.945  0.00  0.00    +0.000 A 
ATOM      8  N   UNL     1       4.011   5.108  18.288  0.00  0.00    +0.000 N 
ATOM      9  C   UNL     1       7.313   4.678  17.005  0.00  0.00    +0.000 A 
ATOM     10  O   UNL     1       7.895   4.438  15.953  0.00  0.00    +0.000 OA
ATOM     11  N   UNL     1       7.999   4.911  18.183  0.00  0.00    +0.000 N 
ATOM     12  H   UNL     1       7.823   5.373  21.338  0.00  0.00    +0.000 HD
ATOM     13  H   UNL     1       9.182   5.002  20.385  0.00  0.00    +0.000 HD
ATOM     14  H   UNL     1       9.002   4.903  18.095  0.00  0.00    +0.000 HD
ENDROOT
BRANCH   8  15
ATOM     15  C   UNL     1       3.058   5.381  19.271  0.00  0.00    +0.000 C 
ATOM     16  C   UNL     1       2.352   4.489  19.942  0.00  0.00    +0.000 C 
ATOM     17  C   UNL     1       1.356   4.312  20.922  0.00  0.00    +0.000 C 
ATOM     18  C   UNL     1       2.079   3.113  20.179  0.00  0.00    +0.000 C 
BRANCH  18  19
ATOM     19  C   UNL     1       3.054   2.305  20.996  0.00  0.00    +0.000 C 
ATOM     20  F   UNL     1       4.292   2.464  20.454  0.00  0.00    +0.000 F 
ENDBRANCH  18  19
BRANCH  18  21
ATOM     21  C   UNL     1       1.269   2.281  19.215  0.00  0.00    +0.000 C 
BRANCH  21  22
ATOM     22  O   UNL     1       2.042   1.828  18.112  0.00  0.00    +0.000 OA
ATOM     23  H   UNL     1       2.147   0.867  18.209  0.00  0.00    +0.000 HD
ENDBRANCH  21  22
ENDBRANCH  18  21
ENDBRANCH   8  15
TORSDOF 4
ENDMDL
MODEL 4
REMARK VINA RESULT:      -7.3      2.175      3.165
REMARK  Name = 
REMARK  4 active torsions:
REMARK  status: ('A' for Active; 'I' for Inactive)
REMARK    1  A    between atoms: N_8  and  C_9
REMARK    2  A    between atoms: C_12  and  C_13
REMARK    3  A    between atoms: C_12  and  C_15
REMARK    4  A    between atoms: C_13  and  O_14
REMARK                            x       y       z     vdW  Elec       q    Type
REMARK                         _______ _______ _______ _____ _____    ______ ____
ROOT
ATOM      1  N   UNL     1       6.468   3.640  13.655  0.00  0.00    +0.000 N 
ATOM      2  C   UNL     1       6.145   4.262  14.815  0.00  0.00    +0.000 A 
ATOM      3  N   UNL     1       5.051   3.948  15.460  0.00  0.00    +0.000 NA
ATOM      4  C   UNL     1       4.882   4.646  16.619  0.00  0.00    +0.000 A 
ATOM      5  C   UNL     1       5.709   5.624  17.132  0.00  0.00    +0.000 A 
ATOM      6  N   UNL     1       5.247   6.118  18.316  0.00  0.00    +0.000 NA
ATOM      7  C   UNL     1       4.157   5.420  18.543  0.00  0.00    +0.000 A 
ATOM      8  N   UNL     1       3.856   4.504  17.545  0.00  0.00    +0.000 N 
ATOM      9  C   UNL     1       6.904   5.963  16.401  0.00  0.00    +0.000 A 
ATOM     10  O   UNL     1       7.738   6.798  16.736  0.00  0.00    +0.000 OA
ATOM     11  N   UNL     1       7.036   5.225  15.239  0.00  0.00    +0.000 N 
ATOM     12  H   UNL     1       5.700   3.132  13.231  0.00  0.00    +0.000 HD
ATOM     13  H   UNL     1       7.063   4.121  12.994  0.00  0.00    +0.000 HD
ATOM     14  H   UNL     1       7.879   5.404  14.720  0.00  0.00    +0.000 HD
ENDROOT
BRANCH   8  15
ATOM     15  C   UNL     1       2.767   3.632  17.488  0.00  0.00    +0.000 C 
ATOM     16  C   UNL     1       2.013   3.256  18.506  0.00  0.00    +0.000 C 
ATOM     17  C   UNL     1       0.922   2.456  18.894  0.00  0.00    +0.000 C 
ATOM     18  C   UNL     1       1.740   3.369  19.898  0.00  0.00    +0.000 C 
BRANCH  18  19
ATOM     19  C   UNL     1       1.043   4.605  20.407  0.00  0.00    +0.000 C 
ATOM     20  F   UNL     1       1.993   5.483  20.827  0.00  0.00    +0.000 F 
ENDBRANCH  18  19
BRANCH  18  21
ATOM     21  C   UNL     1       2.598   2.692  20.938  0.00  0.00    +0.000 C 
BRANCH  21  22
ATOM     22  O   UNL     1       2.068   2.832  22.250  0.00  0.00    +0.000 OA
ATOM     23  H   UNL     1       2.644   2.329  22.849  0.00  0.00    +0.000 HD
ENDBRANCH  21  22
ENDBRANCH  18  21
ENDBRANCH   8  15
TORSDOF 4
ENDMDL
MODEL 5
REMARK VINA RESULT:      -7.2      2.291      3.114
REMARK  Name = 
REMARK  4 active torsions:
REMARK  status: ('A' for Active; 'I' for Inactive)
REMARK    1  A    between atoms: N_8  and  C_9
REMARK    2  A    between atoms: C_12  and  C_13
REMARK    3  A    between atoms: C_12  and  C_15
REMARK    4  A    between atoms: C_13  and  O_14
REMARK                            x       y       z     vdW  Elec       q    Type
REMARK                         _______ _______ _______ _____ _____    ______ ____
ROOT
ATOM      1  N   UNL     1       6.331   3.249  15.580  0.00  0.00    +0.000 N 
ATOM      2  C   UNL     1       5.690   4.288  16.170  0.00  0.00    +0.000 A 
ATOM      3  N   UNL     1       4.460   4.160  16.595  0.00  0.00    +0.000 NA
ATOM      4  C   UNL     1       3.967   5.286  17.185  0.00  0.00    +0.000 A 
ATOM      5  C   UNL     1       4.612   6.496  17.342  0.00  0.00    +0.000 A 
ATOM      6  N   UNL     1       3.831   7.414  17.981  0.00  0.00    +0.000 NA
ATOM      7  C   UNL     1       2.723   6.756  18.242  0.00  0.00    +0.000 A 
ATOM      8  N   UNL     1       2.721   5.449  17.777  0.00  0.00    +0.000 N 
ATOM      9  C   UNL     1       5.963   6.619  16.858  0.00  0.00    +0.000 A 
ATOM     10  O   UNL     1       6.665   7.622  16.938  0.00  0.00    +0.000 OA
ATOM     11  N   UNL     1       6.422   5.452  16.275  0.00  0.00    +0.000 N 
ATOM     12  H   UNL     1       5.716   2.499  15.283  0.00  0.00    +0.000 HD
ATOM     13  H   UNL     1       7.088   3.445  14.938  0.00  0.00    +0.000 HD
ATOM     14  H   UNL     1       7.377   5.485  15.961  0.00  0.00    +0.000 HD
ENDROOT
BRANCH   8  15
ATOM     15  C   UNL     1       1.696   4.507  17.886  0.00  0.00    +0.000 C 
ATOM     16  C   UNL     1       1.717   3.413  18.626  0.00  0.00    +0.000 C 
ATOM     17  C   UNL     1       0.992   2.266  19.003  0.00  0.00    +0.000 C 
ATOM     18  C   UNL     1       2.437   2.611  19.555  0.00  0.00    +0.000 C 
BRANCH  18  19
ATOM     19  C   UNL     1       2.521   3.055  20.992  0.00  0.00    +0.000 C 
ATOM     20  F   UNL     1       2.655   4.409  21.009  0.00  0.00    +0.000 F 
ENDBRANCH  18  19
BRANCH  18  21
ATOM     21  C   UNL     1       3.590   1.735  19.129  0.00  0.00    +0.000 C 
BRANCH  21  22
ATOM     22  O   UNL     1       4.843   2.398  19.246  0.00  0.00    +0.000 OA
ATOM     23  H   UNL     1       4.711   3.315  18.954  0.00  0.00    +0.000 HD
ENDBRANCH  21  22
ENDBRANCH  18  21
ENDBRANCH   8  15
TORSDOF 4
ENDMDL
MODEL 6
REMARK VINA RESULT:      -7.1      2.072      2.568
REMARK  Name = 
REMARK  4 active torsions:
REMARK  status: ('A' for Active; 'I' for Inactive)
REMARK    1  A    between atoms: N_8  and  C_9
REMARK    2  A    between atoms: C_12  and  C_13
REMARK    3  A    between atoms: C_12  and  C_15
REMARK    4  A    between atoms: C_13  and  O_14
REMARK                            x       y       z     vdW  Elec       q    Type
REMARK                         _______ _______ _______ _____ _____    ______ ____
ROOT
ATOM      1  N   UNL     1       8.401   5.252  20.293  0.00  0.00    +0.000 N 
ATOM      2  C   UNL     1       7.459   5.494  19.348  0.00  0.00    +0.000 A 
ATOM      3  N   UNL     1       6.188   5.496  19.655  0.00  0.00    +0.000 NA
ATOM      4  C   UNL     1       5.372   5.778  18.601  0.00  0.00    +0.000 A 
ATOM      5  C   UNL     1       5.750   6.024  17.296  0.00  0.00    +0.000 A 
ATOM      6  N   UNL     1       4.679   6.277  16.490  0.00  0.00    +0.000 NA
ATOM      7  C   UNL     1       3.651   6.217  17.308  0.00  0.00    +0.000 A 
ATOM      8  N   UNL     1       3.988   5.905  18.616  0.00  0.00    +0.000 N 
ATOM      9  C   UNL     1       7.154   6.007  16.976  0.00  0.00    +0.000 A 
ATOM     10  O   UNL     1       7.641   6.218  15.869  0.00  0.00    +0.000 OA
ATOM     11  N   UNL     1       7.942   5.724  18.077  0.00  0.00    +0.000 N 
ATOM     12  H   UNL     1       8.035   4.841  21.145  0.00  0.00    +0.000 HD
ATOM     13  H   UNL     1       9.296   4.882  20.004  0.00  0.00    +0.000 HD
ATOM     14  H   UNL     1       8.932   5.743  17.902  0.00  0.00    +0.000 HD
ENDROOT
BRANCH   8  15
ATOM     15  C   UNL     1       3.129   5.757  19.707  0.00  0.00    +0.000 C 
ATOM     16  C   UNL     1       2.451   4.669  20.025  0.00  0.00    +0.000 C 
ATOM     17  C   UNL     1       1.534   4.110  20.935  0.00  0.00    +0.000 C 
ATOM     18  C   UNL     1       2.151   3.313  19.713  0.00  0.00    +0.000 C 
BRANCH  18  19
ATOM     19  C   UNL     1       3.163   2.247  20.046  0.00  0.00    +0.000 C 
ATOM     20  F   UNL     1       4.388   2.689  19.653  0.00  0.00    +0.000 F 
ENDBRANCH  18  19
BRANCH  18  21
ATOM     21  C   UNL     1       1.237   2.938  18.573  0.00  0.00    +0.000 C 
BRANCH  21  22
ATOM     22  O   UNL     1       1.582   3.601  17.364  0.00  0.00    +0.000 OA
ATOM     23  H   UNL     1       1.219   3.074  16.632  0.00  0.00    +0.000 HD
ENDBRANCH  21  22
ENDBRANCH  18  21
ENDBRANCH   8  15
TORSDOF 4
ENDMDL
MODEL 7
REMARK VINA RESULT:      -7.1      2.115      3.319
REMARK  Name = 
REMARK  4 active torsions:
REMARK  status: ('A' for Active; 'I' for Inactive)
REMARK    1  A    between atoms: N_8  and  C_9
REMARK    2  A    between atoms: C_12  and  C_13
REMARK    3  A    between atoms: C_12  and  C_15
REMARK    4  A    between atoms: C_13  and  O_14
REMARK                            x       y       z     vdW  Elec       q    Type
REMARK                         _______ _______ _______ _____ _____    ______ ____
ROOT
ATOM      1  N   UNL     1       6.273   4.204  14.016  0.00  0.00    +0.000 N 
ATOM      2  C   UNL     1       6.138   4.280  15.363  0.00  0.00    +0.000 A 
ATOM      3  N   UNL     1       5.048   3.862  15.951  0.00  0.00    +0.000 NA
ATOM      4  C   UNL     1       5.078   3.985  17.308  0.00  0.00    +0.000 A 
ATOM      5  C   UNL     1       6.097   4.510  18.076  0.00  0.00    +0.000 A 
ATOM      6  N   UNL     1       5.805   4.481  19.407  0.00  0.00    +0.000 NA
ATOM      7  C   UNL     1       4.622   3.909  19.456  0.00  0.00    +0.000 A 
ATOM      8  N   UNL     1       4.101   3.584  18.212  0.00  0.00    +0.000 N 
ATOM      9  C   UNL     1       7.286   4.976  17.408  0.00  0.00    +0.000 A 
ATOM     10  O   UNL     1       8.276   5.454  17.954  0.00  0.00    +0.000 OA
ATOM     11  N   UNL     1       7.212   4.824  16.035  0.00  0.00    +0.000 N 
ATOM     12  H   UNL     1       5.402   4.047  13.522  0.00  0.00    +0.000 HD
ATOM     13  H   UNL     1       6.903   4.844  13.553  0.00  0.00    +0.000 HD
ATOM     14  H   UNL     1       8.041   5.101  15.536  0.00  0.00    +0.000 HD
ENDROOT
BRANCH   8  15
ATOM     15  C   UNL     1       2.872   2.984  17.932  0.00  0.00    +0.000 C 
ATOM     16  C   UNL     1       1.852   2.870  18.763  0.00  0.00    +0.000 C 
ATOM     17  C   UNL     1       0.542   2.375  18.915  0.00  0.00    +0.000 C 
ATOM     18  C   UNL     1       1.325   3.148  20.056  0.00  0.00    +0.000 C 
BRANCH  18  19
ATOM     19  C   UNL     1       0.855   4.546  20.367  0.00  0.00    +0.000 C 
ATOM     20  F   UNL     1       1.884   5.402  20.123  0.00  0.00    +0.000 F 
ENDBRANCH  18  19
BRANCH  18  21
ATOM     21  C   UNL     1       1.753   2.373  21.277  0.00  0.00    +0.000 C 
BRANCH  21  22
ATOM     22  O   UNL     1       2.351   3.205  22.262  0.00  0.00    +0.000 OA
ATOM     23  H   UNL     1       3.210   2.811  22.489  0.00  0.00    +0.000 HD
ENDBRANCH  21  22
ENDBRANCH  18  21
ENDBRANCH   8  15
TORSDOF 4
ENDMDL
MODEL 8
REMARK VINA RESULT:      -7.1      2.520      3.217
REMARK  Name = 
REMARK  4 active torsions:
REMARK  status: ('A' for Active; 'I' for Inactive)
REMARK    1  A    between atoms: N_8  and  C_9
REMARK    2  A    between atoms: C_12  and  C_13
REMARK    3  A    between atoms: C_12  and  C_15
REMARK    4  A    between atoms: C_13  and  O_14
REMARK                            x       y       z     vdW  Elec       q    Type
REMARK                         _______ _______ _______ _____ _____    ______ ____
ROOT
ATOM      1  N   UNL     1       7.670   8.192  17.470  0.00  0.00    +0.000 N 
ATOM      2  C   UNL     1       6.957   7.078  17.166  0.00  0.00    +0.000 A 
ATOM      3  N   UNL     1       5.857   6.791  17.812  0.00  0.00    +0.000 NA
ATOM      4  C   UNL     1       5.247   5.654  17.374  0.00  0.00    +0.000 A 
ATOM      5  C   UNL     1       5.682   4.806  16.375  0.00  0.00    +0.000 A 
ATOM      6  N   UNL     1       4.831   3.758  16.185  0.00  0.00    +0.000 NA
ATOM      7  C   UNL     1       3.861   3.982  17.043  0.00  0.00    +0.000 A 
ATOM      8  N   UNL     1       4.045   5.117  17.819  0.00  0.00    +0.000 N 
ATOM      9  C   UNL     1       6.903   5.134  15.682  0.00  0.00    +0.000 A 
ATOM     10  O   UNL     1       7.405   4.487  14.769  0.00  0.00    +0.000 OA
ATOM     11  N   UNL     1       7.480   6.298  16.156  0.00  0.00    +0.000 N 
ATOM     12  H   UNL     1       7.424   8.609  18.360  0.00  0.00    +0.000 HD
ATOM     13  H   UNL     1       8.659   8.208  17.261  0.00  0.00    +0.000 HD
ATOM     14  H   UNL     1       8.314   6.583  15.670  0.00  0.00    +0.000 HD
ENDROOT
BRANCH   8  15
ATOM     15  C   UNL     1       3.207   5.612  18.819  0.00  0.00    +0.000 C 
ATOM     16  C   UNL     1       2.433   4.896  19.615  0.00  0.00    +0.000 C 
ATOM     17  C   UNL     1       1.491   4.953  20.660  0.00  0.00    +0.000 C 
ATOM     18  C   UNL     1       1.992   3.600  20.005  0.00  0.00    +0.000 C 
BRANCH  18  19
ATOM     19  C   UNL     1       2.902   2.741  20.845  0.00  0.00    +0.000 C 
ATOM     20  F   UNL     1       4.125   2.715  20.250  0.00  0.00    +0.000 F 
ENDBRANCH  18  19
BRANCH  18  21
ATOM     21  C   UNL     1       1.013   2.806  19.175  0.00  0.00    +0.000 C 
BRANCH  21  22
ATOM     22  O   UNL     1       1.613   1.662  18.581  0.00  0.00    +0.000 OA
ATOM     23  H   UNL     1       0.938   0.963  18.556  0.00  0.00    +0.000 HD
ENDBRANCH  21  22
ENDBRANCH  18  21
ENDBRANCH   8  15
TORSDOF 4
ENDMDL
MODEL 9
REMARK VINA RESULT:      -7.1      2.987      5.409
REMARK  Name = 
REMARK  4 active torsions:
REMARK  status: ('A' for Active; 'I' for Inactive)
REMARK    1  A    between atoms: N_8  and  C_9
REMARK    2  A    between atoms: C_12  and  C_13
REMARK    3  A    between atoms: C_12  and  C_15
REMARK    4  A    between atoms: C_13  and  O_14
REMARK                            x       y       z     vdW  Elec       q    Type
REMARK                         _______ _______ _______ _____ _____    ______ ____
ROOT
ATOM      1  N   UNL     1       2.187   7.405  20.165  0.00  0.00    +0.000 N 
ATOM      2  C   UNL     1       2.440   6.083  19.994  0.00  0.00    +0.000 A 
ATOM      3  N   UNL     1       2.879   5.629  18.849  0.00  0.00    +0.000 NA
ATOM      4  C   UNL     1       3.106   4.285  18.846  0.00  0.00    +0.000 A 
ATOM      5  C   UNL     1       2.898   3.402  19.886  0.00  0.00    +0.000 A 
ATOM      6  N   UNL     1       3.232   2.123  19.549  0.00  0.00    +0.000 NA
ATOM      7  C   UNL     1       3.674   2.230  18.315  0.00  0.00    +0.000 A 
ATOM      8  N   UNL     1       3.620   3.519  17.807  0.00  0.00    +0.000 N 
ATOM      9  C   UNL     1       2.404   3.920  21.137  0.00  0.00    +0.000 A 
ATOM     10  O   UNL     1       2.183   3.264  22.149  0.00  0.00    +0.000 OA
ATOM     11  N   UNL     1       2.196   5.287  21.093  0.00  0.00    +0.000 N 
ATOM     12  H   UNL     1       2.125   7.928  19.299  0.00  0.00    +0.000 HD
ATOM     13  H   UNL     1       1.519   7.685  20.870  0.00  0.00    +0.000 HD
ATOM     14  H   UNL     1       1.889   5.694  21.961  0.00  0.00    +0.000 HD
ENDROOT
BRANCH   8  15
ATOM     15  C   UNL     1       4.001   3.952  16.535  0.00  0.00    +0.000 C 
ATOM     16  C   UNL     1       5.060   4.686  16.245  0.00  0.00    +0.000 C 
ATOM     17  C   UNL     1       5.771   5.320  15.208  0.00  0.00    +0.000 C 
ATOM     18  C   UNL     1       6.223   5.350  16.726  0.00  0.00    +0.000 C 
BRANCH  18  19
ATOM     19  C   UNL     1       7.436   4.531  17.085  0.00  0.00    +0.000 C 
ATOM     20  F   UNL     1       7.829   4.883  18.339  0.00  0.00    +0.000 F 
ENDBRANCH  18  19
BRANCH  18  21
ATOM     21  C   UNL     1       6.145   6.663  17.466  0.00  0.00    +0.000 C 
BRANCH  21  22
ATOM     22  O   UNL     1       7.164   7.570  17.066  0.00  0.00    +0.000 OA
ATOM     23  H   UNL     1       7.904   7.039  16.726  0.00  0.00    +0.000 HD
ENDBRANCH  21  22
ENDBRANCH  18  21
ENDBRANCH   8  15
TORSDOF 4
ENDMDL
