MODEL 1
REMARK VINA RESULT:      -8.0      0.000      0.000
REMARK  Name = 
REMARK  7 active torsions:
REMARK  status: ('A' for Active; 'I' for Inactive)
REMARK    1  A    between atoms: C_1  and  C_2
REMARK    2  A    between atoms: C_2  and  C_3
REMARK    3  A    between atoms: C_2  and  C_4
REMARK    4  A    between atoms: C_2  and  C_5
REMARK    5  A    between atoms: C_7  and  N_8
REMARK    6  A    between atoms: N_11  and  C_12
REMARK    7  A    between atoms: N_19  and  C_20
REMARK                            x       y       z     vdW  Elec       q    Type
REMARK                         _______ _______ _______ _____ _____    ______ ____
ROOT
ATOM      1  C   UNL     1       5.419   5.972  17.619  0.00  0.00    +0.000 A 
ATOM      2  C   UNL     1       4.557   7.069  17.369  0.00  0.00    +0.000 A 
ATOM      3  C   UNL     1       3.350   6.725  17.930  0.00  0.00    +0.000 A 
ATOM      4  N   UNL     1       3.514   5.450  18.448  0.00  0.00    +0.000 N 
ATOM      5  N   UNL     1       4.803   5.039  18.361  0.00  0.00    +0.000 NA
ENDROOT
BRANCH   3   6
ATOM      6  N   UNL     1       2.213   7.539  17.991  0.00  0.00    +0.000 N 
ATOM      7  C   UNL     1       1.897   8.162  19.225  0.00  0.00    +0.000 C 
ATOM      8  O   UNL     1       2.636   7.997  20.183  0.00  0.00    +0.000 OA
ATOM      9  N   UNL     1       0.762   8.926  19.145  0.00  0.00    +0.000 N 
ATOM     10  H   UNL     1       1.792   7.839  17.125  0.00  0.00    +0.000 HD
ATOM     11  H   UNL     1       0.129   8.765  18.374  0.00  0.00    +0.000 HD
BRANCH   9  12
ATOM     12  C   UNL     1       0.263   9.677  20.238  0.00  0.00    +0.000 A 
ATOM     13  C   UNL     1       0.008   9.096  21.487  0.00  0.00    +0.000 A 
ATOM     14  C   UNL     1      -0.645   9.813  22.489  0.00  0.00    +0.000 A 
ATOM     15  C   UNL     1      -1.021  11.130  22.260  0.00  0.00    +0.000 A 
ATOM     16 CL   UNL     1      -1.909  11.983  23.458  0.00  0.00    +0.000 Cl
ATOM     17  C   UNL     1      -0.691  11.750  21.055  0.00  0.00    +0.000 A 
ATOM     18  C   UNL     1      -0.031  11.030  20.049  0.00  0.00    +0.000 A 
ENDBRANCH   9  12
ENDBRANCH   3   6
BRANCH   4  19
ATOM     19  C   UNL     1       2.506   4.614  18.989  0.00  0.00    +0.000 A 
ATOM     20  C   UNL     1       2.307   4.532  20.375  0.00  0.00    +0.000 A 
ATOM     21  C   UNL     1       1.363   3.645  20.891  0.00  0.00    +0.000 A 
ATOM     22  C   UNL     1       0.623   2.837  20.031  0.00  0.00    +0.000 A 
ATOM     23  C   UNL     1       0.788   2.952  18.648  0.00  0.00    +0.000 A 
ATOM     24  C   UNL     1       1.709   3.859  18.124  0.00  0.00    +0.000 A 
ENDBRANCH   4  19
BRANCH   1  26
ATOM     25  C   UNL     1       7.557   4.699  17.964  0.00  0.00    +0.000 C 
ATOM     26  C   UNL     1       6.865   5.818  17.160  0.00  0.00    +0.000 C 
ATOM     27  C   UNL     1       7.628   7.142  17.390  0.00  0.00    +0.000 C 
ATOM     28  C   UNL     1       6.974   5.466  15.662  0.00  0.00    +0.000 C 
ENDBRANCH   1  26
TORSDOF 4
ENDMDL
MODEL 2
REMARK VINA RESULT:      -7.9      0.495      1.065
REMARK  Name = 
REMARK  7 active torsions:
REMARK  status: ('A' for Active; 'I' for Inactive)
REMARK    1  A    between atoms: C_1  and  C_2
REMARK    2  A    between atoms: C_2  and  C_3
REMARK    3  A    between atoms: C_2  and  C_4
REMARK    4  A    between atoms: C_2  and  C_5
REMARK    5  A    between atoms: C_7  and  N_8
REMARK    6  A    between atoms: N_11  and  C_12
REMARK    7  A    between atoms: N_19  and  C_20
REMARK                            x       y       z     vdW  Elec       q    Type
REMARK                         _______ _______ _______ _____ _____    ______ ____
ROOT
ATOM      1  C   UNL     1       5.554   6.121  17.940  0.00  0.00    +0.000 A 
ATOM      2  C   UNL     1       4.700   7.187  17.559  0.00  0.00    +0.000 A 
ATOM      3  C   UNL     1       3.443   6.820  17.979  0.00  0.00    +0.000 A 
ATOM      4  N   UNL     1       3.577   5.562  18.546  0.00  0.00    +0.000 N 
ATOM      5  N   UNL     1       4.878   5.187  18.626  0.00  0.00    +0.000 NA
ENDROOT
BRANCH   3   6
ATOM      6  N   UNL     1       2.285   7.600  17.882  0.00  0.00    +0.000 N 
ATOM      7  C   UNL     1       1.836   8.286  19.039  0.00  0.00    +0.000 C 
ATOM      8  O   UNL     1       2.484   8.201  20.071  0.00  0.00    +0.000 OA
ATOM      9  N   UNL     1       0.696   9.008  18.804  0.00  0.00    +0.000 N 
ATOM     10  H   UNL     1       1.943   7.835  16.963  0.00  0.00    +0.000 HD
ATOM     11  H   UNL     1       0.144   8.783  17.989  0.00  0.00    +0.000 HD
BRANCH   9  12
ATOM     12  C   UNL     1       0.075   9.808  19.796  0.00  0.00    +0.000 A 
ATOM     13  C   UNL     1      -0.311  11.131  19.552  0.00  0.00    +0.000 A 
ATOM     14  C   UNL     1      -0.757  11.950  20.591  0.00  0.00    +0.000 A 
ATOM     15  C   UNL     1      -0.849  11.438  21.878  0.00  0.00    +0.000 A 
ATOM     16 CL   UNL     1      -1.307  12.470  23.173  0.00  0.00    +0.000 Cl
ATOM     17  C   UNL     1      -0.555  10.097  22.119  0.00  0.00    +0.000 A 
ATOM     18  C   UNL     1      -0.111   9.274  21.074  0.00  0.00    +0.000 A 
ENDBRANCH   9  12
ENDBRANCH   3   6
BRANCH   4  19
ATOM     19  C   UNL     1       2.534   4.708  18.982  0.00  0.00    +0.000 A 
ATOM     20  C   UNL     1       2.114   4.712  20.321  0.00  0.00    +0.000 A 
ATOM     21  C   UNL     1       1.140   3.810  20.748  0.00  0.00    +0.000 A 
ATOM     22  C   UNL     1       0.589   2.902  19.847  0.00  0.00    +0.000 A 
ATOM     23  C   UNL     1       0.974   2.929  18.503  0.00  0.00    +0.000 A 
ATOM     24  C   UNL     1       1.925   3.849  18.063  0.00  0.00    +0.000 A 
ENDBRANCH   4  19
BRANCH   1  26
ATOM     25  C   UNL     1       7.783   5.519  18.931  0.00  0.00    +0.000 C 
ATOM     26  C   UNL     1       7.049   6.001  17.663  0.00  0.00    +0.000 C 
ATOM     27  C   UNL     1       7.615   7.378  17.251  0.00  0.00    +0.000 C 
ATOM     28  C   UNL     1       7.360   5.006  16.525  0.00  0.00    +0.000 C 
ENDBRANCH   1  26
TORSDOF 4
ENDMDL
MODEL 3
REMARK VINA RESULT:      -7.9      0.126      1.269
REMARK  Name = 
REMARK  7 active torsions:
REMARK  status: ('A' for Active; 'I' for Inactive)
REMARK    1  A    between atoms: C_1  and  C_2
REMARK    2  A    between atoms: C_2  and  C_3
REMARK    3  A    between atoms: C_2  and  C_4
REMARK    4  A    between atoms: C_2  and  C_5
REMARK    5  A    between atoms: C_7  and  N_8
REMARK    6  A    between atoms: N_11  and  C_12
REMARK    7  A    between atoms: N_19  and  C_20
REMARK                            x       y       z     vdW  Elec       q    Type
REMARK                         _______ _______ _______ _____ _____    ______ ____
ROOT
ATOM      1  C   UNL     1       5.445   5.917  17.603  0.00  0.00    +0.000 A 
ATOM      2  C   UNL     1       4.557   6.998  17.377  0.00  0.00    +0.000 A 
ATOM      3  C   UNL     1       3.361   6.616  17.938  0.00  0.00    +0.000 A 
ATOM      4  N   UNL     1       3.558   5.336  18.432  0.00  0.00    +0.000 N 
ATOM      5  N   UNL     1       4.856   4.957  18.331  0.00  0.00    +0.000 NA
ENDROOT
BRANCH   3   6
ATOM      6  N   UNL     1       2.206   7.403  18.020  0.00  0.00    +0.000 N 
ATOM      7  C   UNL     1       1.929   8.066  19.243  0.00  0.00    +0.000 C 
ATOM      8  O   UNL     1       2.715   7.959  20.171  0.00  0.00    +0.000 OA
ATOM      9  N   UNL     1       0.771   8.796  19.185  0.00  0.00    +0.000 N 
ATOM     10  H   UNL     1       1.738   7.656  17.164  0.00  0.00    +0.000 HD
ATOM     11  H   UNL     1       0.108   8.589  18.452  0.00  0.00    +0.000 HD
BRANCH   9  12
ATOM     12  C   UNL     1       0.301   9.578  20.270  0.00  0.00    +0.000 A 
ATOM     13  C   UNL     1      -0.027   9.012  21.508  0.00  0.00    +0.000 A 
ATOM     14  C   UNL     1      -0.651   9.771  22.499  0.00  0.00    +0.000 A 
ATOM     15  C   UNL     1      -0.923  11.113  22.268  0.00  0.00    +0.000 A 
ATOM     16 CL   UNL     1      -1.775  12.025  23.449  0.00  0.00    +0.000 Cl
ATOM     17  C   UNL     1      -0.518  11.712  21.076  0.00  0.00    +0.000 A 
ATOM     18  C   UNL     1       0.112  10.950  20.082  0.00  0.00    +0.000 A 
ENDBRANCH   9  12
ENDBRANCH   3   6
BRANCH   4  19
ATOM     19  C   UNL     1       2.572   4.467  18.963  0.00  0.00    +0.000 A 
ATOM     20  C   UNL     1       1.853   3.600  18.126  0.00  0.00    +0.000 A 
ATOM     21  C   UNL     1       0.834   2.809  18.655  0.00  0.00    +0.000 A 
ATOM     22  C   UNL     1       0.527   2.885  20.012  0.00  0.00    +0.000 A 
ATOM     23  C   UNL     1       1.274   3.714  20.853  0.00  0.00    +0.000 A 
ATOM     24  C   UNL     1       2.314   4.485  20.336  0.00  0.00    +0.000 A 
ENDBRANCH   4  19
BRANCH   1  26
ATOM     25  C   UNL     1       6.934   5.387  15.650  0.00  0.00    +0.000 C 
ATOM     26  C   UNL     1       6.892   5.805  17.133  0.00  0.00    +0.000 C 
ATOM     27  C   UNL     1       7.631   4.739  17.973  0.00  0.00    +0.000 C 
ATOM     28  C   UNL     1       7.663   7.134  17.276  0.00  0.00    +0.000 C 
ENDBRANCH   1  26
TORSDOF 4
ENDMDL
MODEL 4
REMARK VINA RESULT:      -7.7      1.889      4.697
REMARK  Name = 
REMARK  7 active torsions:
REMARK  status: ('A' for Active; 'I' for Inactive)
REMARK    1  A    between atoms: C_1  and  C_2
REMARK    2  A    between atoms: C_2  and  C_3
REMARK    3  A    between atoms: C_2  and  C_4
REMARK    4  A    between atoms: C_2  and  C_5
REMARK    5  A    between atoms: C_7  and  N_8
REMARK    6  A    between atoms: N_11  and  C_12
REMARK    7  A    between atoms: N_19  and  C_20
REMARK                            x       y       z     vdW  Elec       q    Type
REMARK                         _______ _______ _______ _____ _____    ______ ____
ROOT
ATOM      1  C   UNL     1       2.745   3.915  18.954  0.00  0.00    +0.000 A 
ATOM      2  C   UNL     1       2.062   5.085  18.536  0.00  0.00    +0.000 A 
ATOM      3  C   UNL     1       3.043   5.968  18.153  0.00  0.00    +0.000 A 
ATOM      4  N   UNL     1       4.251   5.329  18.386  0.00  0.00    +0.000 N 
ATOM      5  N   UNL     1       4.067   4.039  18.763  0.00  0.00    +0.000 NA
ENDROOT
BRANCH   3   6
ATOM      6  N   UNL     1       2.834   7.237  17.599  0.00  0.00    +0.000 N 
ATOM      7  C   UNL     1       2.200   8.223  18.397  0.00  0.00    +0.000 C 
ATOM      8  O   UNL     1       1.886   7.951  19.545  0.00  0.00    +0.000 OA
ATOM      9  N   UNL     1       2.057   9.413  17.733  0.00  0.00    +0.000 N 
ATOM     10  H   UNL     1       3.332   7.479  16.756  0.00  0.00    +0.000 HD
ATOM     11  H   UNL     1       2.130   9.413  16.725  0.00  0.00    +0.000 HD
BRANCH   9  12
ATOM     12  C   UNL     1       1.486  10.564  18.333  0.00  0.00    +0.000 A 
ATOM     13  C   UNL     1       0.184  10.567  18.847  0.00  0.00    +0.000 A 
ATOM     14  C   UNL     1      -0.415  11.754  19.271  0.00  0.00    +0.000 A 
ATOM     15  C   UNL     1       0.299  12.943  19.212  0.00  0.00    +0.000 A 
ATOM     16 CL   UNL     1      -0.468  14.419  19.644  0.00  0.00    +0.000 Cl
ATOM     17  C   UNL     1       1.628  12.940  18.790  0.00  0.00    +0.000 A 
ATOM     18  C   UNL     1       2.230  11.746  18.367  0.00  0.00    +0.000 A 
ENDBRANCH   9  12
ENDBRANCH   3   6
BRANCH   4  19
ATOM     19  C   UNL     1       5.547   5.894  18.290  0.00  0.00    +0.000 A 
ATOM     20  C   UNL     1       6.577   5.479  19.147  0.00  0.00    +0.000 A 
ATOM     21  C   UNL     1       7.823   6.102  19.089  0.00  0.00    +0.000 A 
ATOM     22  C   UNL     1       8.042   7.139  18.185  0.00  0.00    +0.000 A 
ATOM     23  C   UNL     1       7.030   7.521  17.300  0.00  0.00    +0.000 A 
ATOM     24  C   UNL     1       5.791   6.882  17.332  0.00  0.00    +0.000 A 
ENDBRANCH   4  19
BRANCH   1  26
ATOM     25  C   UNL     1       2.998   1.425  19.169  0.00  0.00    +0.000 C 
ATOM     26  C   UNL     1       2.124   2.645  19.525  0.00  0.00    +0.000 C 
ATOM     27  C   UNL     1       0.714   2.440  18.927  0.00  0.00    +0.000 C 
ATOM     28  C   UNL     1       1.981   2.697  21.060  0.00  0.00    +0.000 C 
ENDBRANCH   1  26
TORSDOF 4
ENDMDL
MODEL 5
REMARK VINA RESULT:      -7.7      1.857      4.712
REMARK  Name = 
REMARK  7 active torsions:
REMARK  status: ('A' for Active; 'I' for Inactive)
REMARK    1  A    between atoms: C_1  and  C_2
REMARK    2  A    between atoms: C_2  and  C_3
REMARK    3  A    between atoms: C_2  and  C_4
REMARK    4  A    between atoms: C_2  and  C_5
REMARK    5  A    between atoms: C_7  and  N_8
REMARK    6  A    between atoms: N_11  and  C_12
REMARK    7  A    between atoms: N_19  and  C_20
REMARK                            x       y       z     vdW  Elec       q    Type
REMARK                         _______ _______ _______ _____ _____    ______ ____
ROOT
ATOM      1  C   UNL     1       2.726   3.862  18.821  0.00  0.00    +0.000 A 
ATOM      2  C   UNL     1       2.023   5.017  18.394  0.00  0.00    +0.000 A 
ATOM      3  C   UNL     1       2.989   5.939  18.069  0.00  0.00    +0.000 A 
ATOM      4  N   UNL     1       4.207   5.335  18.344  0.00  0.00    +0.000 N 
ATOM      5  N   UNL     1       4.051   4.033  18.691  0.00  0.00    +0.000 NA
ENDROOT
BRANCH   3   6
ATOM      6  N   UNL     1       2.762   7.209  17.528  0.00  0.00    +0.000 N 
ATOM      7  C   UNL     1       2.212   8.210  18.369  0.00  0.00    +0.000 C 
ATOM      8  O   UNL     1       1.985   7.947  19.540  0.00  0.00    +0.000 OA
ATOM      9  N   UNL     1       2.040   9.401  17.714  0.00  0.00    +0.000 N 
ATOM     10  H   UNL     1       3.196   7.439  16.648  0.00  0.00    +0.000 HD
ATOM     11  H   UNL     1       2.033   9.397  16.704  0.00  0.00    +0.000 HD
BRANCH   9  12
ATOM     12  C   UNL     1       1.541  10.564  18.352  0.00  0.00    +0.000 A 
ATOM     13  C   UNL     1       0.311  10.576  19.021  0.00  0.00    +0.000 A 
ATOM     14  C   UNL     1      -0.238  11.772  19.488  0.00  0.00    +0.000 A 
ATOM     15  C   UNL     1       0.457  12.961  19.315  0.00  0.00    +0.000 A 
ATOM     16 CL   UNL     1      -0.259  14.445  19.803  0.00  0.00    +0.000 Cl
ATOM     17  C   UNL     1       1.724  12.951  18.733  0.00  0.00    +0.000 A 
ATOM     18  C   UNL     1       2.277  11.749  18.268  0.00  0.00    +0.000 A 
ENDBRANCH   9  12
ENDBRANCH   3   6
BRANCH   4  19
ATOM     19  C   UNL     1       5.486   5.944  18.314  0.00  0.00    +0.000 A 
ATOM     20  C   UNL     1       5.779   6.956  17.387  0.00  0.00    +0.000 A 
ATOM     21  C   UNL     1       7.066   7.488  17.321  0.00  0.00    +0.000 A 
ATOM     22  C   UNL     1       8.061   7.011  18.171  0.00  0.00    +0.000 A 
ATOM     23  C   UNL     1       7.758   6.036  19.126  0.00  0.00    +0.000 A 
ATOM     24  C   UNL     1       6.465   5.521  19.217  0.00  0.00    +0.000 A 
ENDBRANCH   4  19
BRANCH   1  26
ATOM     25  C   UNL     1       0.692   2.388  18.799  0.00  0.00    +0.000 C 
ATOM     26  C   UNL     1       2.125   2.562  19.343  0.00  0.00    +0.000 C 
ATOM     27  C   UNL     1       2.071   2.597  20.887  0.00  0.00    +0.000 C 
ATOM     28  C   UNL     1       2.946   1.324  18.929  0.00  0.00    +0.000 C 
ENDBRANCH   1  26
TORSDOF 4
ENDMDL
MODEL 6
REMARK VINA RESULT:      -7.7      0.444      1.594
REMARK  Name = 
REMARK  7 active torsions:
REMARK  status: ('A' for Active; 'I' for Inactive)
REMARK    1  A    between atoms: C_1  and  C_2
REMARK    2  A    between atoms: C_2  and  C_3
REMARK    3  A    between atoms: C_2  and  C_4
REMARK    4  A    between atoms: C_2  and  C_5
REMARK    5  A    between atoms: C_7  and  N_8
REMARK    6  A    between atoms: N_11  and  C_12
REMARK    7  A    between atoms: N_19  and  C_20
REMARK                            x       y       z     vdW  Elec       q    Type
REMARK                         _______ _______ _______ _____ _____    ______ ____
ROOT
ATOM      1  C   UNL     1       5.506   6.236  17.804  0.00  0.00    +0.000 A 
ATOM      2  C   UNL     1       4.593   7.264  17.459  0.00  0.00    +0.000 A 
ATOM      3  C   UNL     1       3.370   6.843  17.921  0.00  0.00    +0.000 A 
ATOM      4  N   UNL     1       3.578   5.590  18.477  0.00  0.00    +0.000 N 
ATOM      5  N   UNL     1       4.895   5.271  18.510  0.00  0.00    +0.000 NA
ENDROOT
BRANCH   3   6
ATOM      6  N   UNL     1       2.177   7.573  17.868  0.00  0.00    +0.000 N 
ATOM      7  C   UNL     1       1.780   8.299  19.020  0.00  0.00    +0.000 C 
ATOM      8  O   UNL     1       2.500   8.291  20.007  0.00  0.00    +0.000 OA
ATOM      9  N   UNL     1       0.598   8.965  18.832  0.00  0.00    +0.000 N 
ATOM     10  H   UNL     1       1.763   7.748  16.966  0.00  0.00    +0.000 HD
ATOM     11  H   UNL     1       0.001   8.678  18.069  0.00  0.00    +0.000 HD
BRANCH   9  12
ATOM     12  C   UNL     1       0.014   9.790  19.826  0.00  0.00    +0.000 A 
ATOM     13  C   UNL     1      -0.365  11.113  19.568  0.00  0.00    +0.000 A 
ATOM     14  C   UNL     1      -0.773  11.955  20.603  0.00  0.00    +0.000 A 
ATOM     15  C   UNL     1      -0.833  11.469  21.902  0.00  0.00    +0.000 A 
ATOM     16 CL   UNL     1      -1.243  12.530  23.190  0.00  0.00    +0.000 Cl
ATOM     17  C   UNL     1      -0.547  10.129  22.160  0.00  0.00    +0.000 A 
ATOM     18  C   UNL     1      -0.141   9.281  21.118  0.00  0.00    +0.000 A 
ENDBRANCH   9  12
ENDBRANCH   3   6
BRANCH   4  19
ATOM     19  C   UNL     1       2.588   4.691  18.947  0.00  0.00    +0.000 A 
ATOM     20  C   UNL     1       2.016   3.740  18.089  0.00  0.00    +0.000 A 
ATOM     21  C   UNL     1       0.988   2.917  18.548  0.00  0.00    +0.000 A 
ATOM     22  C   UNL     1       0.527   3.044  19.856  0.00  0.00    +0.000 A 
ATOM     23  C   UNL     1       1.128   3.959  20.725  0.00  0.00    +0.000 A 
ATOM     24  C   UNL     1       2.177   4.764  20.280  0.00  0.00    +0.000 A 
ENDBRANCH   4  19
BRANCH   1  26
ATOM     25  C   UNL     1       7.207   5.464  16.125  0.00  0.00    +0.000 C 
ATOM     26  C   UNL     1       6.993   6.180  17.474  0.00  0.00    +0.000 C 
ATOM     27  C   UNL     1       7.742   5.399  18.577  0.00  0.00    +0.000 C 
ATOM     28  C   UNL     1       7.629   7.582  17.376  0.00  0.00    +0.000 C 
ENDBRANCH   1  26
TORSDOF 4
ENDMDL
MODEL 7
REMARK VINA RESULT:      -7.7      1.703      4.627
REMARK  Name = 
REMARK  7 active torsions:
REMARK  status: ('A' for Active; 'I' for Inactive)
REMARK    1  A    between atoms: C_1  and  C_2
REMARK    2  A    between atoms: C_2  and  C_3
REMARK    3  A    between atoms: C_2  and  C_4
REMARK    4  A    between atoms: C_2  and  C_5
REMARK    5  A    between atoms: C_7  and  N_8
REMARK    6  A    between atoms: N_11  and  C_12
REMARK    7  A    between atoms: N_19  and  C_20
REMARK                            x       y       z     vdW  Elec       q    Type
REMARK                         _______ _______ _______ _____ _____    ______ ____
ROOT
ATOM      1  C   UNL     1       2.741   3.913  18.803  0.00  0.00    +0.000 A 
ATOM      2  C   UNL     1       2.057   5.092  18.414  0.00  0.00    +0.000 A 
ATOM      3  C   UNL     1       3.038   5.989  18.063  0.00  0.00    +0.000 A 
ATOM      4  N   UNL     1       4.246   5.347  18.288  0.00  0.00    +0.000 N 
ATOM      5  N   UNL     1       4.064   4.047  18.627  0.00  0.00    +0.000 NA
ENDROOT
BRANCH   3   6
ATOM      6  N   UNL     1       2.828   7.271  17.544  0.00  0.00    +0.000 N 
ATOM      7  C   UNL     1       2.201   8.238  18.371  0.00  0.00    +0.000 C 
ATOM      8  O   UNL     1       1.893   7.936  19.513  0.00  0.00    +0.000 OA
ATOM      9  N   UNL     1       2.057   9.445  17.739  0.00  0.00    +0.000 N 
ATOM     10  H   UNL     1       3.322   7.534  16.705  0.00  0.00    +0.000 HD
ATOM     11  H   UNL     1       2.124   9.471  16.731  0.00  0.00    +0.000 HD
BRANCH   9  12
ATOM     12  C   UNL     1       1.492  10.581  18.372  0.00  0.00    +0.000 A 
ATOM     13  C   UNL     1       2.197  11.782  18.515  0.00  0.00    +0.000 A 
ATOM     14  C   UNL     1       1.688  12.822  19.293  0.00  0.00    +0.000 A 
ATOM     15  C   UNL     1       0.452  12.679  19.909  0.00  0.00    +0.000 A 
ATOM     16 CL   UNL     1      -0.133  13.921  20.942  0.00  0.00    +0.000 Cl
ATOM     17  C   UNL     1      -0.303  11.526  19.699  0.00  0.00    +0.000 A 
ATOM     18  C   UNL     1       0.208  10.482  18.914  0.00  0.00    +0.000 A 
ENDBRANCH   9  12
ENDBRANCH   3   6
BRANCH   4  19
ATOM     19  C   UNL     1       5.540   5.919  18.217  0.00  0.00    +0.000 A 
ATOM     20  C   UNL     1       6.563   5.492  19.078  0.00  0.00    +0.000 A 
ATOM     21  C   UNL     1       7.807   6.120  19.047  0.00  0.00    +0.000 A 
ATOM     22  C   UNL     1       8.031   7.176  18.166  0.00  0.00    +0.000 A 
ATOM     23  C   UNL     1       7.028   7.571  17.276  0.00  0.00    +0.000 A 
ATOM     24  C   UNL     1       5.792   6.926  17.281  0.00  0.00    +0.000 A 
ENDBRANCH   4  19
BRANCH   1  26
ATOM     25  C   UNL     1       2.024   2.681  20.872  0.00  0.00    +0.000 C 
ATOM     26  C   UNL     1       2.120   2.625  19.334  0.00  0.00    +0.000 C 
ATOM     27  C   UNL     1       3.000   1.419  18.933  0.00  0.00    +0.000 C 
ATOM     28  C   UNL     1       0.704   2.378  18.775  0.00  0.00    +0.000 C 
ENDBRANCH   1  26
TORSDOF 4
ENDMDL
MODEL 8
REMARK VINA RESULT:      -7.7      1.714      4.713
REMARK  Name = 
REMARK  7 active torsions:
REMARK  status: ('A' for Active; 'I' for Inactive)
REMARK    1  A    between atoms: C_1  and  C_2
REMARK    2  A    between atoms: C_2  and  C_3
REMARK    3  A    between atoms: C_2  and  C_4
REMARK    4  A    between atoms: C_2  and  C_5
REMARK    5  A    between atoms: C_7  and  N_8
REMARK    6  A    between atoms: N_11  and  C_12
REMARK    7  A    between atoms: N_19  and  C_20
REMARK                            x       y       z     vdW  Elec       q    Type
REMARK                         _______ _______ _______ _____ _____    ______ ____
ROOT
ATOM      1  C   UNL     1       2.746   3.851  18.816  0.00  0.00    +0.000 A 
ATOM      2  C   UNL     1       2.031   5.001  18.394  0.00  0.00    +0.000 A 
ATOM      3  C   UNL     1       2.990   5.930  18.066  0.00  0.00    +0.000 A 
ATOM      4  N   UNL     1       4.213   5.335  18.334  0.00  0.00    +0.000 N 
ATOM      5  N   UNL     1       4.068   4.033  18.680  0.00  0.00    +0.000 NA
ENDROOT
BRANCH   3   6
ATOM      6  N   UNL     1       2.749   7.200  17.527  0.00  0.00    +0.000 N 
ATOM      7  C   UNL     1       2.197   8.196  18.372  0.00  0.00    +0.000 C 
ATOM      8  O   UNL     1       1.977   7.929  19.543  0.00  0.00    +0.000 OA
ATOM      9  N   UNL     1       2.013   9.386  17.718  0.00  0.00    +0.000 N 
ATOM     10  H   UNL     1       3.178   7.434  16.645  0.00  0.00    +0.000 HD
ATOM     11  H   UNL     1       2.001   9.382  16.708  0.00  0.00    +0.000 HD
BRANCH   9  12
ATOM     12  C   UNL     1       1.508  10.544  18.360  0.00  0.00    +0.000 A 
ATOM     13  C   UNL     1       2.237  11.738  18.423  0.00  0.00    +0.000 A 
ATOM     14  C   UNL     1       1.797  12.805  19.208  0.00  0.00    +0.000 A 
ATOM     15  C   UNL     1       0.606  12.694  19.913  0.00  0.00    +0.000 A 
ATOM     16 CL   UNL     1       0.111  13.969  20.953  0.00  0.00    +0.000 Cl
ATOM     17  C   UNL     1      -0.176  11.547  19.786  0.00  0.00    +0.000 A 
ATOM     18  C   UNL     1       0.264  10.477  18.994  0.00  0.00    +0.000 A 
ENDBRANCH   9  12
ENDBRANCH   3   6
BRANCH   4  19
ATOM     19  C   UNL     1       5.487   5.955  18.299  0.00  0.00    +0.000 A 
ATOM     20  C   UNL     1       5.765   6.975  17.377  0.00  0.00    +0.000 A 
ATOM     21  C   UNL     1       7.048   7.517  17.305  0.00  0.00    +0.000 A 
ATOM     22  C   UNL     1       8.052   7.042  18.145  0.00  0.00    +0.000 A 
ATOM     23  C   UNL     1       7.764   6.059  19.095  0.00  0.00    +0.000 A 
ATOM     24  C   UNL     1       6.475   5.533  19.193  0.00  0.00    +0.000 A 
ENDBRANCH   4  19
BRANCH   1  26
ATOM     25  C   UNL     1       3.037   1.357  18.904  0.00  0.00    +0.000 C 
ATOM     26  C   UNL     1       2.156   2.546  19.340  0.00  0.00    +0.000 C 
ATOM     27  C   UNL     1       0.735   2.350  18.766  0.00  0.00    +0.000 C 
ATOM     28  C   UNL     1       2.050   2.522  20.878  0.00  0.00    +0.000 C 
ENDBRANCH   1  26
TORSDOF 4
ENDMDL
MODEL 9
REMARK VINA RESULT:      -7.6      1.117      1.470
REMARK  Name = 
REMARK  7 active torsions:
REMARK  status: ('A' for Active; 'I' for Inactive)
REMARK    1  A    between atoms: C_1  and  C_2
REMARK    2  A    between atoms: C_2  and  C_3
REMARK    3  A    between atoms: C_2  and  C_4
REMARK    4  A    between atoms: C_2  and  C_5
REMARK    5  A    between atoms: C_7  and  N_8
REMARK    6  A    between atoms: N_11  and  C_12
REMARK    7  A    between atoms: N_19  and  C_20
REMARK                            x       y       z     vdW  Elec       q    Type
REMARK                         _______ _______ _______ _____ _____    ______ ____
ROOT
ATOM      1  C   UNL     1       5.593   6.273  17.971  0.00  0.00    +0.000 A 
ATOM      2  C   UNL     1       4.744   7.229  17.360  0.00  0.00    +0.000 A 
ATOM      3  C   UNL     1       3.465   6.861  17.706  0.00  0.00    +0.000 A 
ATOM      4  N   UNL     1       3.587   5.704  18.459  0.00  0.00    +0.000 N 
ATOM      5  N   UNL     1       4.886   5.411  18.718  0.00  0.00    +0.000 NA
ENDROOT
BRANCH   3   6
ATOM      6  N   UNL     1       2.296   7.560  17.385  0.00  0.00    +0.000 N 
ATOM      7  C   UNL     1       1.777   8.476  18.335  0.00  0.00    +0.000 C 
ATOM      8  O   UNL     1       2.377   8.650  19.384  0.00  0.00    +0.000 OA
ATOM      9  N   UNL     1       0.633   9.087  17.895  0.00  0.00    +0.000 N 
ATOM     10  H   UNL     1       1.991   7.567  16.423  0.00  0.00    +0.000 HD
ATOM     11  H   UNL     1       0.125   8.663  17.131  0.00  0.00    +0.000 HD
BRANCH   9  12
ATOM     12  C   UNL     1      -0.053  10.071  18.651  0.00  0.00    +0.000 A 
ATOM     13  C   UNL     1       0.339  10.417  19.950  0.00  0.00    +0.000 A 
ATOM     14  C   UNL     1      -0.453  11.256  20.736  0.00  0.00    +0.000 A 
ATOM     15  C   UNL     1      -1.628  11.780  20.214  0.00  0.00    +0.000 A 
ATOM     16 CL   UNL     1      -2.651  12.735  21.211  0.00  0.00    +0.000 Cl
ATOM     17  C   UNL     1      -1.983  11.517  18.892  0.00  0.00    +0.000 A 
ATOM     18  C   UNL     1      -1.185  10.677  18.101  0.00  0.00    +0.000 A 
ENDBRANCH   9  12
ENDBRANCH   3   6
BRANCH   4  19
ATOM     19  C   UNL     1       2.536   4.868  18.913  0.00  0.00    +0.000 A 
ATOM     20  C   UNL     1       2.048   4.974  20.224  0.00  0.00    +0.000 A 
ATOM     21  C   UNL     1       1.069   4.090  20.675  0.00  0.00    +0.000 A 
ATOM     22  C   UNL     1       0.580   3.100  19.826  0.00  0.00    +0.000 A 
ATOM     23  C   UNL     1       1.032   3.024  18.506  0.00  0.00    +0.000 A 
ATOM     24  C   UNL     1       1.990   3.924  18.039  0.00  0.00    +0.000 A 
ENDBRANCH   4  19
BRANCH   1  26
ATOM     25  C   UNL     1       7.507   5.134  16.809  0.00  0.00    +0.000 C 
ATOM     26  C   UNL     1       7.112   6.191  17.860  0.00  0.00    +0.000 C 
ATOM     27  C   UNL     1       7.713   5.786  19.225  0.00  0.00    +0.000 C 
ATOM     28  C   UNL     1       7.747   7.535  17.447  0.00  0.00    +0.000 C 
ENDBRANCH   1  26
TORSDOF 4
ENDMDL
