MODEL 1
REMARK VINA RESULT:      -9.4      0.000      0.000
REMARK  Name = 
REMARK  4 active torsions:
REMARK  status: ('A' for Active; 'I' for Inactive)
REMARK    1  A    between atoms: N_1  and  C_2
REMARK    2  A    between atoms: C_15  and  N_16
REMARK    3  A    between atoms: N_17  and  C_18
REMARK    4  A    between atoms: C_23  and  C_24
REMARK                            x       y       z     vdW  Elec       q    Type
REMARK                         _______ _______ _______ _____ _____    ______ ____
ROOT
ATOM      1  C   UNL     1       2.455   7.551  18.635  0.00  0.00    +0.000 A 
ATOM      2  C   UNL     1       1.958   8.865  18.662  0.00  0.00    +0.000 A 
ATOM      3  C   UNL     1       1.212   9.349  19.729  0.00  0.00    +0.000 A 
ATOM      4  N   UNL     1       0.747  10.611  19.711  0.00  0.00    +0.000 NA
ATOM      5  C   UNL     1       0.051  11.032  20.786  0.00  0.00    +0.000 A 
ATOM      6  C   UNL     1      -0.438  12.332  20.831  0.00  0.00    +0.000 A 
ATOM      7  C   UNL     1      -1.149  12.806  21.938  0.00  0.00    +0.000 A 
ATOM      8  C   UNL     1      -1.376  11.962  23.017  0.00  0.00    +0.000 A 
ATOM      9  C   UNL     1      -0.895  10.654  22.978  0.00  0.00    +0.000 A 
ATOM     10  C   UNL     1      -0.188  10.176  21.882  0.00  0.00    +0.000 A 
ATOM     11  N   UNL     1       0.263   8.911  21.890  0.00  0.00    +0.000 NA
ATOM     12  C   UNL     1       0.966   8.500  20.825  0.00  0.00    +0.000 A 
ATOM     13  C   UNL     1       1.481   7.216  20.818  0.00  0.00    +0.000 A 
ATOM     14  C   UNL     1       2.270   6.728  19.766  0.00  0.00    +0.000 A 
ENDROOT
BRANCH   1  15
ATOM     15  N   UNL     1       3.310   7.182  17.574  0.00  0.00    +0.000 N 
ATOM     16  H   UNL     1       3.473   7.926  16.899  0.00  0.00    +0.000 HD
ATOM     17  H   UNL     1       3.029   6.313  17.128  0.00  0.00    +0.000 HD
ENDBRANCH   1  15
BRANCH  14  18
ATOM     18  N   UNL     1       2.821   5.416  19.799  0.00  0.00    +0.000 NA
ATOM     19  N   UNL     1       2.287   4.671  18.944  0.00  0.00    +0.000 NA
BRANCH  19  20
ATOM     20  C   UNL     1       2.938   3.367  18.812  0.00  0.00    +0.000 C 
ATOM     21  C   UNL     1       2.744   2.609  20.091  0.00  0.00    +0.000 C 
ATOM     22  O   UNL     1       1.683   2.287  20.604  0.00  0.00    +0.000 OA
ATOM     23  O   UNL     1       3.983   2.314  20.611  0.00  0.00    +0.000 OA
ATOM     24  N   UNL     1       4.998   2.906  19.808  0.00  0.00    +0.000 NA
ATOM     25  C   UNL     1       4.422   3.517  18.821  0.00  0.00    +0.000 C 
BRANCH  25  26
ATOM     26  C   UNL     1       5.186   4.243  17.774  0.00  0.00    +0.000 A 
ATOM     27  C   UNL     1       4.816   4.079  16.430  0.00  0.00    +0.000 A 
ATOM     28  C   UNL     1       5.523   4.731  15.417  0.00  0.00    +0.000 A 
ATOM     29  C   UNL     1       6.609   5.543  15.738  0.00  0.00    +0.000 A 
ATOM     30  C   UNL     1       6.978   5.714  17.072  0.00  0.00    +0.000 A 
ATOM     31  C   UNL     1       6.266   5.073  18.089  0.00  0.00    +0.000 A 
ENDBRANCH  25  26
ENDBRANCH  19  20
ENDBRANCH  14  18
TORSDOF 4
ENDMDL
MODEL 2
REMARK VINA RESULT:      -9.3      0.492      1.069
REMARK  Name = 
REMARK  4 active torsions:
REMARK  status: ('A' for Active; 'I' for Inactive)
REMARK    1  A    between atoms: N_1  and  C_2
REMARK    2  A    between atoms: C_15  and  N_16
REMARK    3  A    between atoms: N_17  and  C_18
REMARK    4  A    between atoms: C_23  and  C_24
REMARK                            x       y       z     vdW  Elec       q    Type
REMARK                         _______ _______ _______ _____ _____    ______ ____
ROOT
ATOM      1  C   UNL     1       2.436   7.665  18.590  0.00  0.00    +0.000 A 
ATOM      2  C   UNL     1       1.876   8.952  18.657  0.00  0.00    +0.000 A 
ATOM      3  C   UNL     1       1.128   9.375  19.748  0.00  0.00    +0.000 A 
ATOM      4  N   UNL     1       0.601  10.613  19.768  0.00  0.00    +0.000 NA
ATOM      5  C   UNL     1      -0.093  10.975  20.864  0.00  0.00    +0.000 A 
ATOM      6  C   UNL     1      -0.644  12.248  20.948  0.00  0.00    +0.000 A 
ATOM      7  C   UNL     1      -1.356  12.662  22.078  0.00  0.00    +0.000 A 
ATOM      8  C   UNL     1      -1.520  11.785  23.141  0.00  0.00    +0.000 A 
ATOM      9  C   UNL     1      -0.977  10.503  23.064  0.00  0.00    +0.000 A 
ATOM     10  C   UNL     1      -0.268  10.084  21.945  0.00  0.00    +0.000 A 
ATOM     11  N   UNL     1       0.244   8.844  21.916  0.00  0.00    +0.000 NA
ATOM     12  C   UNL     1       0.946   8.491  20.829  0.00  0.00    +0.000 A 
ATOM     13  C   UNL     1       1.522   7.234  20.783  0.00  0.00    +0.000 A 
ATOM     14  C   UNL     1       2.314   6.809  19.706  0.00  0.00    +0.000 A 
ENDROOT
BRANCH   1  15
ATOM     15  N   UNL     1       3.287   7.362  17.506  0.00  0.00    +0.000 N 
ATOM     16  H   UNL     1       2.881   6.716  16.832  0.00  0.00    +0.000 HD
ATOM     17  H   UNL     1       4.215   7.072  17.804  0.00  0.00    +0.000 HD
ENDBRANCH   1  15
BRANCH  14  18
ATOM     18  N   UNL     1       2.929   5.526  19.699  0.00  0.00    +0.000 NA
ATOM     19  N   UNL     1       2.499   4.815  18.760  0.00  0.00    +0.000 NA
BRANCH  19  20
ATOM     20  C   UNL     1       3.225   3.555  18.598  0.00  0.00    +0.000 C 
ATOM     21  C   UNL     1       2.789   2.613  19.679  0.00  0.00    +0.000 C 
ATOM     22  O   UNL     1       1.658   2.201  19.887  0.00  0.00    +0.000 OA
ATOM     23  O   UNL     1       3.895   2.263  20.420  0.00  0.00    +0.000 OA
ATOM     24  N   UNL     1       5.033   2.984  19.959  0.00  0.00    +0.000 NA
ATOM     25  C   UNL     1       4.662   3.725  18.964  0.00  0.00    +0.000 C 
BRANCH  25  26
ATOM     26  C   UNL     1       5.603   4.610  18.231  0.00  0.00    +0.000 A 
ATOM     27  C   UNL     1       6.489   5.412  18.967  0.00  0.00    +0.000 A 
ATOM     28  C   UNL     1       7.376   6.271  18.312  0.00  0.00    +0.000 A 
ATOM     29  C   UNL     1       7.377   6.340  16.920  0.00  0.00    +0.000 A 
ATOM     30  C   UNL     1       6.503   5.542  16.184  0.00  0.00    +0.000 A 
ATOM     31  C   UNL     1       5.623   4.673  16.834  0.00  0.00    +0.000 A 
ENDBRANCH  25  26
ENDBRANCH  19  20
ENDBRANCH  14  18
TORSDOF 4
ENDMDL
MODEL 3
REMARK VINA RESULT:      -8.4      2.207      3.842
REMARK  Name = 
REMARK  4 active torsions:
REMARK  status: ('A' for Active; 'I' for Inactive)
REMARK    1  A    between atoms: N_1  and  C_2
REMARK    2  A    between atoms: C_15  and  N_16
REMARK    3  A    between atoms: N_17  and  C_18
REMARK    4  A    between atoms: C_23  and  C_24
REMARK                            x       y       z     vdW  Elec       q    Type
REMARK                         _______ _______ _______ _____ _____    ______ ____
ROOT
ATOM      1  C   UNL     1       2.211   7.124  19.972  0.00  0.00    +0.000 A 
ATOM      2  C   UNL     1       1.338   7.955  20.694  0.00  0.00    +0.000 A 
ATOM      3  C   UNL     1       0.920   9.186  20.206  0.00  0.00    +0.000 A 
ATOM      4  N   UNL     1       0.091   9.957  20.934  0.00  0.00    +0.000 NA
ATOM      5  C   UNL     1      -0.300  11.129  20.397  0.00  0.00    +0.000 A 
ATOM      6  C   UNL     1      -1.170  11.957  21.096  0.00  0.00    +0.000 A 
ATOM      7  C   UNL     1      -1.610  13.171  20.561  0.00  0.00    +0.000 A 
ATOM      8  C   UNL     1      -1.168  13.564  19.304  0.00  0.00    +0.000 A 
ATOM      9  C   UNL     1      -0.289  12.744  18.598  0.00  0.00    +0.000 A 
ATOM     10  C   UNL     1       0.152  11.535  19.123  0.00  0.00    +0.000 A 
ATOM     11  N   UNL     1       0.992  10.773  18.405  0.00  0.00    +0.000 NA
ATOM     12  C   UNL     1       1.369   9.601  18.937  0.00  0.00    +0.000 A 
ATOM     13  C   UNL     1       2.202   8.772  18.207  0.00  0.00    +0.000 A 
ATOM     14  C   UNL     1       2.599   7.509  18.671  0.00  0.00    +0.000 A 
ENDROOT
BRANCH   1  15
ATOM     15  N   UNL     1       2.483   5.837  20.483  0.00  0.00    +0.000 N 
ATOM     16  H   UNL     1       1.655   5.336  20.799  0.00  0.00    +0.000 HD
ATOM     17  H   UNL     1       3.220   5.840  21.182  0.00  0.00    +0.000 HD
ENDBRANCH   1  15
BRANCH  14  18
ATOM     18  N   UNL     1       3.424   6.657  17.885  0.00  0.00    +0.000 NA
ATOM     19  N   UNL     1       4.550   6.493  18.412  0.00  0.00    +0.000 NA
BRANCH  19  20
ATOM     20  C   UNL     1       5.372   5.485  17.741  0.00  0.00    +0.000 C 
ATOM     21  C   UNL     1       5.944   6.093  16.496  0.00  0.00    +0.000 C 
ATOM     22  O   UNL     1       6.670   7.073  16.419  0.00  0.00    +0.000 OA
ATOM     23  O   UNL     1       5.520   5.351  15.418  0.00  0.00    +0.000 OA
ATOM     24  N   UNL     1       4.623   4.335  15.854  0.00  0.00    +0.000 NA
ATOM     25  C   UNL     1       4.515   4.421  17.142  0.00  0.00    +0.000 C 
BRANCH  25  26
ATOM     26  C   UNL     1       3.660   3.503  17.937  0.00  0.00    +0.000 A 
ATOM     27  C   UNL     1       2.320   3.328  17.557  0.00  0.00    +0.000 A 
ATOM     28  C   UNL     1       1.481   2.486  18.292  0.00  0.00    +0.000 A 
ATOM     29  C   UNL     1       1.971   1.823  19.414  0.00  0.00    +0.000 A 
ATOM     30  C   UNL     1       3.302   1.989  19.793  0.00  0.00    +0.000 A 
ATOM     31  C   UNL     1       4.148   2.819  19.054  0.00  0.00    +0.000 A 
ENDBRANCH  25  26
ENDBRANCH  19  20
ENDBRANCH  14  18
TORSDOF 4
ENDMDL
MODEL 4
REMARK VINA RESULT:      -8.4      1.608      2.664
REMARK  Name = 
REMARK  4 active torsions:
REMARK  status: ('A' for Active; 'I' for Inactive)
REMARK    1  A    between atoms: N_1  and  C_2
REMARK    2  A    between atoms: C_15  and  N_16
REMARK    3  A    between atoms: N_17  and  C_18
REMARK    4  A    between atoms: C_23  and  C_24
REMARK                            x       y       z     vdW  Elec       q    Type
REMARK                         _______ _______ _______ _____ _____    ______ ____
ROOT
ATOM      1  C   UNL     1       1.736   7.739  20.592  0.00  0.00    +0.000 A 
ATOM      2  C   UNL     1       1.092   8.519  21.567  0.00  0.00    +0.000 A 
ATOM      3  C   UNL     1       0.607   9.791  21.291  0.00  0.00    +0.000 A 
ATOM      4  N   UNL     1       0.004  10.509  22.256  0.00  0.00    +0.000 NA
ATOM      5  C   UNL     1      -0.469  11.726  21.922  0.00  0.00    +0.000 A 
ATOM      6  C   UNL     1      -1.117  12.504  22.874  0.00  0.00    +0.000 A 
ATOM      7  C   UNL     1      -1.635  13.763  22.557  0.00  0.00    +0.000 A 
ATOM      8  C   UNL     1      -1.498  14.252  21.264  0.00  0.00    +0.000 A 
ATOM      9  C   UNL     1      -0.843  13.482  20.305  0.00  0.00    +0.000 A 
ATOM     10  C   UNL     1      -0.327  12.230  20.612  0.00  0.00    +0.000 A 
ATOM     11  N   UNL     1       0.290  11.518  19.654  0.00  0.00    +0.000 NA
ATOM     12  C   UNL     1       0.748  10.302  19.987  0.00  0.00    +0.000 A 
ATOM     13  C   UNL     1       1.352   9.526  19.014  0.00  0.00    +0.000 A 
ATOM     14  C   UNL     1       1.810   8.225  19.268  0.00  0.00    +0.000 A 
ENDROOT
BRANCH   1  15
ATOM     15  N   UNL     1       2.084   6.411  20.920  0.00  0.00    +0.000 N 
ATOM     16  H   UNL     1       1.282   5.804  21.080  0.00  0.00    +0.000 HD
ATOM     17  H   UNL     1       2.762   6.359  21.675  0.00  0.00    +0.000 HD
ENDBRANCH   1  15
BRANCH  14  18
ATOM     18  N   UNL     1       2.392   7.430  18.242  0.00  0.00    +0.000 NA
ATOM     19  N   UNL     1       2.695   6.288  18.661  0.00  0.00    +0.000 NA
BRANCH  19  20
ATOM     20  C   UNL     1       3.131   5.372  17.606  0.00  0.00    +0.000 C 
ATOM     21  C   UNL     1       2.276   4.142  17.662  0.00  0.00    +0.000 C 
ATOM     22  O   UNL     1       1.062   4.080  17.536  0.00  0.00    +0.000 OA
ATOM     23  O   UNL     1       3.094   3.056  17.877  0.00  0.00    +0.000 OA
ATOM     24  N   UNL     1       4.437   3.492  18.059  0.00  0.00    +0.000 NA
ATOM     25  C   UNL     1       4.460   4.781  17.936  0.00  0.00    +0.000 C 
BRANCH  25  26
ATOM     26  C   UNL     1       5.710   5.575  18.059  0.00  0.00    +0.000 A 
ATOM     27  C   UNL     1       6.622   5.247  19.074  0.00  0.00    +0.000 A 
ATOM     28  C   UNL     1       7.800   5.983  19.232  0.00  0.00    +0.000 A 
ATOM     29  C   UNL     1       8.068   7.055  18.384  0.00  0.00    +0.000 A 
ATOM     30  C   UNL     1       7.168   7.383  17.371  0.00  0.00    +0.000 A 
ATOM     31  C   UNL     1       5.996   6.641  17.202  0.00  0.00    +0.000 A 
ENDBRANCH  25  26
ENDBRANCH  19  20
ENDBRANCH  14  18
TORSDOF 4
ENDMDL
MODEL 5
REMARK VINA RESULT:      -8.2      1.375      2.445
REMARK  Name = 
REMARK  4 active torsions:
REMARK  status: ('A' for Active; 'I' for Inactive)
REMARK    1  A    between atoms: N_1  and  C_2
REMARK    2  A    between atoms: C_15  and  N_16
REMARK    3  A    between atoms: N_17  and  C_18
REMARK    4  A    between atoms: C_23  and  C_24
REMARK                            x       y       z     vdW  Elec       q    Type
REMARK                         _______ _______ _______ _____ _____    ______ ____
ROOT
ATOM      1  C   UNL     1       1.939   7.183  20.368  0.00  0.00    +0.000 A 
ATOM      2  C   UNL     1       1.332   8.239  21.068  0.00  0.00    +0.000 A 
ATOM      3  C   UNL     1       1.007   9.441  20.452  0.00  0.00    +0.000 A 
ATOM      4  N   UNL     1       0.435  10.432  21.161  0.00  0.00    +0.000 NA
ATOM      5  C   UNL     1       0.120  11.565  20.503  0.00  0.00    +0.000 A 
ATOM      6  C   UNL     1      -0.490  12.614  21.180  0.00  0.00    +0.000 A 
ATOM      7  C   UNL     1      -0.845  13.797  20.525  0.00  0.00    +0.000 A 
ATOM      8  C   UNL     1      -0.583  13.931  19.168  0.00  0.00    +0.000 A 
ATOM      9  C   UNL     1       0.035  12.887  18.482  0.00  0.00    +0.000 A 
ATOM     10  C   UNL     1       0.391  11.709  19.126  0.00  0.00    +0.000 A 
ATOM     11  N   UNL     1       0.977  10.725  18.424  0.00  0.00    +0.000 NA
ATOM     12  C   UNL     1       1.277   9.594  19.079  0.00  0.00    +0.000 A 
ATOM     13  C   UNL     1       1.845   8.546  18.377  0.00  0.00    +0.000 A 
ATOM     14  C   UNL     1       2.140   7.312  18.977  0.00  0.00    +0.000 A 
ENDROOT
BRANCH   1  15
ATOM     15  N   UNL     1       2.117   5.953  21.038  0.00  0.00    +0.000 N 
ATOM     16  H   UNL     1       1.264   5.584  21.453  0.00  0.00    +0.000 HD
ATOM     17  H   UNL     1       2.889   5.975  21.699  0.00  0.00    +0.000 HD
ENDBRANCH   1  15
BRANCH  14  18
ATOM     18  N   UNL     1       2.687   6.235  18.226  0.00  0.00    +0.000 NA
ATOM     19  N   UNL     1       2.198   5.135  18.576  0.00  0.00    +0.000 NA
BRANCH  19  20
ATOM     20  C   UNL     1       2.591   4.017  17.717  0.00  0.00    +0.000 C 
ATOM     21  C   UNL     1       1.835   2.797  18.150  0.00  0.00    +0.000 C 
ATOM     22  O   UNL     1       0.622   2.652  18.178  0.00  0.00    +0.000 OA
ATOM     23  O   UNL     1       2.744   1.832  18.515  0.00  0.00    +0.000 OA
ATOM     24  N   UNL     1       4.065   2.358  18.440  0.00  0.00    +0.000 NA
ATOM     25  C   UNL     1       3.985   3.582  18.023  0.00  0.00    +0.000 C 
BRANCH  25  26
ATOM     26  C   UNL     1       5.182   4.438  17.820  0.00  0.00    +0.000 A 
ATOM     27  C   UNL     1       5.877   4.908  18.946  0.00  0.00    +0.000 A 
ATOM     28  C   UNL     1       6.996   5.731  18.794  0.00  0.00    +0.000 A 
ATOM     29  C   UNL     1       7.422   6.096  17.519  0.00  0.00    +0.000 A 
ATOM     30  C   UNL     1       6.739   5.629  16.397  0.00  0.00    +0.000 A 
ATOM     31  C   UNL     1       5.627   4.796  16.544  0.00  0.00    +0.000 A 
ENDBRANCH  25  26
ENDBRANCH  19  20
ENDBRANCH  14  18
TORSDOF 4
ENDMDL
MODEL 6
REMARK VINA RESULT:      -8.1      1.899      3.488
REMARK  Name = 
REMARK  4 active torsions:
REMARK  status: ('A' for Active; 'I' for Inactive)
REMARK    1  A    between atoms: N_1  and  C_2
REMARK    2  A    between atoms: C_15  and  N_16
REMARK    3  A    between atoms: N_17  and  C_18
REMARK    4  A    between atoms: C_23  and  C_24
REMARK                            x       y       z     vdW  Elec       q    Type
REMARK                         _______ _______ _______ _____ _____    ______ ____
ROOT
ATOM      1  C   UNL     1       1.958   8.704  18.399  0.00  0.00    +0.000 A 
ATOM      2  C   UNL     1       1.177   9.867  18.504  0.00  0.00    +0.000 A 
ATOM      3  C   UNL     1       0.483  10.186  19.664  0.00  0.00    +0.000 A 
ATOM      4  N   UNL     1      -0.261  11.306  19.720  0.00  0.00    +0.000 NA
ATOM      5  C   UNL     1      -0.891  11.575  20.881  0.00  0.00    +0.000 A 
ATOM      6  C   UNL     1      -1.658  12.728  21.003  0.00  0.00    +0.000 A 
ATOM      7  C   UNL     1      -2.311  13.047  22.197  0.00  0.00    +0.000 A 
ATOM      8  C   UNL     1      -2.195  12.195  23.288  0.00  0.00    +0.000 A 
ATOM      9  C   UNL     1      -1.433  11.033  23.173  0.00  0.00    +0.000 A 
ATOM     10  C   UNL     1      -0.781  10.710  21.990  0.00  0.00    +0.000 A 
ATOM     11  N   UNL     1      -0.051   9.584  21.926  0.00  0.00    +0.000 NA
ATOM     12  C   UNL     1       0.585   9.326  20.774  0.00  0.00    +0.000 A 
ATOM     13  C   UNL     1       1.378   8.196  20.687  0.00  0.00    +0.000 A 
ATOM     14  C   UNL     1       2.117   7.883  19.536  0.00  0.00    +0.000 A 
ENDROOT
BRANCH   1  15
ATOM     15  N   UNL     1       2.731   8.521  17.232  0.00  0.00    +0.000 N 
ATOM     16  H   UNL     1       2.470   7.701  16.689  0.00  0.00    +0.000 HD
ATOM     17  H   UNL     1       3.730   8.559  17.414  0.00  0.00    +0.000 HD
ENDBRANCH   1  15
BRANCH  14  18
ATOM     18  N   UNL     1       2.957   6.736  19.483  0.00  0.00    +0.000 NA
ATOM     19  N   UNL     1       3.236   6.424  18.301  0.00  0.00    +0.000 NA
BRANCH  19  20
ATOM     20  C   UNL     1       4.240   5.365  18.195  0.00  0.00    +0.000 C 
ATOM     21  C   UNL     1       4.785   5.365  16.798  0.00  0.00    +0.000 C 
ATOM     22  O   UNL     1       5.356   6.282  16.229  0.00  0.00    +0.000 OA
ATOM     23  O   UNL     1       4.542   4.131  16.239  0.00  0.00    +0.000 OA
ATOM     24  N   UNL     1       3.787   3.331  17.143  0.00  0.00    +0.000 NA
ATOM     25  C   UNL     1       3.592   4.021  18.222  0.00  0.00    +0.000 C 
BRANCH  25  26
ATOM     26  C   UNL     1       2.842   3.488  19.388  0.00  0.00    +0.000 A 
ATOM     27  C   UNL     1       1.442   3.589  19.396  0.00  0.00    +0.000 A 
ATOM     28  C   UNL     1       0.704   3.115  20.484  0.00  0.00    +0.000 A 
ATOM     29  C   UNL     1       1.360   2.547  21.574  0.00  0.00    +0.000 A 
ATOM     30  C   UNL     1       2.750   2.440  21.571  0.00  0.00    +0.000 A 
ATOM     31  C   UNL     1       3.491   2.901  20.479  0.00  0.00    +0.000 A 
ENDBRANCH  25  26
ENDBRANCH  19  20
ENDBRANCH  14  18
TORSDOF 4
ENDMDL
MODEL 7
REMARK VINA RESULT:      -7.9      2.154      4.136
REMARK  Name = 
REMARK  4 active torsions:
REMARK  status: ('A' for Active; 'I' for Inactive)
REMARK    1  A    between atoms: N_1  and  C_2
REMARK    2  A    between atoms: C_15  and  N_16
REMARK    3  A    between atoms: N_17  and  C_18
REMARK    4  A    between atoms: C_23  and  C_24
REMARK                            x       y       z     vdW  Elec       q    Type
REMARK                         _______ _______ _______ _____ _____    ______ ____
ROOT
ATOM      1  C   UNL     1       1.772   7.692  20.418  0.00  0.00    +0.000 A 
ATOM      2  C   UNL     1       1.080   8.751  21.030  0.00  0.00    +0.000 A 
ATOM      3  C   UNL     1       0.860   9.959  20.381  0.00  0.00    +0.000 A 
ATOM      4  N   UNL     1       0.200  10.952  21.007  0.00  0.00    +0.000 NA
ATOM      5  C   UNL     1      -0.005  12.092  20.318  0.00  0.00    +0.000 A 
ATOM      6  C   UNL     1      -0.697  13.143  20.906  0.00  0.00    +0.000 A 
ATOM      7  C   UNL     1      -0.942  14.333  20.215  0.00  0.00    +0.000 A 
ATOM      8  C   UNL     1      -0.485  14.472  18.911  0.00  0.00    +0.000 A 
ATOM      9  C   UNL     1       0.216  13.425  18.314  0.00  0.00    +0.000 A 
ATOM     10  C   UNL     1       0.463  12.240  18.995  0.00  0.00    +0.000 A 
ATOM     11  N   UNL     1       1.136  11.254  18.379  0.00  0.00    +0.000 NA
ATOM     12  C   UNL     1       1.327  10.116  19.063  0.00  0.00    +0.000 A 
ATOM     13  C   UNL     1       1.980   9.066  18.444  0.00  0.00    +0.000 A 
ATOM     14  C   UNL     1       2.174   7.826  19.072  0.00  0.00    +0.000 A 
ENDROOT
BRANCH   1  15
ATOM     15  N   UNL     1       1.840   6.457  21.098  0.00  0.00    +0.000 N 
ATOM     16  H   UNL     1       1.840   5.647  20.481  0.00  0.00    +0.000 HD
ATOM     17  H   UNL     1       1.145   6.377  21.836  0.00  0.00    +0.000 HD
ENDBRANCH   1  15
BRANCH  14  18
ATOM     18  N   UNL     1       2.814   6.747  18.401  0.00  0.00    +0.000 NA
ATOM     19  N   UNL     1       3.959   6.533  18.864  0.00  0.00    +0.000 NA
BRANCH  19  20
ATOM     20  C   UNL     1       4.589   5.323  18.334  0.00  0.00    +0.000 C 
ATOM     21  C   UNL     1       4.976   5.574  16.908  0.00  0.00    +0.000 C 
ATOM     22  O   UNL     1       5.738   6.433  16.490  0.00  0.00    +0.000 OA
ATOM     23  O   UNL     1       4.327   4.655  16.115  0.00  0.00    +0.000 OA
ATOM     24  N   UNL     1       3.458   3.859  16.912  0.00  0.00    +0.000 NA
ATOM     25  C   UNL     1       3.578   4.243  18.143  0.00  0.00    +0.000 C 
BRANCH  25  26
ATOM     26  C   UNL     1       2.816   3.617  19.255  0.00  0.00    +0.000 A 
ATOM     27  C   UNL     1       3.522   3.108  20.356  0.00  0.00    +0.000 A 
ATOM     28  C   UNL     1       2.840   2.496  21.412  0.00  0.00    +0.000 A 
ATOM     29  C   UNL     1       1.453   2.381  21.369  0.00  0.00    +0.000 A 
ATOM     30  C   UNL     1       0.746   2.889  20.280  0.00  0.00    +0.000 A 
ATOM     31  C   UNL     1       1.422   3.513  19.229  0.00  0.00    +0.000 A 
ENDBRANCH  25  26
ENDBRANCH  19  20
ENDBRANCH  14  18
TORSDOF 4
ENDMDL
MODEL 8
REMARK VINA RESULT:      -7.8      3.855      8.943
REMARK  Name = 
REMARK  4 active torsions:
REMARK  status: ('A' for Active; 'I' for Inactive)
REMARK    1  A    between atoms: N_1  and  C_2
REMARK    2  A    between atoms: C_15  and  N_16
REMARK    3  A    between atoms: N_17  and  C_18
REMARK    4  A    between atoms: C_23  and  C_24
REMARK                            x       y       z     vdW  Elec       q    Type
REMARK                         _______ _______ _______ _____ _____    ______ ____
ROOT
ATOM      1  C   UNL     1       1.168   8.397  20.994  0.00  0.00    +0.000 A 
ATOM      2  C   UNL     1       1.556   7.069  21.239  0.00  0.00    +0.000 A 
ATOM      3  C   UNL     1       2.074   6.256  20.239  0.00  0.00    +0.000 A 
ATOM      4  N   UNL     1       2.424   4.986  20.513  0.00  0.00    +0.000 NA
ATOM      5  C   UNL     1       2.944   4.254  19.507  0.00  0.00    +0.000 A 
ATOM      6  C   UNL     1       3.341   2.943  19.737  0.00  0.00    +0.000 A 
ATOM      7  C   UNL     1       3.900   2.161  18.722  0.00  0.00    +0.000 A 
ATOM      8  C   UNL     1       4.061   2.702  17.453  0.00  0.00    +0.000 A 
ATOM      9  C   UNL     1       3.659   4.015  17.211  0.00  0.00    +0.000 A 
ATOM     10  C   UNL     1       3.104   4.798  18.215  0.00  0.00    +0.000 A 
ATOM     11  N   UNL     1       2.737   6.060  17.940  0.00  0.00    +0.000 NA
ATOM     12  C   UNL     1       2.233   6.790  18.946  0.00  0.00    +0.000 A 
ATOM     13  C   UNL     1       1.883   8.107  18.706  0.00  0.00    +0.000 A 
ATOM     14  C   UNL     1       1.398   8.951  19.717  0.00  0.00    +0.000 A 
ENDROOT
BRANCH   1  15
ATOM     15  N   UNL     1       0.774   9.191  22.093  0.00  0.00    +0.000 N 
ATOM     16  H   UNL     1       0.310  10.058  21.829  0.00  0.00    +0.000 HD
ATOM     17  H   UNL     1       1.528   9.345  22.756  0.00  0.00    +0.000 HD
ENDBRANCH   1  15
BRANCH  14  18
ATOM     18  N   UNL     1       1.082  10.313  19.456  0.00  0.00    +0.000 NA
ATOM     19  N   UNL     1      -0.125  10.558  19.691  0.00  0.00    +0.000 NA
BRANCH  19  20
ATOM     20  C   UNL     1      -0.462  11.980  19.613  0.00  0.00    +0.000 C 
ATOM     21  C   UNL     1      -0.317  12.578  20.980  0.00  0.00    +0.000 C 
ATOM     22  O   UNL     1       0.694  12.617  21.665  0.00  0.00    +0.000 OA
ATOM     23  O   UNL     1      -1.533  13.101  21.355  0.00  0.00    +0.000 OA
ATOM     24  N   UNL     1      -2.510  12.811  20.361  0.00  0.00    +0.000 NA
ATOM     25  C   UNL     1      -1.927  12.164  19.402  0.00  0.00    +0.000 C 
BRANCH  25  26
ATOM     26  C   UNL     1      -2.652  11.707  18.188  0.00  0.00    +0.000 A 
ATOM     27  C   UNL     1      -4.055  11.678  18.209  0.00  0.00    +0.000 A 
ATOM     28  C   UNL     1      -4.770  11.237  17.093  0.00  0.00    +0.000 A 
ATOM     29  C   UNL     1      -4.089  10.813  15.954  0.00  0.00    +0.000 A 
ATOM     30  C   UNL     1      -2.695  10.843  15.926  0.00  0.00    +0.000 A 
ATOM     31  C   UNL     1      -1.977  11.296  17.036  0.00  0.00    +0.000 A 
ENDBRANCH  25  26
ENDBRANCH  19  20
ENDBRANCH  14  18
TORSDOF 4
ENDMDL
MODEL 9
REMARK VINA RESULT:      -7.8      1.424      2.616
REMARK  Name = 
REMARK  4 active torsions:
REMARK  status: ('A' for Active; 'I' for Inactive)
REMARK    1  A    between atoms: N_1  and  C_2
REMARK    2  A    between atoms: C_15  and  N_16
REMARK    3  A    between atoms: N_17  and  C_18
REMARK    4  A    between atoms: C_23  and  C_24
REMARK                            x       y       z     vdW  Elec       q    Type
REMARK                         _______ _______ _______ _____ _____    ______ ____
ROOT
ATOM      1  C   UNL     1       1.594   7.743  20.574  0.00  0.00    +0.000 A 
ATOM      2  C   UNL     1       0.915   8.778  21.238  0.00  0.00    +0.000 A 
ATOM      3  C   UNL     1       0.680  10.009  20.638  0.00  0.00    +0.000 A 
ATOM      4  N   UNL     1       0.033  10.977  21.313  0.00  0.00    +0.000 NA
ATOM      5  C   UNL     1      -0.188  12.141  20.670  0.00  0.00    +0.000 A 
ATOM      6  C   UNL     1      -0.867  13.170  21.311  0.00  0.00    +0.000 A 
ATOM      7  C   UNL     1      -1.129  14.383  20.668  0.00  0.00    +0.000 A 
ATOM      8  C   UNL     1      -0.700  14.569  19.360  0.00  0.00    +0.000 A 
ATOM      9  C   UNL     1      -0.012  13.545  18.711  0.00  0.00    +0.000 A 
ATOM     10  C   UNL     1       0.252  12.337  19.344  0.00  0.00    +0.000 A 
ATOM     11  N   UNL     1       0.911  11.375  18.678  0.00  0.00    +0.000 NA
ATOM     12  C   UNL     1       1.118  10.214  19.316  0.00  0.00    +0.000 A 
ATOM     13  C   UNL     1       1.758   9.187  18.646  0.00  0.00    +0.000 A 
ATOM     14  C   UNL     1       1.966   7.926  19.225  0.00  0.00    +0.000 A 
ENDROOT
BRANCH   1  15
ATOM     15  N   UNL     1       1.677   6.484  21.208  0.00  0.00    +0.000 N 
ATOM     16  H   UNL     1       1.736   6.538  22.222  0.00  0.00    +0.000 HD
ATOM     17  H   UNL     1       2.403   5.893  20.811  0.00  0.00    +0.000 HD
ENDBRANCH   1  15
BRANCH  14  18
ATOM     18  N   UNL     1       2.592   6.873  18.502  0.00  0.00    +0.000 NA
ATOM     19  N   UNL     1       2.874   5.906  19.249  0.00  0.00    +0.000 NA
BRANCH  19  20
ATOM     20  C   UNL     1       3.354   4.727  18.528  0.00  0.00    +0.000 C 
ATOM     21  C   UNL     1       2.755   3.507  19.162  0.00  0.00    +0.000 C 
ATOM     22  O   UNL     1       1.568   3.241  19.275  0.00  0.00    +0.000 OA
ATOM     23  O   UNL     1       3.780   2.702  19.603  0.00  0.00    +0.000 OA
ATOM     24  N   UNL     1       5.030   3.348  19.386  0.00  0.00    +0.000 NA
ATOM     25  C   UNL     1       4.798   4.487  18.813  0.00  0.00    +0.000 C 
BRANCH  25  26
ATOM     26  C   UNL     1       5.884   5.426  18.432  0.00  0.00    +0.000 A 
ATOM     27  C   UNL     1       7.016   5.522  19.256  0.00  0.00    +0.000 A 
ATOM     28  C   UNL     1       8.048   6.409  18.939  0.00  0.00    +0.000 A 
ATOM     29  C   UNL     1       7.952   7.210  17.803  0.00  0.00    +0.000 A 
ATOM     30  C   UNL     1       6.833   7.116  16.978  0.00  0.00    +0.000 A 
ATOM     31  C   UNL     1       5.804   6.221  17.285  0.00  0.00    +0.000 A 
ENDBRANCH  25  26
ENDBRANCH  19  20
ENDBRANCH  14  18
TORSDOF 4
ENDMDL
