MODEL 1
REMARK VINA RESULT:      -8.1      0.000      0.000
REMARK  Name = 
REMARK  4 active torsions:
REMARK  status: ('A' for Active; 'I' for Inactive)
REMARK    1  A    between atoms: C_1  and  C_2
REMARK    2  A    between atoms: C_4  and  O_5
REMARK    3  A    between atoms: O_5  and  C_6
REMARK    4  A    between atoms: C_6  and  C_8
REMARK                            x       y       z     vdW  Elec       q    Type
REMARK                         _______ _______ _______ _____ _____    ______ ____
ROOT
ATOM      1  C   UNL     1       7.393   7.519  17.023  0.00  0.00    +0.000 C 
ATOM      2  C   UNL     1       6.236   6.752  17.591  0.00  0.00    +0.000 A 
ATOM      3  C   UNL     1       4.935   7.257  17.521  0.00  0.00    +0.000 A 
ATOM      4  C   UNL     1       3.852   6.522  18.031  0.00  0.00    +0.000 A 
ATOM      5  C   UNL     1       4.038   5.277  18.678  0.00  0.00    +0.000 A 
ATOM      6  C   UNL     1       2.990   4.420  19.293  0.00  0.00    +0.000 A 
ATOM      7  C   UNL     1       3.336   3.234  19.840  0.00  0.00    +0.000 A 
ATOM      8  C   UNL     1       4.741   2.763  19.897  0.00  0.00    +0.000 A 
ATOM      9  O   UNL     1       5.049   1.700  20.427  0.00  0.00    +0.000 OA
ATOM     10  O   UNL     1       5.693   3.585  19.331  0.00  0.00    +0.000 OA
ATOM     11  C   UNL     1       5.356   4.812  18.731  0.00  0.00    +0.000 A 
ATOM     12  C   UNL     1       6.441   5.518  18.200  0.00  0.00    +0.000 A 
ATOM     13  C   UNL     1       2.340   2.269  20.439  0.00  0.00    +0.000 C 
ATOM     14  C   UNL     1       0.896   2.575  20.054  0.00  0.00    +0.000 C 
ATOM     15  C   UNL     1       0.622   4.059  20.209  0.00  0.00    +0.000 C 
ATOM     16  C   UNL     1       1.551   4.880  19.312  0.00  0.00    +0.000 C 
ENDROOT
BRANCH   4  17
ATOM     17  O   UNL     1       2.541   7.069  17.950  0.00  0.00    +0.000 OA
BRANCH  17  18
ATOM     18  C   UNL     1       2.186   8.418  18.086  0.00  0.00    +0.000 C 
ATOM     19  O   UNL     1       2.376   9.293  17.248  0.00  0.00    +0.000 OA
BRANCH  18  20
ATOM     20  C   UNL     1       1.532   8.625  19.360  0.00  0.00    +0.000 A 
ATOM     21  C   UNL     1       1.729   8.023  20.591  0.00  0.00    +0.000 A 
ATOM     22  C   UNL     1       0.839   8.646  21.501  0.00  0.00    +0.000 A 
ATOM     23  C   UNL     1       0.139   9.575  20.771  0.00  0.00    +0.000 A 
ATOM     24  O   UNL     1       0.544   9.568  19.478  0.00  0.00    +0.000 OA
ENDBRANCH  18  20
ENDBRANCH  17  18
ENDBRANCH   4  17
TORSDOF 3
ENDMDL
MODEL 2
REMARK VINA RESULT:      -8.0      1.507      5.212
REMARK  Name = 
REMARK  4 active torsions:
REMARK  status: ('A' for Active; 'I' for Inactive)
REMARK    1  A    between atoms: C_1  and  C_2
REMARK    2  A    between atoms: C_4  and  O_5
REMARK    3  A    between atoms: O_5  and  C_6
REMARK    4  A    between atoms: C_6  and  C_8
REMARK                            x       y       z     vdW  Elec       q    Type
REMARK                         _______ _______ _______ _____ _____    ______ ____
ROOT
ATOM      1  C   UNL     1       6.961   4.729  15.286  0.00  0.00    +0.000 C 
ATOM      2  C   UNL     1       5.955   5.176  16.304  0.00  0.00    +0.000 A 
ATOM      3  C   UNL     1       5.740   4.443  17.474  0.00  0.00    +0.000 A 
ATOM      4  C   UNL     1       4.816   4.881  18.437  0.00  0.00    +0.000 A 
ATOM      5  C   UNL     1       4.034   6.044  18.239  0.00  0.00    +0.000 A 
ATOM      6  C   UNL     1       2.999   6.596  19.154  0.00  0.00    +0.000 A 
ATOM      7  C   UNL     1       2.367   7.745  18.829  0.00  0.00    +0.000 A 
ATOM      8  C   UNL     1       2.630   8.467  17.562  0.00  0.00    +0.000 A 
ATOM      9  O   UNL     1       2.027   9.493  17.261  0.00  0.00    +0.000 OA
ATOM     10  O   UNL     1       3.586   7.926  16.727  0.00  0.00    +0.000 OA
ATOM     11  C   UNL     1       4.277   6.745  17.054  0.00  0.00    +0.000 A 
ATOM     12  C   UNL     1       5.216   6.337  16.100  0.00  0.00    +0.000 A 
ATOM     13  C   UNL     1       1.343   8.413  19.716  0.00  0.00    +0.000 C 
ATOM     14  C   UNL     1       1.347   7.886  21.148  0.00  0.00    +0.000 C 
ATOM     15  C   UNL     1       1.394   6.370  21.141  0.00  0.00    +0.000 C 
ATOM     16  C   UNL     1       2.653   5.867  20.432  0.00  0.00    +0.000 C 
ENDROOT
BRANCH   4  17
ATOM     17  O   UNL     1       4.616   4.106  19.613  0.00  0.00    +0.000 OA
BRANCH  17  18
ATOM     18  C   UNL     1       4.247   2.755  19.674  0.00  0.00    +0.000 C 
ATOM     19  O   UNL     1       4.998   1.823  19.940  0.00  0.00    +0.000 OA
BRANCH  18  20
ATOM     20  C   UNL     1       2.833   2.623  19.401  0.00  0.00    +0.000 A 
ATOM     21  C   UNL     1       2.147   2.478  18.206  0.00  0.00    +0.000 A 
ATOM     22  C   UNL     1       0.775   2.348  18.533  0.00  0.00    +0.000 A 
ATOM     23  C   UNL     1       0.700   2.439  19.902  0.00  0.00    +0.000 A 
ATOM     24  O   UNL     1       1.934   2.610  20.435  0.00  0.00    +0.000 OA
ENDBRANCH  18  20
ENDBRANCH  17  18
ENDBRANCH   4  17
TORSDOF 3
ENDMDL
MODEL 3
REMARK VINA RESULT:      -7.9      2.128      4.555
REMARK  Name = 
REMARK  4 active torsions:
REMARK  status: ('A' for Active; 'I' for Inactive)
REMARK    1  A    between atoms: C_1  and  C_2
REMARK    2  A    between atoms: C_4  and  O_5
REMARK    3  A    between atoms: O_5  and  C_6
REMARK    4  A    between atoms: C_6  and  C_8
REMARK                            x       y       z     vdW  Elec       q    Type
REMARK                         _______ _______ _______ _____ _____    ______ ____
ROOT
ATOM      1  C   UNL     1       1.702   9.747  18.903  0.00  0.00    +0.000 C 
ATOM      2  C   UNL     1       2.142   8.313  18.898  0.00  0.00    +0.000 A 
ATOM      3  C   UNL     1       2.880   7.791  17.834  0.00  0.00    +0.000 A 
ATOM      4  C   UNL     1       3.312   6.454  17.847  0.00  0.00    +0.000 A 
ATOM      5  C   UNL     1       2.976   5.576  18.904  0.00  0.00    +0.000 A 
ATOM      6  C   UNL     1       3.333   4.137  19.024  0.00  0.00    +0.000 A 
ATOM      7  C   UNL     1       2.962   3.448  20.125  0.00  0.00    +0.000 A 
ATOM      8  C   UNL     1       2.162   4.058  21.214  0.00  0.00    +0.000 A 
ATOM      9  O   UNL     1       1.801   3.415  22.195  0.00  0.00    +0.000 OA
ATOM     10  O   UNL     1       1.834   5.390  21.070  0.00  0.00    +0.000 OA
ATOM     11  C   UNL     1       2.231   6.138  19.946  0.00  0.00    +0.000 A 
ATOM     12  C   UNL     1       1.820   7.475  19.961  0.00  0.00    +0.000 A 
ATOM     13  C   UNL     1       3.323   2.001  20.365  0.00  0.00    +0.000 C 
ATOM     14  C   UNL     1       4.433   1.495  19.448  0.00  0.00    +0.000 C 
ATOM     15  C   UNL     1       4.161   1.927  18.020  0.00  0.00    +0.000 C 
ATOM     16  C   UNL     1       4.098   3.453  17.915  0.00  0.00    +0.000 C 
ENDROOT
BRANCH   4  17
ATOM     17  O   UNL     1       4.056   5.953  16.743  0.00  0.00    +0.000 OA
BRANCH  17  18
ATOM     18  C   UNL     1       5.157   6.564  16.127  0.00  0.00    +0.000 C 
ATOM     19  O   UNL     1       5.192   6.968  14.969  0.00  0.00    +0.000 OA
BRANCH  18  20
ATOM     20  C   UNL     1       6.247   6.674  17.072  0.00  0.00    +0.000 A 
ATOM     21  C   UNL     1       6.730   5.778  18.011  0.00  0.00    +0.000 A 
ATOM     22  C   UNL     1       7.845   6.393  18.631  0.00  0.00    +0.000 A 
ATOM     23  C   UNL     1       7.966   7.633  18.051  0.00  0.00    +0.000 A 
ATOM     24  O   UNL     1       7.005   7.815  17.113  0.00  0.00    +0.000 OA
ENDBRANCH  18  20
ENDBRANCH  17  18
ENDBRANCH   4  17
TORSDOF 3
ENDMDL
MODEL 4
REMARK VINA RESULT:      -7.7      2.043      5.786
REMARK  Name = 
REMARK  4 active torsions:
REMARK  status: ('A' for Active; 'I' for Inactive)
REMARK    1  A    between atoms: C_1  and  C_2
REMARK    2  A    between atoms: C_4  and  O_5
REMARK    3  A    between atoms: O_5  and  C_6
REMARK    4  A    between atoms: C_6  and  C_8
REMARK                            x       y       z     vdW  Elec       q    Type
REMARK                         _______ _______ _______ _____ _____    ______ ____
ROOT
ATOM      1  C   UNL     1       3.665   2.388  20.243  0.00  0.00    +0.000 C 
ATOM      2  C   UNL     1       3.302   3.798  19.881  0.00  0.00    +0.000 A 
ATOM      3  C   UNL     1       3.776   4.384  18.705  0.00  0.00    +0.000 A 
ATOM      4  C   UNL     1       3.411   5.695  18.358  0.00  0.00    +0.000 A 
ATOM      5  C   UNL     1       2.599   6.488  19.204  0.00  0.00    +0.000 A 
ATOM      6  C   UNL     1       2.172   7.894  18.978  0.00  0.00    +0.000 A 
ATOM      7  C   UNL     1       1.359   8.496  19.873  0.00  0.00    +0.000 A 
ATOM      8  C   UNL     1       0.904   7.822  21.113  0.00  0.00    +0.000 A 
ATOM      9  O   UNL     1       0.192   8.389  21.937  0.00  0.00    +0.000 OA
ATOM     10  O   UNL     1       1.326   6.523  21.303  0.00  0.00    +0.000 OA
ATOM     11  C   UNL     1       2.151   5.865  20.373  0.00  0.00    +0.000 A 
ATOM     12  C   UNL     1       2.481   4.549  20.716  0.00  0.00    +0.000 A 
ATOM     13  C   UNL     1       0.826   9.900  19.705  0.00  0.00    +0.000 C 
ATOM     14  C   UNL     1       0.986  10.441  18.287  0.00  0.00    +0.000 C 
ATOM     15  C   UNL     1       2.383  10.150  17.776  0.00  0.00    +0.000 C 
ATOM     16  C   UNL     1       2.655   8.644  17.757  0.00  0.00    +0.000 C 
ENDROOT
BRANCH   4  17
ATOM     17  O   UNL     1       3.918   6.263  17.157  0.00  0.00    +0.000 OA
BRANCH  17  18
ATOM     18  C   UNL     1       5.106   5.913  16.500  0.00  0.00    +0.000 C 
ATOM     19  O   UNL     1       5.183   5.243  15.475  0.00  0.00    +0.000 OA
BRANCH  18  20
ATOM     20  C   UNL     1       6.237   6.485  17.198  0.00  0.00    +0.000 A 
ATOM     21  C   UNL     1       7.046   5.968  18.195  0.00  0.00    +0.000 A 
ATOM     22  C   UNL     1       8.030   6.947  18.476  0.00  0.00    +0.000 A 
ATOM     23  C   UNL     1       7.755   8.010  17.651  0.00  0.00    +0.000 A 
ATOM     24  O   UNL     1       6.672   7.746  16.879  0.00  0.00    +0.000 OA
ENDBRANCH  18  20
ENDBRANCH  17  18
ENDBRANCH   4  17
TORSDOF 3
ENDMDL
MODEL 5
REMARK VINA RESULT:      -7.6      2.354      6.158
REMARK  Name = 
REMARK  4 active torsions:
REMARK  status: ('A' for Active; 'I' for Inactive)
REMARK    1  A    between atoms: C_1  and  C_2
REMARK    2  A    between atoms: C_4  and  O_5
REMARK    3  A    between atoms: O_5  and  C_6
REMARK    4  A    between atoms: C_6  and  C_8
REMARK                            x       y       z     vdW  Elec       q    Type
REMARK                         _______ _______ _______ _____ _____    ______ ____
ROOT
ATOM      1  C   UNL     1       3.950   2.382  20.156  0.00  0.00    +0.000 C 
ATOM      2  C   UNL     1       3.531   3.778  19.802  0.00  0.00    +0.000 A 
ATOM      3  C   UNL     1       4.008   4.401  18.647  0.00  0.00    +0.000 A 
ATOM      4  C   UNL     1       3.591   5.699  18.307  0.00  0.00    +0.000 A 
ATOM      5  C   UNL     1       2.721   6.441  19.140  0.00  0.00    +0.000 A 
ATOM      6  C   UNL     1       2.234   7.829  18.920  0.00  0.00    +0.000 A 
ATOM      7  C   UNL     1       1.370   8.380  19.801  0.00  0.00    +0.000 A 
ATOM      8  C   UNL     1       0.914   7.669  21.019  0.00  0.00    +0.000 A 
ATOM      9  O   UNL     1       0.155   8.190  21.830  0.00  0.00    +0.000 OA
ATOM     10  O   UNL     1       1.392   6.388  21.204  0.00  0.00    +0.000 OA
ATOM     11  C   UNL     1       2.271   5.781  20.289  0.00  0.00    +0.000 A 
ATOM     12  C   UNL     1       2.653   4.478  20.624  0.00  0.00    +0.000 A 
ATOM     13  C   UNL     1       0.777   9.759  19.636  0.00  0.00    +0.000 C 
ATOM     14  C   UNL     1       0.948  10.327  18.230  0.00  0.00    +0.000 C 
ATOM     15  C   UNL     1       2.371  10.109  17.754  0.00  0.00    +0.000 C 
ATOM     16  C   UNL     1       2.713   8.618  17.723  0.00  0.00    +0.000 C 
ENDROOT
BRANCH   4  17
ATOM     17  O   UNL     1       4.103   6.307  17.127  0.00  0.00    +0.000 OA
BRANCH  17  18
ATOM     18  C   UNL     1       5.451   6.526  16.813  0.00  0.00    +0.000 C 
ATOM     19  O   UNL     1       6.178   7.363  17.338  0.00  0.00    +0.000 OA
BRANCH  18  20
ATOM     20  C   UNL     1       5.872   5.594  15.790  0.00  0.00    +0.000 A 
ATOM     21  C   UNL     1       5.227   4.502  15.234  0.00  0.00    +0.000 A 
ATOM     22  C   UNL     1       6.088   3.978  14.239  0.00  0.00    +0.000 A 
ATOM     23  C   UNL     1       7.214   4.765  14.258  0.00  0.00    +0.000 A 
ATOM     24  O   UNL     1       7.097   5.739  15.193  0.00  0.00    +0.000 OA
ENDBRANCH  18  20
ENDBRANCH  17  18
ENDBRANCH   4  17
TORSDOF 3
ENDMDL
MODEL 6
REMARK VINA RESULT:      -7.5      2.715      5.380
REMARK  Name = 
REMARK  4 active torsions:
REMARK  status: ('A' for Active; 'I' for Inactive)
REMARK    1  A    between atoms: C_1  and  C_2
REMARK    2  A    between atoms: C_4  and  O_5
REMARK    3  A    between atoms: O_5  and  C_6
REMARK    4  A    between atoms: C_6  and  C_8
REMARK                            x       y       z     vdW  Elec       q    Type
REMARK                         _______ _______ _______ _____ _____    ______ ____
ROOT
ATOM      1  C   UNL     1       1.951   9.817  18.261  0.00  0.00    +0.000 C 
ATOM      2  C   UNL     1       2.363   8.382  18.405  0.00  0.00    +0.000 A 
ATOM      3  C   UNL     1       3.156   7.760  17.437  0.00  0.00    +0.000 A 
ATOM      4  C   UNL     1       3.562   6.424  17.591  0.00  0.00    +0.000 A 
ATOM      5  C   UNL     1       3.144   5.644  18.695  0.00  0.00    +0.000 A 
ATOM      6  C   UNL     1       3.467   4.217  18.959  0.00  0.00    +0.000 A 
ATOM      7  C   UNL     1       3.016   3.629  20.089  0.00  0.00    +0.000 A 
ATOM      8  C   UNL     1       2.162   4.341  21.070  0.00  0.00    +0.000 A 
ATOM      9  O   UNL     1       1.730   3.789  22.077  0.00  0.00    +0.000 OA
ATOM     10  O   UNL     1       1.869   5.660  20.793  0.00  0.00    +0.000 OA
ATOM     11  C   UNL     1       2.348   6.303  19.637  0.00  0.00    +0.000 A 
ATOM     12  C   UNL     1       1.962   7.642  19.513  0.00  0.00    +0.000 A 
ATOM     13  C   UNL     1       3.335   2.203  20.473  0.00  0.00    +0.000 C 
ATOM     14  C   UNL     1       4.489   1.606  19.673  0.00  0.00    +0.000 C 
ATOM     15  C   UNL     1       4.313   1.918  18.199  0.00  0.00    +0.000 C 
ATOM     16  C   UNL     1       4.285   3.429  17.962  0.00  0.00    +0.000 C 
ENDROOT
BRANCH   4  17
ATOM     17  O   UNL     1       4.363   5.820  16.582  0.00  0.00    +0.000 OA
BRANCH  17  18
ATOM     18  C   UNL     1       5.654   6.204  16.194  0.00  0.00    +0.000 C 
ATOM     19  O   UNL     1       6.321   7.090  16.718  0.00  0.00    +0.000 OA
BRANCH  18  20
ATOM     20  C   UNL     1       6.099   5.377  15.094  0.00  0.00    +0.000 A 
ATOM     21  C   UNL     1       5.482   4.325  14.440  0.00  0.00    +0.000 A 
ATOM     22  C   UNL     1       6.358   3.912  13.406  0.00  0.00    +0.000 A 
ATOM     23  C   UNL     1       7.465   4.720  13.501  0.00  0.00    +0.000 A 
ATOM     24  O   UNL     1       7.323   5.604  14.519  0.00  0.00    +0.000 OA
ENDBRANCH  18  20
ENDBRANCH  17  18
ENDBRANCH   4  17
TORSDOF 3
ENDMDL
MODEL 7
REMARK VINA RESULT:      -7.2      2.184      5.553
REMARK  Name = 
REMARK  4 active torsions:
REMARK  status: ('A' for Active; 'I' for Inactive)
REMARK    1  A    between atoms: C_1  and  C_2
REMARK    2  A    between atoms: C_4  and  O_5
REMARK    3  A    between atoms: O_5  and  C_6
REMARK    4  A    between atoms: C_6  and  C_8
REMARK                            x       y       z     vdW  Elec       q    Type
REMARK                         _______ _______ _______ _____ _____    ______ ____
ROOT
ATOM      1  C   UNL     1       3.950   0.956  18.946  0.00  0.00    +0.000 C 
ATOM      2  C   UNL     1       3.692   2.424  18.784  0.00  0.00    +0.000 A 
ATOM      3  C   UNL     1       4.224   3.133  17.704  0.00  0.00    +0.000 A 
ATOM      4  C   UNL     1       3.957   4.503  17.543  0.00  0.00    +0.000 A 
ATOM      5  C   UNL     1       3.189   5.225  18.487  0.00  0.00    +0.000 A 
ATOM      6  C   UNL     1       2.865   6.676  18.458  0.00  0.00    +0.000 A 
ATOM      7  C   UNL     1       2.082   7.203  19.425  0.00  0.00    +0.000 A 
ATOM      8  C   UNL     1       1.562   6.398  20.555  0.00  0.00    +0.000 A 
ATOM      9  O   UNL     1       0.879   6.893  21.447  0.00  0.00    +0.000 OA
ATOM     10  O   UNL     1       1.889   5.058  20.563  0.00  0.00    +0.000 OA
ATOM     11  C   UNL     1       2.681   4.478  19.554  0.00  0.00    +0.000 A 
ATOM     12  C   UNL     1       2.913   3.108  19.711  0.00  0.00    +0.000 A 
ATOM     13  C   UNL     1       1.651   8.651  19.453  0.00  0.00    +0.000 C 
ATOM     14  C   UNL     1       1.870   9.373  18.126  0.00  0.00    +0.000 C 
ATOM     15  C   UNL     1       3.252   9.057  17.587  0.00  0.00    +0.000 C 
ATOM     16  C   UNL     1       3.417   7.553  17.358  0.00  0.00    +0.000 C 
ENDROOT
BRANCH   4  17
ATOM     17  O   UNL     1       4.521   5.196  16.436  0.00  0.00    +0.000 OA
BRANCH  17  18
ATOM     18  C   UNL     1       5.864   5.184  16.035  0.00  0.00    +0.000 C 
ATOM     19  O   UNL     1       6.312   4.587  15.061  0.00  0.00    +0.000 OA
BRANCH  18  20
ATOM     20  C   UNL     1       6.648   6.006  16.930  0.00  0.00    +0.000 A 
ATOM     21  C   UNL     1       7.276   5.705  18.127  0.00  0.00    +0.000 A 
ATOM     22  C   UNL     1       7.940   6.883  18.551  0.00  0.00    +0.000 A 
ATOM     23  C   UNL     1       7.665   7.837  17.602  0.00  0.00    +0.000 A 
ATOM     24  O   UNL     1       6.882   7.322  16.622  0.00  0.00    +0.000 OA
ENDBRANCH  18  20
ENDBRANCH  17  18
ENDBRANCH   4  17
TORSDOF 3
ENDMDL
MODEL 8
REMARK VINA RESULT:      -7.1      1.835      5.620
REMARK  Name = 
REMARK  4 active torsions:
REMARK  status: ('A' for Active; 'I' for Inactive)
REMARK    1  A    between atoms: C_1  and  C_2
REMARK    2  A    between atoms: C_4  and  O_5
REMARK    3  A    between atoms: O_5  and  C_6
REMARK    4  A    between atoms: C_6  and  C_8
REMARK                            x       y       z     vdW  Elec       q    Type
REMARK                         _______ _______ _______ _____ _____    ______ ____
ROOT
ATOM      1  C   UNL     1       5.640   4.407  17.172  0.00  0.00    +0.000 C 
ATOM      2  C   UNL     1       4.639   5.256  17.898  0.00  0.00    +0.000 A 
ATOM      3  C   UNL     1       4.094   4.843  19.117  0.00  0.00    +0.000 A 
ATOM      4  C   UNL     1       3.177   5.655  19.805  0.00  0.00    +0.000 A 
ATOM      5  C   UNL     1       2.732   6.888  19.272  0.00  0.00    +0.000 A 
ATOM      6  C   UNL     1       1.741   7.820  19.874  0.00  0.00    +0.000 A 
ATOM      7  C   UNL     1       1.455   8.982  19.247  0.00  0.00    +0.000 A 
ATOM      8  C   UNL     1       2.056   9.354  17.944  0.00  0.00    +0.000 A 
ATOM      9  O   UNL     1       1.763  10.397  17.367  0.00  0.00    +0.000 OA
ATOM     10  O   UNL     1       2.961   8.464  17.403  0.00  0.00    +0.000 OA
ATOM     11  C   UNL     1       3.297   7.260  18.048  0.00  0.00    +0.000 A 
ATOM     12  C   UNL     1       4.235   6.476  17.366  0.00  0.00    +0.000 A 
ATOM     13  C   UNL     1       0.506  10.018  19.804  0.00  0.00    +0.000 C 
ATOM     14  C   UNL     1       0.186   9.812  21.282  0.00  0.00    +0.000 C 
ATOM     15  C   UNL     1      -0.131   8.352  21.543  0.00  0.00    +0.000 C 
ATOM     16  C   UNL     1       1.057   7.462  21.173  0.00  0.00    +0.000 C 
ENDROOT
BRANCH   4  17
ATOM     17  O   UNL     1       2.637   5.200  21.040  0.00  0.00    +0.000 OA
BRANCH  17  18
ATOM     18  C   UNL     1       2.323   3.878  21.382  0.00  0.00    +0.000 C 
ATOM     19  O   UNL     1       2.411   3.392  22.504  0.00  0.00    +0.000 OA
BRANCH  18  20
ATOM     20  C   UNL     1       1.850   3.171  20.212  0.00  0.00    +0.000 A 
ATOM     21  C   UNL     1       2.421   2.146  19.476  0.00  0.00    +0.000 A 
ATOM     22  C   UNL     1       1.496   1.805  18.458  0.00  0.00    +0.000 A 
ATOM     23  C   UNL     1       0.425   2.650  18.619  0.00  0.00    +0.000 A 
ATOM     24  O   UNL     1       0.630   3.482  19.669  0.00  0.00    +0.000 OA
ENDBRANCH  18  20
ENDBRANCH  17  18
ENDBRANCH   4  17
TORSDOF 3
ENDMDL
MODEL 9
REMARK VINA RESULT:      -7.1      1.810      5.933
REMARK  Name = 
REMARK  4 active torsions:
REMARK  status: ('A' for Active; 'I' for Inactive)
REMARK    1  A    between atoms: C_1  and  C_2
REMARK    2  A    between atoms: C_4  and  O_5
REMARK    3  A    between atoms: O_5  and  C_6
REMARK    4  A    between atoms: C_6  and  C_8
REMARK                            x       y       z     vdW  Elec       q    Type
REMARK                         _______ _______ _______ _____ _____    ______ ____
ROOT
ATOM      1  C   UNL     1       4.914   5.042  16.813  0.00  0.00    +0.000 C 
ATOM      2  C   UNL     1       4.002   5.840  17.696  0.00  0.00    +0.000 A 
ATOM      3  C   UNL     1       3.497   5.303  18.883  0.00  0.00    +0.000 A 
ATOM      4  C   UNL     1       2.665   6.065  19.719  0.00  0.00    +0.000 A 
ATOM      5  C   UNL     1       2.264   7.377  19.372  0.00  0.00    +0.000 A 
ATOM      6  C   UNL     1       1.362   8.274  20.142  0.00  0.00    +0.000 A 
ATOM      7  C   UNL     1       1.111   9.520  19.685  0.00  0.00    +0.000 A 
ATOM      8  C   UNL     1       1.666  10.025  18.406  0.00  0.00    +0.000 A 
ATOM      9  O   UNL     1       1.405  11.147  17.982  0.00  0.00    +0.000 OA
ATOM     10  O   UNL     1       2.489   9.167  17.706  0.00  0.00    +0.000 OA
ATOM     11  C   UNL     1       2.788   7.874  18.174  0.00  0.00    +0.000 A 
ATOM     12  C   UNL     1       3.642   7.138  17.346  0.00  0.00    +0.000 A 
ATOM     13  C   UNL     1       0.254  10.522  20.422  0.00  0.00    +0.000 C 
ATOM     14  C   UNL     1      -0.003  10.144  21.877  0.00  0.00    +0.000 C 
ATOM     15  C   UNL     1      -0.389   8.681  21.971  0.00  0.00    +0.000 C 
ATOM     16  C   UNL     1       0.725   7.786  21.423  0.00  0.00    +0.000 C 
ENDROOT
BRANCH   4  17
ATOM     17  O   UNL     1       2.162   5.483  20.916  0.00  0.00    +0.000 OA
BRANCH  17  18
ATOM     18  C   UNL     1       2.241   4.135  21.291  0.00  0.00    +0.000 C 
ATOM     19  O   UNL     1       2.610   3.719  22.384  0.00  0.00    +0.000 OA
BRANCH  18  20
ATOM     20  C   UNL     1       1.794   3.298  20.199  0.00  0.00    +0.000 A 
ATOM     21  C   UNL     1       0.569   3.216  19.558  0.00  0.00    +0.000 A 
ATOM     22  C   UNL     1       0.708   2.255  18.526  0.00  0.00    +0.000 A 
ATOM     23  C   UNL     1       2.000   1.793  18.608  0.00  0.00    +0.000 A 
ATOM     24  O   UNL     1       2.663   2.411  19.616  0.00  0.00    +0.000 OA
ENDBRANCH  18  20
ENDBRANCH  17  18
ENDBRANCH   4  17
TORSDOF 3
ENDMDL
