MODEL 1
REMARK VINA RESULT:      -8.0      0.000      0.000
REMARK  Name = 
REMARK  7 active torsions:
REMARK  status: ('A' for Active; 'I' for Inactive)
REMARK    1  A    between atoms: C_1  and  C_2
REMARK    2  A    between atoms: C_6  and  C_7
REMARK    3  A    between atoms: C_7  and  C_8
REMARK    4  A    between atoms: C_17  and  C_18
REMARK    5  A    between atoms: C_18  and  C_19
REMARK    6  A    between atoms: C_18  and  C_20
REMARK    7  A    between atoms: C_20  and  O_21
REMARK                            x       y       z     vdW  Elec       q    Type
REMARK                         _______ _______ _______ _____ _____    ______ ____
ROOT
ATOM      1  C   UNL     1       1.602   3.216  21.610  0.00  0.00    +0.000 C 
ATOM      2  C   UNL     1       1.564   4.015  20.307  0.00  0.00    +0.000 C 
ATOM      3  C   UNL     1       1.258   3.085  19.166  0.00  0.00    +0.000 C 
ATOM      4  O   UNL     1       0.166   2.525  19.053  0.00  0.00    +0.000 OA
ATOM      5  C   UNL     1       2.291   2.803  18.174  0.00  0.00    +0.000 C 
ATOM      6  C   UNL     1       3.492   3.379  18.271  0.00  0.00    +0.000 C 
ATOM      7  O   UNL     1       3.847   4.293  19.228  0.00  0.00    +0.000 OA
ATOM      8  C   UNL     1       2.856   4.834  20.122  0.00  0.00    +0.000 C 
ENDROOT
BRANCH   8   9
ATOM      9  C   UNL     1       2.638   6.342  19.792  0.00  0.00    +0.000 C 
ATOM     10  C   UNL     1       2.499   6.627  18.297  0.00  0.00    +0.000 C 
BRANCH   9  11
ATOM     11  C   UNL     1       1.465   6.969  20.562  0.00  0.00    +0.000 C 
BRANCH  11  12
ATOM     12  O   UNL     1       1.912   8.058  21.356  0.00  0.00    +0.000 OA
ATOM     13  H   UNL     1       2.874   8.138  21.233  0.00  0.00    +0.000 HD
ENDBRANCH  11  12
ENDBRANCH   9  11
ENDBRANCH   8   9
BRANCH   6  14
ATOM     14  C   UNL     1       4.574   3.080  17.259  0.00  0.00    +0.000 C 
BRANCH  14  15
ATOM     15  C   UNL     1       5.327   4.328  16.748  0.00  0.00    +0.000 C 
ATOM     16  C   UNL     1       6.106   4.034  15.467  0.00  0.00    +0.000 C 
ATOM     17  C   UNL     1       6.958   5.201  15.036  0.00  0.00    +0.000 C 
ATOM     18  O   UNL     1       7.262   5.394  13.863  0.00  0.00    +0.000 OA
ATOM     19  N   UNL     1       7.447   6.004  16.031  0.00  0.00    +0.000 N 
ATOM     20  C   UNL     1       7.200   5.926  17.374  0.00  0.00    +0.000 C 
ATOM     21  O   UNL     1       7.757   6.684  18.163  0.00  0.00    +0.000 OA
ATOM     22  C   UNL     1       6.281   4.824  17.840  0.00  0.00    +0.000 C 
ATOM     23  H   UNL     1       8.068   6.745  15.737  0.00  0.00    +0.000 HD
ENDBRANCH  14  15
ENDBRANCH   6  14
TORSDOF 5
ENDMDL
MODEL 2
REMARK VINA RESULT:      -7.7      1.639      3.160
REMARK  Name = 
REMARK  7 active torsions:
REMARK  status: ('A' for Active; 'I' for Inactive)
REMARK    1  A    between atoms: C_1  and  C_2
REMARK    2  A    between atoms: C_6  and  C_7
REMARK    3  A    between atoms: C_7  and  C_8
REMARK    4  A    between atoms: C_17  and  C_18
REMARK    5  A    between atoms: C_18  and  C_19
REMARK    6  A    between atoms: C_18  and  C_20
REMARK    7  A    between atoms: C_20  and  O_21
REMARK                            x       y       z     vdW  Elec       q    Type
REMARK                         _______ _______ _______ _____ _____    ______ ____
ROOT
ATOM      1  C   UNL     1       0.290   3.244  19.732  0.00  0.00    +0.000 C 
ATOM      2  C   UNL     1       1.818   3.267  19.676  0.00  0.00    +0.000 C 
ATOM      3  C   UNL     1       2.323   4.453  20.451  0.00  0.00    +0.000 C 
ATOM      4  O   UNL     1       2.197   4.537  21.674  0.00  0.00    +0.000 OA
ATOM      5  C   UNL     1       2.954   5.558  19.738  0.00  0.00    +0.000 C 
ATOM      6  C   UNL     1       3.094   5.511  18.411  0.00  0.00    +0.000 C 
ATOM      7  O   UNL     1       2.735   4.449  17.623  0.00  0.00    +0.000 OA
ATOM      8  C   UNL     1       2.320   3.206  18.221  0.00  0.00    +0.000 C 
ENDROOT
BRANCH   8   9
ATOM      9  C   UNL     1       3.401   2.118  17.942  0.00  0.00    +0.000 C 
ATOM     10  C   UNL     1       4.464   2.556  16.935  0.00  0.00    +0.000 C 
BRANCH   9  11
ATOM     11  C   UNL     1       4.070   1.586  19.219  0.00  0.00    +0.000 C 
BRANCH  11  12
ATOM     12  O   UNL     1       5.197   2.380  19.563  0.00  0.00    +0.000 OA
ATOM     13  H   UNL     1       5.061   2.710  20.468  0.00  0.00    +0.000 HD
ENDBRANCH  11  12
ENDBRANCH   9  11
ENDBRANCH   8   9
BRANCH   6  14
ATOM     14  C   UNL     1       3.731   6.658  17.661  0.00  0.00    +0.000 C 
BRANCH  14  15
ATOM     15  C   UNL     1       5.188   6.398  17.220  0.00  0.00    +0.000 C 
ATOM     16  C   UNL     1       5.254   5.767  15.829  0.00  0.00    +0.000 C 
ATOM     17  C   UNL     1       6.659   5.378  15.446  0.00  0.00    +0.000 C 
ATOM     18  O   UNL     1       7.029   5.324  14.277  0.00  0.00    +0.000 OA
ATOM     19  N   UNL     1       7.495   5.010  16.465  0.00  0.00    +0.000 N 
ATOM     20  C   UNL     1       7.238   5.019  17.809  0.00  0.00    +0.000 C 
ATOM     21  O   UNL     1       8.068   4.602  18.613  0.00  0.00    +0.000 OA
ATOM     22  C   UNL     1       5.870   5.485  18.243  0.00  0.00    +0.000 C 
ATOM     23  H   UNL     1       8.414   4.690  16.192  0.00  0.00    +0.000 HD
ENDBRANCH  14  15
ENDBRANCH   6  14
TORSDOF 5
ENDMDL
MODEL 3
REMARK VINA RESULT:      -7.6      1.080      1.326
REMARK  Name = 
REMARK  7 active torsions:
REMARK  status: ('A' for Active; 'I' for Inactive)
REMARK    1  A    between atoms: C_1  and  C_2
REMARK    2  A    between atoms: C_6  and  C_7
REMARK    3  A    between atoms: C_7  and  C_8
REMARK    4  A    between atoms: C_17  and  C_18
REMARK    5  A    between atoms: C_18  and  C_19
REMARK    6  A    between atoms: C_18  and  C_20
REMARK    7  A    between atoms: C_20  and  O_21
REMARK                            x       y       z     vdW  Elec       q    Type
REMARK                         _______ _______ _______ _____ _____    ______ ____
ROOT
ATOM      1  C   UNL     1       1.097   3.251  21.102  0.00  0.00    +0.000 C 
ATOM      2  C   UNL     1       1.269   3.893  19.725  0.00  0.00    +0.000 C 
ATOM      3  C   UNL     1       1.261   2.817  18.674  0.00  0.00    +0.000 C 
ATOM      4  O   UNL     1       0.253   2.152  18.426  0.00  0.00    +0.000 OA
ATOM      5  C   UNL     1       2.488   2.522  17.942  0.00  0.00    +0.000 C 
ATOM      6  C   UNL     1       3.604   3.211  18.193  0.00  0.00    +0.000 C 
ATOM      7  O   UNL     1       3.698   4.254  19.076  0.00  0.00    +0.000 OA
ATOM      8  C   UNL     1       2.514   4.800  19.688  0.00  0.00    +0.000 C 
ENDROOT
BRANCH   8   9
ATOM      9  C   UNL     1       2.267   6.235  19.134  0.00  0.00    +0.000 C 
ATOM     10  C   UNL     1       2.056   7.285  20.225  0.00  0.00    +0.000 C 
BRANCH   9  11
ATOM     11  C   UNL     1       3.354   6.704  18.153  0.00  0.00    +0.000 C 
BRANCH  11  12
ATOM     12  O   UNL     1       3.159   8.067  17.803  0.00  0.00    +0.000 OA
ATOM     13  H   UNL     1       3.972   8.549  18.033  0.00  0.00    +0.000 HD
ENDBRANCH  11  12
ENDBRANCH   9  11
ENDBRANCH   8   9
BRANCH   6  14
ATOM     14  C   UNL     1       4.884   2.901  17.453  0.00  0.00    +0.000 C 
BRANCH  14  15
ATOM     15  C   UNL     1       5.401   4.055  16.566  0.00  0.00    +0.000 C 
ATOM     16  C   UNL     1       6.005   3.539  15.261  0.00  0.00    +0.000 C 
ATOM     17  C   UNL     1       6.641   4.641  14.452  0.00  0.00    +0.000 C 
ATOM     18  O   UNL     1       6.739   4.586  13.230  0.00  0.00    +0.000 OA
ATOM     19  N   UNL     1       7.177   5.688  15.153  0.00  0.00    +0.000 N 
ATOM     20  C   UNL     1       7.147   5.899  16.504  0.00  0.00    +0.000 C 
ATOM     21  O   UNL     1       7.725   6.860  17.006  0.00  0.00    +0.000 OA
ATOM     22  C   UNL     1       6.444   4.862  17.346  0.00  0.00    +0.000 C 
ATOM     23  H   UNL     1       7.655   6.389  14.605  0.00  0.00    +0.000 HD
ENDBRANCH  14  15
ENDBRANCH   6  14
TORSDOF 5
ENDMDL
MODEL 4
REMARK VINA RESULT:      -7.6      2.715      6.286
REMARK  Name = 
REMARK  7 active torsions:
REMARK  status: ('A' for Active; 'I' for Inactive)
REMARK    1  A    between atoms: C_1  and  C_2
REMARK    2  A    between atoms: C_6  and  C_7
REMARK    3  A    between atoms: C_7  and  C_8
REMARK    4  A    between atoms: C_17  and  C_18
REMARK    5  A    between atoms: C_18  and  C_19
REMARK    6  A    between atoms: C_18  and  C_20
REMARK    7  A    between atoms: C_20  and  O_21
REMARK                            x       y       z     vdW  Elec       q    Type
REMARK                         _______ _______ _______ _____ _____    ______ ____
ROOT
ATOM      1  C   UNL     1       5.914   5.824  14.422  0.00  0.00    +0.000 C 
ATOM      2  C   UNL     1       6.402   5.395  15.806  0.00  0.00    +0.000 C 
ATOM      3  C   UNL     1       5.646   4.168  16.238  0.00  0.00    +0.000 C 
ATOM      4  O   UNL     1       5.778   3.084  15.668  0.00  0.00    +0.000 OA
ATOM      5  C   UNL     1       4.700   4.263  17.345  0.00  0.00    +0.000 C 
ATOM      6  C   UNL     1       4.519   5.425  17.977  0.00  0.00    +0.000 C 
ATOM      7  O   UNL     1       5.207   6.578  17.710  0.00  0.00    +0.000 OA
ATOM      8  C   UNL     1       6.330   6.564  16.807  0.00  0.00    +0.000 C 
ENDROOT
BRANCH   8   9
ATOM      9  C   UNL     1       7.638   6.823  17.612  0.00  0.00    +0.000 C 
ATOM     10  C   UNL     1       7.941   8.306  17.826  0.00  0.00    +0.000 C 
BRANCH   9  11
ATOM     11  C   UNL     1       7.684   6.075  18.954  0.00  0.00    +0.000 C 
BRANCH  11  12
ATOM     12  O   UNL     1       7.985   4.701  18.752  0.00  0.00    +0.000 OA
ATOM     13  H   UNL     1       7.429   4.185  19.361  0.00  0.00    +0.000 HD
ENDBRANCH  11  12
ENDBRANCH   9  11
ENDBRANCH   8   9
BRANCH   6  14
ATOM     14  C   UNL     1       3.529   5.537  19.114  0.00  0.00    +0.000 C 
BRANCH  14  15
ATOM     15  C   UNL     1       2.810   4.215  19.464  0.00  0.00    +0.000 C 
ATOM     16  C   UNL     1       1.582   3.989  18.584  0.00  0.00    +0.000 C 
ATOM     17  C   UNL     1       0.792   2.777  19.008  0.00  0.00    +0.000 C 
ATOM     18  O   UNL     1       0.104   2.133  18.222  0.00  0.00    +0.000 OA
ATOM     19  N   UNL     1       0.816   2.463  20.341  0.00  0.00    +0.000 N 
ATOM     20  C   UNL     1       1.529   3.073  21.336  0.00  0.00    +0.000 C 
ATOM     21  O   UNL     1       1.408   2.720  22.506  0.00  0.00    +0.000 OA
ATOM     22  C   UNL     1       2.402   4.238  20.940  0.00  0.00    +0.000 C 
ATOM     23  H   UNL     1       0.233   1.688  20.624  0.00  0.00    +0.000 HD
ENDBRANCH  14  15
ENDBRANCH   6  14
TORSDOF 5
ENDMDL
MODEL 5
REMARK VINA RESULT:      -7.5      1.110      1.351
REMARK  Name = 
REMARK  7 active torsions:
REMARK  status: ('A' for Active; 'I' for Inactive)
REMARK    1  A    between atoms: C_1  and  C_2
REMARK    2  A    between atoms: C_6  and  C_7
REMARK    3  A    between atoms: C_7  and  C_8
REMARK    4  A    between atoms: C_17  and  C_18
REMARK    5  A    between atoms: C_18  and  C_19
REMARK    6  A    between atoms: C_18  and  C_20
REMARK    7  A    between atoms: C_20  and  O_21
REMARK                            x       y       z     vdW  Elec       q    Type
REMARK                         _______ _______ _______ _____ _____    ______ ____
ROOT
ATOM      1  C   UNL     1       1.798   3.271  21.570  0.00  0.00    +0.000 C 
ATOM      2  C   UNL     1       1.356   4.022  20.314  0.00  0.00    +0.000 C 
ATOM      3  C   UNL     1       0.975   3.028  19.251  0.00  0.00    +0.000 C 
ATOM      4  O   UNL     1      -0.007   2.293  19.364  0.00  0.00    +0.000 OA
ATOM      5  C   UNL     1       1.809   2.898  18.060  0.00  0.00    +0.000 C 
ATOM      6  C   UNL     1       2.891   3.666  17.909  0.00  0.00    +0.000 C 
ATOM      7  O   UNL     1       3.282   4.648  18.780  0.00  0.00    +0.000 OA
ATOM      8  C   UNL     1       2.425   5.039  19.870  0.00  0.00    +0.000 C 
ENDROOT
BRANCH   8   9
ATOM      9  C   UNL     1       1.895   6.481  19.612  0.00  0.00    +0.000 C 
ATOM     10  C   UNL     1       1.583   7.257  20.892  0.00  0.00    +0.000 C 
BRANCH   9  11
ATOM     11  C   UNL     1       2.813   7.312  18.702  0.00  0.00    +0.000 C 
BRANCH  11  12
ATOM     12  O   UNL     1       2.053   8.008  17.724  0.00  0.00    +0.000 OA
ATOM     13  H   UNL     1       1.919   7.407  16.972  0.00  0.00    +0.000 HD
ENDBRANCH  11  12
ENDBRANCH   9  11
ENDBRANCH   8   9
BRANCH   6  14
ATOM     14  C   UNL     1       3.770   3.527  16.688  0.00  0.00    +0.000 C 
BRANCH  14  15
ATOM     15  C   UNL     1       5.010   4.447  16.689  0.00  0.00    +0.000 C 
ATOM     16  C   UNL     1       5.793   4.344  15.381  0.00  0.00    +0.000 C 
ATOM     17  C   UNL     1       7.080   5.128  15.424  0.00  0.00    +0.000 C 
ATOM     18  O   UNL     1       7.602   5.588  14.413  0.00  0.00    +0.000 OA
ATOM     19  N   UNL     1       7.690   5.242  16.644  0.00  0.00    +0.000 N 
ATOM     20  C   UNL     1       7.240   4.793  17.855  0.00  0.00    +0.000 C 
ATOM     21  O   UNL     1       7.925   4.915  18.868  0.00  0.00    +0.000 OA
ATOM     22  C   UNL     1       5.911   4.078  17.872  0.00  0.00    +0.000 C 
ATOM     23  H   UNL     1       8.584   5.714  16.651  0.00  0.00    +0.000 HD
ENDBRANCH  14  15
ENDBRANCH   6  14
TORSDOF 5
ENDMDL
MODEL 6
REMARK VINA RESULT:      -7.4      1.613      2.663
REMARK  Name = 
REMARK  7 active torsions:
REMARK  status: ('A' for Active; 'I' for Inactive)
REMARK    1  A    between atoms: C_1  and  C_2
REMARK    2  A    between atoms: C_6  and  C_7
REMARK    3  A    between atoms: C_7  and  C_8
REMARK    4  A    between atoms: C_17  and  C_18
REMARK    5  A    between atoms: C_18  and  C_19
REMARK    6  A    between atoms: C_18  and  C_20
REMARK    7  A    between atoms: C_20  and  O_21
REMARK                            x       y       z     vdW  Elec       q    Type
REMARK                         _______ _______ _______ _____ _____    ______ ____
ROOT
ATOM      1  C   UNL     1       2.228   4.276  21.522  0.00  0.00    +0.000 C 
ATOM      2  C   UNL     1       1.579   5.148  20.447  0.00  0.00    +0.000 C 
ATOM      3  C   UNL     1       1.577   4.402  19.141  0.00  0.00    +0.000 C 
ATOM      4  O   UNL     1       0.900   3.387  18.968  0.00  0.00    +0.000 OA
ATOM      5  C   UNL     1       2.425   4.868  18.049  0.00  0.00    +0.000 C 
ATOM      6  C   UNL     1       3.185   5.955  18.203  0.00  0.00    +0.000 C 
ATOM      7  O   UNL     1       3.205   6.744  19.323  0.00  0.00    +0.000 OA
ATOM      8  C   UNL     1       2.247   6.535  20.378  0.00  0.00    +0.000 C 
ENDROOT
BRANCH   8   9
ATOM      9  C   UNL     1       1.264   7.742  20.424  0.00  0.00    +0.000 C 
ATOM     10  C   UNL     1       1.203   8.431  21.787  0.00  0.00    +0.000 C 
BRANCH   9  11
ATOM     11  C   UNL     1       1.523   8.780  19.320  0.00  0.00    +0.000 C 
BRANCH  11  12
ATOM     12  O   UNL     1       0.629   9.877  19.442  0.00  0.00    +0.000 OA
ATOM     13  H   UNL     1       0.407  10.178  18.545  0.00  0.00    +0.000 HD
ENDBRANCH  11  12
ENDBRANCH   9  11
ENDBRANCH   8   9
BRANCH   6  14
ATOM     14  C   UNL     1       4.080   6.435  17.084  0.00  0.00    +0.000 C 
BRANCH  14  15
ATOM     15  C   UNL     1       5.170   5.425  16.664  0.00  0.00    +0.000 C 
ATOM     16  C   UNL     1       6.392   5.496  17.579  0.00  0.00    +0.000 C 
ATOM     17  C   UNL     1       7.518   4.618  17.096  0.00  0.00    +0.000 C 
ATOM     18  O   UNL     1       8.352   4.141  17.860  0.00  0.00    +0.000 OA
ATOM     19  N   UNL     1       7.617   4.433  15.743  0.00  0.00    +0.000 N 
ATOM     20  C   UNL     1       6.773   4.889  14.768  0.00  0.00    +0.000 C 
ATOM     21  O   UNL     1       7.019   4.695  13.580  0.00  0.00    +0.000 OA
ATOM     22  C   UNL     1       5.582   5.701  15.214  0.00  0.00    +0.000 C 
ATOM     23  H   UNL     1       8.412   3.896  15.427  0.00  0.00    +0.000 HD
ENDBRANCH  14  15
ENDBRANCH   6  14
TORSDOF 5
ENDMDL
MODEL 7
REMARK VINA RESULT:      -7.3      1.781      2.404
REMARK  Name = 
REMARK  7 active torsions:
REMARK  status: ('A' for Active; 'I' for Inactive)
REMARK    1  A    between atoms: C_1  and  C_2
REMARK    2  A    between atoms: C_6  and  C_7
REMARK    3  A    between atoms: C_7  and  C_8
REMARK    4  A    between atoms: C_17  and  C_18
REMARK    5  A    between atoms: C_18  and  C_19
REMARK    6  A    between atoms: C_18  and  C_20
REMARK    7  A    between atoms: C_20  and  O_21
REMARK                            x       y       z     vdW  Elec       q    Type
REMARK                         _______ _______ _______ _____ _____    ______ ____
ROOT
ATOM      1  C   UNL     1       2.044   3.717  20.842  0.00  0.00    +0.000 C 
ATOM      2  C   UNL     1       1.885   4.703  19.685  0.00  0.00    +0.000 C 
ATOM      3  C   UNL     1       1.799   3.939  18.392  0.00  0.00    +0.000 C 
ATOM      4  O   UNL     1       0.842   3.209  18.126  0.00  0.00    +0.000 OA
ATOM      5  C   UNL     1       2.893   4.031  17.431  0.00  0.00    +0.000 C 
ATOM      6  C   UNL     1       3.954   4.799  17.691  0.00  0.00    +0.000 C 
ATOM      7  O   UNL     1       4.095   5.589  18.801  0.00  0.00    +0.000 OA
ATOM      8  C   UNL     1       2.993   5.772  19.711  0.00  0.00    +0.000 C 
ENDROOT
BRANCH   8   9
ATOM      9  C   UNL     1       2.491   7.244  19.615  0.00  0.00    +0.000 C 
ATOM     10  C   UNL     1       2.140   7.680  18.193  0.00  0.00    +0.000 C 
BRANCH   9  11
ATOM     11  C   UNL     1       1.323   7.551  20.566  0.00  0.00    +0.000 C 
BRANCH  11  12
ATOM     12  O   UNL     1       1.791   8.189  21.746  0.00  0.00    +0.000 OA
ATOM     13  H   UNL     1       2.173   9.045  21.486  0.00  0.00    +0.000 HD
ENDBRANCH  11  12
ENDBRANCH   9  11
ENDBRANCH   8   9
BRANCH   6  14
ATOM     14  C   UNL     1       5.099   4.888  16.709  0.00  0.00    +0.000 C 
BRANCH  14  15
ATOM     15  C   UNL     1       6.421   5.402  17.321  0.00  0.00    +0.000 C 
ATOM     16  C   UNL     1       6.536   5.045  18.802  0.00  0.00    +0.000 C 
ATOM     17  C   UNL     1       7.752   5.662  19.445  0.00  0.00    +0.000 C 
ATOM     18  O   UNL     1       8.307   5.158  20.417  0.00  0.00    +0.000 OA
ATOM     19  N   UNL     1       8.173   6.862  18.939  0.00  0.00    +0.000 N 
ATOM     20  C   UNL     1       7.670   7.546  17.867  0.00  0.00    +0.000 C 
ATOM     21  O   UNL     1       8.112   8.650  17.558  0.00  0.00    +0.000 OA
ATOM     22  C   UNL     1       6.505   6.921  17.139  0.00  0.00    +0.000 C 
ATOM     23  H   UNL     1       8.949   7.297  19.418  0.00  0.00    +0.000 HD
ENDBRANCH  14  15
ENDBRANCH   6  14
TORSDOF 5
ENDMDL
MODEL 8
REMARK VINA RESULT:      -7.3      2.444      6.611
REMARK  Name = 
REMARK  7 active torsions:
REMARK  status: ('A' for Active; 'I' for Inactive)
REMARK    1  A    between atoms: C_1  and  C_2
REMARK    2  A    between atoms: C_6  and  C_7
REMARK    3  A    between atoms: C_7  and  C_8
REMARK    4  A    between atoms: C_17  and  C_18
REMARK    5  A    between atoms: C_18  and  C_19
REMARK    6  A    between atoms: C_18  and  C_20
REMARK    7  A    between atoms: C_20  and  O_21
REMARK                            x       y       z     vdW  Elec       q    Type
REMARK                         _______ _______ _______ _____ _____    ______ ____
ROOT
ATOM      1  C   UNL     1       8.237   6.295  18.660  0.00  0.00    +0.000 C 
ATOM      2  C   UNL     1       7.329   6.209  17.433  0.00  0.00    +0.000 C 
ATOM      3  C   UNL     1       6.436   7.418  17.393  0.00  0.00    +0.000 C 
ATOM      4  O   UNL     1       6.877   8.552  17.198  0.00  0.00    +0.000 OA
ATOM      5  C   UNL     1       5.004   7.259  17.625  0.00  0.00    +0.000 C 
ATOM      6  C   UNL     1       4.490   6.048  17.856  0.00  0.00    +0.000 C 
ATOM      7  O   UNL     1       5.204   4.879  17.841  0.00  0.00    +0.000 OA
ATOM      8  C   UNL     1       6.573   4.867  17.395  0.00  0.00    +0.000 C 
ENDROOT
BRANCH   8   9
ATOM      9  C   UNL     1       6.665   4.097  16.043  0.00  0.00    +0.000 C 
ATOM     10  C   UNL     1       5.348   3.446  15.620  0.00  0.00    +0.000 C 
BRANCH   9  11
ATOM     11  C   UNL     1       7.226   4.951  14.895  0.00  0.00    +0.000 C 
BRANCH  11  12
ATOM     12  O   UNL     1       6.770   4.465  13.640  0.00  0.00    +0.000 OA
ATOM     13  H   UNL     1       6.444   3.558  13.776  0.00  0.00    +0.000 HD
ENDBRANCH  11  12
ENDBRANCH   9  11
ENDBRANCH   8   9
BRANCH   6  14
ATOM     14  C   UNL     1       3.011   5.875  18.114  0.00  0.00    +0.000 C 
BRANCH  14  15
ATOM     15  C   UNL     1       2.635   4.533  18.779  0.00  0.00    +0.000 C 
ATOM     16  C   UNL     1       1.326   3.973  18.225  0.00  0.00    +0.000 C 
ATOM     17  C   UNL     1       0.874   2.739  18.964  0.00  0.00    +0.000 C 
ATOM     18  O   UNL     1       0.182   1.874  18.436  0.00  0.00    +0.000 OA
ATOM     19  N   UNL     1       1.212   2.658  20.288  0.00  0.00    +0.000 N 
ATOM     20  C   UNL     1       1.975   3.528  21.017  0.00  0.00    +0.000 C 
ATOM     21  O   UNL     1       2.149   3.359  22.221  0.00  0.00    +0.000 OA
ATOM     22  C   UNL     1       2.521   4.735  20.294  0.00  0.00    +0.000 C 
ATOM     23  H   UNL     1       0.851   1.858  20.789  0.00  0.00    +0.000 HD
ENDBRANCH  14  15
ENDBRANCH   6  14
TORSDOF 5
ENDMDL
MODEL 9
REMARK VINA RESULT:      -7.3      1.948      2.654
REMARK  Name = 
REMARK  7 active torsions:
REMARK  status: ('A' for Active; 'I' for Inactive)
REMARK    1  A    between atoms: C_1  and  C_2
REMARK    2  A    between atoms: C_6  and  C_7
REMARK    3  A    between atoms: C_7  and  C_8
REMARK    4  A    between atoms: C_17  and  C_18
REMARK    5  A    between atoms: C_18  and  C_19
REMARK    6  A    between atoms: C_18  and  C_20
REMARK    7  A    between atoms: C_20  and  O_21
REMARK                            x       y       z     vdW  Elec       q    Type
REMARK                         _______ _______ _______ _____ _____    ______ ____
ROOT
ATOM      1  C   UNL     1       2.194   4.191  21.330  0.00  0.00    +0.000 C 
ATOM      2  C   UNL     1       1.805   4.826  19.994  0.00  0.00    +0.000 C 
ATOM      3  C   UNL     1       1.839   3.774  18.919  0.00  0.00    +0.000 C 
ATOM      4  O   UNL     1       1.043   2.834  18.898  0.00  0.00    +0.000 OA
ATOM      5  C   UNL     1       2.864   3.843  17.883  0.00  0.00    +0.000 C 
ATOM      6  C   UNL     1       3.754   4.838  17.881  0.00  0.00    +0.000 C 
ATOM      7  O   UNL     1       3.764   5.881  18.769  0.00  0.00    +0.000 OA
ATOM      8  C   UNL     1       2.674   6.062  19.693  0.00  0.00    +0.000 C 
ENDROOT
BRANCH   8   9
ATOM      9  C   UNL     1       1.881   7.346  19.304  0.00  0.00    +0.000 C 
ATOM     10  C   UNL     1       1.531   8.234  20.498  0.00  0.00    +0.000 C 
BRANCH   9  11
ATOM     11  C   UNL     1       2.570   8.178  18.211  0.00  0.00    +0.000 C 
BRANCH  11  12
ATOM     12  O   UNL     1       1.630   9.013  17.550  0.00  0.00    +0.000 OA
ATOM     13  H   UNL     1       2.119   9.560  16.911  0.00  0.00    +0.000 HD
ENDBRANCH  11  12
ENDBRANCH   9  11
ENDBRANCH   8   9
BRANCH   6  14
ATOM     14  C   UNL     1       4.829   4.909  16.821  0.00  0.00    +0.000 C 
BRANCH  14  15
ATOM     15  C   UNL     1       6.208   5.367  17.345  0.00  0.00    +0.000 C 
ATOM     16  C   UNL     1       6.360   5.106  18.843  0.00  0.00    +0.000 C 
ATOM     17  C   UNL     1       7.641   5.677  19.394  0.00  0.00    +0.000 C 
ATOM     18  O   UNL     1       8.201   5.204  20.379  0.00  0.00    +0.000 OA
ATOM     19  N   UNL     1       8.123   6.806  18.788  0.00  0.00    +0.000 N 
ATOM     20  C   UNL     1       7.623   7.448  17.688  0.00  0.00    +0.000 C 
ATOM     21  O   UNL     1       8.127   8.493  17.284  0.00  0.00    +0.000 OA
ATOM     22  C   UNL     1       6.389   6.860  17.050  0.00  0.00    +0.000 C 
ATOM     23  H   UNL     1       8.947   7.216  19.204  0.00  0.00    +0.000 HD
ENDBRANCH  14  15
ENDBRANCH   6  14
TORSDOF 5
ENDMDL
