MODEL 1
REMARK VINA RESULT:      -7.4      0.000      0.000
REMARK  Name = 
REMARK  5 active torsions:
REMARK  status: ('A' for Active; 'I' for Inactive)
REMARK    1  A    between atoms: C_1  and  C_2
REMARK    2  A    between atoms: N_7  and  N_8
REMARK    3  A    between atoms: C_9  and  C_10
REMARK    4  A    between atoms: C_13  and  N_14
REMARK    5  A    between atoms: C_20  and  C_21
REMARK                            x       y       z     vdW  Elec       q    Type
REMARK                         _______ _______ _______ _____ _____    ______ ____
ROOT
ATOM      1  C   UNL     1       1.141   8.059  21.125  0.00  0.00    +0.000 C 
ATOM      2  C   UNL     1       1.863   7.161  20.157  0.00  0.00    +0.000 A 
ATOM      3  C   UNL     1       2.185   5.850  20.555  0.00  0.00    +0.000 A 
ATOM      4  C   UNL     1       2.843   4.987  19.666  0.00  0.00    +0.000 A 
ATOM      5  N   UNL     1       3.218   3.684  19.860  0.00  0.00    +0.000 NA
ATOM      6  C   UNL     1       3.742   3.321  18.714  0.00  0.00    +0.000 A 
ATOM      7  N   UNL     1       3.778   4.339  17.785  0.00  0.00    +0.000 N 
ATOM      8  C   UNL     1       3.171   5.434  18.386  0.00  0.00    +0.000 A 
ATOM      9  C   UNL     1       2.839   6.728  17.955  0.00  0.00    +0.000 A 
ATOM     10  C   UNL     1       2.207   7.601  18.864  0.00  0.00    +0.000 A 
ATOM     11  C   UNL     1       1.904   9.009  18.419  0.00  0.00    +0.000 C 
ENDROOT
BRANCH   7  12
ATOM     12  N   UNL     1       4.251   4.153  16.518  0.00  0.00    +0.000 NA
ATOM     13  C   UNL     1       5.471   4.507  16.299  0.00  0.00    +0.000 C 
BRANCH  13  14
ATOM     14  C   UNL     1       6.022   4.410  14.974  0.00  0.00    +0.000 A 
ATOM     15  C   UNL     1       5.817   3.508  13.943  0.00  0.00    +0.000 A 
ATOM     16  C   UNL     1       6.649   3.912  12.867  0.00  0.00    +0.000 A 
ATOM     17  C   UNL     1       7.298   5.037  13.315  0.00  0.00    +0.000 A 
ATOM     18  O   UNL     1       6.931   5.357  14.585  0.00  0.00    +0.000 OA
BRANCH  17  19
ATOM     19  N   UNL     1       8.263   5.890  12.695  0.00  0.00    +0.000 N 
ATOM     20  O   UNL     1       9.330   6.045  13.304  0.00  0.00    +0.000 OA
ATOM     21  O   UNL     1       7.965   6.404  11.609  0.00  0.00    +0.000 OA
ENDBRANCH  17  19
ENDBRANCH  13  14
ENDBRANCH   7  12
TORSDOF 3
ENDMDL
MODEL 2
REMARK VINA RESULT:      -7.4      2.718      3.427
REMARK  Name = 
REMARK  5 active torsions:
REMARK  status: ('A' for Active; 'I' for Inactive)
REMARK    1  A    between atoms: C_1  and  C_2
REMARK    2  A    between atoms: N_7  and  N_8
REMARK    3  A    between atoms: C_9  and  C_10
REMARK    4  A    between atoms: C_13  and  N_14
REMARK    5  A    between atoms: C_20  and  C_21
REMARK                            x       y       z     vdW  Elec       q    Type
REMARK                         _______ _______ _______ _____ _____    ______ ____
ROOT
ATOM      1  C   UNL     1       1.281   3.048  21.603  0.00  0.00    +0.000 C 
ATOM      2  C   UNL     1       2.095   3.468  20.408  0.00  0.00    +0.000 A 
ATOM      3  C   UNL     1       3.191   4.330  20.599  0.00  0.00    +0.000 A 
ATOM      4  C   UNL     1       3.975   4.723  19.504  0.00  0.00    +0.000 A 
ATOM      5  N   UNL     1       5.081   5.530  19.491  0.00  0.00    +0.000 NA
ATOM      6  C   UNL     1       5.468   5.535  18.238  0.00  0.00    +0.000 A 
ATOM      7  N   UNL     1       4.638   4.809  17.410  0.00  0.00    +0.000 N 
ATOM      8  C   UNL     1       3.665   4.250  18.228  0.00  0.00    +0.000 A 
ATOM      9  C   UNL     1       2.594   3.369  18.014  0.00  0.00    +0.000 A 
ATOM     10  C   UNL     1       1.789   3.004  19.114  0.00  0.00    +0.000 A 
ATOM     11  C   UNL     1       0.604   2.105  18.872  0.00  0.00    +0.000 C 
ENDROOT
BRANCH   7  12
ATOM     12  N   UNL     1       4.889   4.659  16.076  0.00  0.00    +0.000 NA
ATOM     13  C   UNL     1       6.092   4.328  15.749  0.00  0.00    +0.000 C 
BRANCH  13  14
ATOM     14  C   UNL     1       6.455   4.219  14.362  0.00  0.00    +0.000 A 
ATOM     15  C   UNL     1       7.303   4.963  13.558  0.00  0.00    +0.000 A 
ATOM     16  C   UNL     1       7.254   4.389  12.261  0.00  0.00    +0.000 A 
ATOM     17  C   UNL     1       6.386   3.330  12.367  0.00  0.00    +0.000 A 
ATOM     18  O   UNL     1       5.894   3.207  13.629  0.00  0.00    +0.000 OA
BRANCH  17  19
ATOM     19  N   UNL     1       5.926   2.377  11.406  0.00  0.00    +0.000 N 
ATOM     20  O   UNL     1       4.727   2.439  11.102  0.00  0.00    +0.000 OA
ATOM     21  O   UNL     1       6.748   1.570  10.955  0.00  0.00    +0.000 OA
ENDBRANCH  17  19
ENDBRANCH  13  14
ENDBRANCH   7  12
TORSDOF 3
ENDMDL
MODEL 3
REMARK VINA RESULT:      -7.4      1.923      2.106
REMARK  Name = 
REMARK  5 active torsions:
REMARK  status: ('A' for Active; 'I' for Inactive)
REMARK    1  A    between atoms: C_1  and  C_2
REMARK    2  A    between atoms: N_7  and  N_8
REMARK    3  A    between atoms: C_9  and  C_10
REMARK    4  A    between atoms: C_13  and  N_14
REMARK    5  A    between atoms: C_20  and  C_21
REMARK                            x       y       z     vdW  Elec       q    Type
REMARK                         _______ _______ _______ _____ _____    ______ ____
ROOT
ATOM      1  C   UNL     1       1.170   7.902  20.868  0.00  0.00    +0.000 C 
ATOM      2  C   UNL     1       1.975   6.926  20.052  0.00  0.00    +0.000 A 
ATOM      3  C   UNL     1       2.236   5.648  20.581  0.00  0.00    +0.000 A 
ATOM      4  C   UNL     1       2.970   4.716  19.834  0.00  0.00    +0.000 A 
ATOM      5  N   UNL     1       3.306   3.430  20.165  0.00  0.00    +0.000 NA
ATOM      6  C   UNL     1       3.939   2.975  19.111  0.00  0.00    +0.000 A 
ATOM      7  N   UNL     1       4.085   3.917  18.115  0.00  0.00    +0.000 N 
ATOM      8  C   UNL     1       3.434   5.059  18.564  0.00  0.00    +0.000 A 
ATOM      9  C   UNL     1       3.166   6.317  18.002  0.00  0.00    +0.000 A 
ATOM     10  C   UNL     1       2.456   7.262  18.771  0.00  0.00    +0.000 A 
ATOM     11  C   UNL     1       2.220   8.633  18.190  0.00  0.00    +0.000 C 
ENDROOT
BRANCH   7  12
ATOM     12  N   UNL     1       4.682   3.630  16.922  0.00  0.00    +0.000 NA
ATOM     13  C   UNL     1       5.140   4.631  16.249  0.00  0.00    +0.000 C 
BRANCH  13  14
ATOM     14  C   UNL     1       5.719   4.420  14.950  0.00  0.00    +0.000 A 
ATOM     15  C   UNL     1       6.920   4.821  14.388  0.00  0.00    +0.000 A 
ATOM     16  C   UNL     1       6.942   4.323  13.060  0.00  0.00    +0.000 A 
ATOM     17  C   UNL     1       5.756   3.647  12.907  0.00  0.00    +0.000 A 
ATOM     18  O   UNL     1       5.003   3.691  14.039  0.00  0.00    +0.000 OA
BRANCH  17  19
ATOM     19  N   UNL     1       5.200   2.940  11.797  0.00  0.00    +0.000 N 
ATOM     20  O   UNL     1       5.806   1.922  11.436  0.00  0.00    +0.000 OA
ATOM     21  O   UNL     1       4.167   3.390  11.285  0.00  0.00    +0.000 OA
ENDBRANCH  17  19
ENDBRANCH  13  14
ENDBRANCH   7  12
TORSDOF 3
ENDMDL
MODEL 4
REMARK VINA RESULT:      -7.2      4.839      5.916
REMARK  Name = 
REMARK  5 active torsions:
REMARK  status: ('A' for Active; 'I' for Inactive)
REMARK    1  A    between atoms: C_1  and  C_2
REMARK    2  A    between atoms: N_7  and  N_8
REMARK    3  A    between atoms: C_9  and  C_10
REMARK    4  A    between atoms: C_13  and  N_14
REMARK    5  A    between atoms: C_20  and  C_21
REMARK                            x       y       z     vdW  Elec       q    Type
REMARK                         _______ _______ _______ _____ _____    ______ ____
ROOT
ATOM      1  C   UNL     1       2.174   3.028  18.002  0.00  0.00    +0.000 C 
ATOM      2  C   UNL     1       3.305   3.994  17.766  0.00  0.00    +0.000 A 
ATOM      3  C   UNL     1       4.321   3.643  16.857  0.00  0.00    +0.000 A 
ATOM      4  C   UNL     1       5.377   4.532  16.607  0.00  0.00    +0.000 A 
ATOM      5  N   UNL     1       6.436   4.381  15.751  0.00  0.00    +0.000 NA
ATOM      6  C   UNL     1       7.097   5.510  15.848  0.00  0.00    +0.000 A 
ATOM      7  N   UNL     1       6.554   6.382  16.766  0.00  0.00    +0.000 N 
ATOM      8  C   UNL     1       5.410   5.766  17.257  0.00  0.00    +0.000 A 
ATOM      9  C   UNL     1       4.396   6.151  18.148  0.00  0.00    +0.000 A 
ATOM     10  C   UNL     1       3.355   5.240  18.421  0.00  0.00    +0.000 A 
ATOM     11  C   UNL     1       2.299   5.631  19.423  0.00  0.00    +0.000 C 
ENDROOT
BRANCH   7  12
ATOM     12  N   UNL     1       7.073   7.625  16.986  0.00  0.00    +0.000 NA
ATOM     13  C   UNL     1       7.894   7.742  17.975  0.00  0.00    +0.000 C 
BRANCH  13  14
ATOM     14  C   UNL     1       8.429   9.032  18.316  0.00  0.00    +0.000 A 
ATOM     15  C   UNL     1       9.310   9.446  19.301  0.00  0.00    +0.000 A 
ATOM     16  C   UNL     1       9.462  10.850  19.159  0.00  0.00    +0.000 A 
ATOM     17  C   UNL     1       8.668  11.193  18.092  0.00  0.00    +0.000 A 
ATOM     18  O   UNL     1       8.036  10.108  17.566  0.00  0.00    +0.000 OA
BRANCH  17  19
ATOM     19  N   UNL     1       8.398  12.452  17.472  0.00  0.00    +0.000 N 
ATOM     20  O   UNL     1       9.225  13.351  17.676  0.00  0.00    +0.000 OA
ATOM     21  O   UNL     1       7.373  12.549  16.786  0.00  0.00    +0.000 OA
ENDBRANCH  17  19
ENDBRANCH  13  14
ENDBRANCH   7  12
TORSDOF 3
ENDMDL
MODEL 5
REMARK VINA RESULT:      -7.1      4.273      7.944
REMARK  Name = 
REMARK  5 active torsions:
REMARK  status: ('A' for Active; 'I' for Inactive)
REMARK    1  A    between atoms: C_1  and  C_2
REMARK    2  A    between atoms: N_7  and  N_8
REMARK    3  A    between atoms: C_9  and  C_10
REMARK    4  A    between atoms: C_13  and  N_14
REMARK    5  A    between atoms: C_20  and  C_21
REMARK                            x       y       z     vdW  Elec       q    Type
REMARK                         _______ _______ _______ _____ _____    ______ ____
ROOT
ATOM      1  C   UNL     1       7.472   4.167  11.007  0.00  0.00    +0.000 C 
ATOM      2  C   UNL     1       6.890   4.258  12.393  0.00  0.00    +0.000 A 
ATOM      3  C   UNL     1       7.591   4.979  13.378  0.00  0.00    +0.000 A 
ATOM      4  C   UNL     1       7.063   5.093  14.673  0.00  0.00    +0.000 A 
ATOM      5  N   UNL     1       7.580   5.762  15.750  0.00  0.00    +0.000 NA
ATOM      6  C   UNL     1       6.682   5.607  16.694  0.00  0.00    +0.000 A 
ATOM      7  N   UNL     1       5.617   4.821  16.307  0.00  0.00    +0.000 N 
ATOM      8  C   UNL     1       5.839   4.495  14.975  0.00  0.00    +0.000 A 
ATOM      9  C   UNL     1       5.108   3.792  14.004  0.00  0.00    +0.000 A 
ATOM     10  C   UNL     1       5.660   3.653  12.714  0.00  0.00    +0.000 A 
ATOM     11  C   UNL     1       4.902   2.848  11.689  0.00  0.00    +0.000 C 
ENDROOT
BRANCH   7  12
ATOM     12  N   UNL     1       4.558   4.571  17.131  0.00  0.00    +0.000 NA
ATOM     13  C   UNL     1       4.391   3.346  17.501  0.00  0.00    +0.000 C 
BRANCH  13  14
ATOM     14  C   UNL     1       3.258   2.988  18.311  0.00  0.00    +0.000 A 
ATOM     15  C   UNL     1       2.075   2.328  18.023  0.00  0.00    +0.000 A 
ATOM     16  C   UNL     1       1.327   2.273  19.227  0.00  0.00    +0.000 A 
ATOM     17  C   UNL     1       2.109   2.898  20.168  0.00  0.00    +0.000 A 
ATOM     18  O   UNL     1       3.283   3.335  19.636  0.00  0.00    +0.000 OA
BRANCH  17  19
ATOM     19  N   UNL     1       1.900   3.161  21.557  0.00  0.00    +0.000 N 
ATOM     20  O   UNL     1       1.381   2.250  22.216  0.00  0.00    +0.000 OA
ATOM     21  O   UNL     1       2.248   4.266  21.993  0.00  0.00    +0.000 OA
ENDBRANCH  17  19
ENDBRANCH  13  14
ENDBRANCH   7  12
TORSDOF 3
ENDMDL
MODEL 6
REMARK VINA RESULT:      -7.0      3.511      7.960
REMARK  Name = 
REMARK  5 active torsions:
REMARK  status: ('A' for Active; 'I' for Inactive)
REMARK    1  A    between atoms: C_1  and  C_2
REMARK    2  A    between atoms: N_7  and  N_8
REMARK    3  A    between atoms: C_9  and  C_10
REMARK    4  A    between atoms: C_13  and  N_14
REMARK    5  A    between atoms: C_20  and  C_21
REMARK                            x       y       z     vdW  Elec       q    Type
REMARK                         _______ _______ _______ _____ _____    ______ ____
ROOT
ATOM      1  C   UNL     1       7.347   4.304  11.107  0.00  0.00    +0.000 C 
ATOM      2  C   UNL     1       6.863   4.392  12.530  0.00  0.00    +0.000 A 
ATOM      3  C   UNL     1       7.613   5.138  13.459  0.00  0.00    +0.000 A 
ATOM      4  C   UNL     1       7.175   5.249  14.787  0.00  0.00    +0.000 A 
ATOM      5  N   UNL     1       7.749   5.940  15.821  0.00  0.00    +0.000 NA
ATOM      6  C   UNL     1       6.924   5.769  16.827  0.00  0.00    +0.000 A 
ATOM      7  N   UNL     1       5.856   4.953  16.521  0.00  0.00    +0.000 N 
ATOM      8  C   UNL     1       5.992   4.621  15.179  0.00  0.00    +0.000 A 
ATOM      9  C   UNL     1       5.213   3.893  14.267  0.00  0.00    +0.000 A 
ATOM     10  C   UNL     1       5.675   3.757  12.942  0.00  0.00    +0.000 A 
ATOM     11  C   UNL     1       4.868   2.925  11.978  0.00  0.00    +0.000 C 
ENDROOT
BRANCH   7  12
ATOM     12  N   UNL     1       4.865   4.682  17.421  0.00  0.00    +0.000 NA
ATOM     13  C   UNL     1       4.343   5.694  18.027  0.00  0.00    +0.000 C 
BRANCH  13  14
ATOM     14  C   UNL     1       3.343   5.487  19.040  0.00  0.00    +0.000 A 
ATOM     15  C   UNL     1       2.417   6.336  19.623  0.00  0.00    +0.000 A 
ATOM     16  C   UNL     1       1.699   5.571  20.578  0.00  0.00    +0.000 A 
ATOM     17  C   UNL     1       2.232   4.307  20.505  0.00  0.00    +0.000 A 
ATOM     18  O   UNL     1       3.226   4.234  19.579  0.00  0.00    +0.000 OA
BRANCH  17  19
ATOM     19  N   UNL     1       1.934   3.105  21.218  0.00  0.00    +0.000 N 
ATOM     20  O   UNL     1       1.318   2.233  20.590  0.00  0.00    +0.000 OA
ATOM     21  O   UNL     1       2.307   3.025  22.395  0.00  0.00    +0.000 OA
ENDBRANCH  17  19
ENDBRANCH  13  14
ENDBRANCH   7  12
TORSDOF 3
ENDMDL
MODEL 7
REMARK VINA RESULT:      -7.0      4.877      7.862
REMARK  Name = 
REMARK  5 active torsions:
REMARK  status: ('A' for Active; 'I' for Inactive)
REMARK    1  A    between atoms: C_1  and  C_2
REMARK    2  A    between atoms: N_7  and  N_8
REMARK    3  A    between atoms: C_9  and  C_10
REMARK    4  A    between atoms: C_13  and  N_14
REMARK    5  A    between atoms: C_20  and  C_21
REMARK                            x       y       z     vdW  Elec       q    Type
REMARK                         _______ _______ _______ _____ _____    ______ ____
ROOT
ATOM      1  C   UNL     1       3.580   1.431  18.381  0.00  0.00    +0.000 C 
ATOM      2  C   UNL     1       3.309   2.907  18.261  0.00  0.00    +0.000 A 
ATOM      3  C   UNL     1       4.376   3.771  17.948  0.00  0.00    +0.000 A 
ATOM      4  C   UNL     1       4.147   5.149  17.814  0.00  0.00    +0.000 A 
ATOM      5  N   UNL     1       5.041   6.136  17.496  0.00  0.00    +0.000 NA
ATOM      6  C   UNL     1       4.317   7.229  17.445  0.00  0.00    +0.000 A 
ATOM      7  N   UNL     1       2.993   7.020  17.765  0.00  0.00    +0.000 N 
ATOM      8  C   UNL     1       2.858   5.655  17.987  0.00  0.00    +0.000 A 
ATOM      9  C   UNL     1       1.773   4.813  18.275  0.00  0.00    +0.000 A 
ATOM     10  C   UNL     1       2.015   3.433  18.441  0.00  0.00    +0.000 A 
ATOM     11  C   UNL     1       0.859   2.538  18.808  0.00  0.00    +0.000 C 
ENDROOT
BRANCH   7  12
ATOM     12  N   UNL     1       2.068   8.023  17.733  0.00  0.00    +0.000 NA
ATOM     13  C   UNL     1       1.860   8.653  18.840  0.00  0.00    +0.000 C 
BRANCH  13  14
ATOM     14  C   UNL     1       0.851   9.675  18.906  0.00  0.00    +0.000 A 
ATOM     15  C   UNL     1       0.649  10.731  19.780  0.00  0.00    +0.000 A 
ATOM     16  C   UNL     1      -0.526  11.403  19.353  0.00  0.00    +0.000 A 
ATOM     17  C   UNL     1      -0.954  10.714  18.244  0.00  0.00    +0.000 A 
ATOM     18  O   UNL     1      -0.134   9.667  17.955  0.00  0.00    +0.000 OA
BRANCH  17  19
ATOM     19  N   UNL     1      -2.078  10.902  17.382  0.00  0.00    +0.000 N 
ATOM     20  O   UNL     1      -2.886  11.778  17.717  0.00  0.00    +0.000 OA
ATOM     21  O   UNL     1      -2.160  10.184  16.377  0.00  0.00    +0.000 OA
ENDBRANCH  17  19
ENDBRANCH  13  14
ENDBRANCH   7  12
TORSDOF 3
ENDMDL
MODEL 8
REMARK VINA RESULT:      -6.9      5.274      6.316
REMARK  Name = 
REMARK  5 active torsions:
REMARK  status: ('A' for Active; 'I' for Inactive)
REMARK    1  A    between atoms: C_1  and  C_2
REMARK    2  A    between atoms: N_7  and  N_8
REMARK    3  A    between atoms: C_9  and  C_10
REMARK    4  A    between atoms: C_13  and  N_14
REMARK    5  A    between atoms: C_20  and  C_21
REMARK                            x       y       z     vdW  Elec       q    Type
REMARK                         _______ _______ _______ _____ _____    ______ ____
ROOT
ATOM      1  C   UNL     1       2.118   2.991  18.078  0.00  0.00    +0.000 C 
ATOM      2  C   UNL     1       3.232   3.983  17.872  0.00  0.00    +0.000 A 
ATOM      3  C   UNL     1       4.365   3.590  17.136  0.00  0.00    +0.000 A 
ATOM      4  C   UNL     1       5.410   4.500  16.916  0.00  0.00    +0.000 A 
ATOM      5  N   UNL     1       6.572   4.313  16.215  0.00  0.00    +0.000 NA
ATOM      6  C   UNL     1       7.173   5.478  16.263  0.00  0.00    +0.000 A 
ATOM      7  N   UNL     1       6.488   6.414  17.008  0.00  0.00    +0.000 N 
ATOM      8  C   UNL     1       5.316   5.796  17.424  0.00  0.00    +0.000 A 
ATOM      9  C   UNL     1       4.185   6.221  18.140  0.00  0.00    +0.000 A 
ATOM     10  C   UNL     1       3.154   5.292  18.386  0.00  0.00    +0.000 A 
ATOM     11  C   UNL     1       1.967   5.733  19.205  0.00  0.00    +0.000 C 
ENDROOT
BRANCH   7  12
ATOM     12  N   UNL     1       6.929   7.698  17.148  0.00  0.00    +0.000 NA
ATOM     13  C   UNL     1       7.928   7.882  17.943  0.00  0.00    +0.000 C 
BRANCH  13  14
ATOM     14  C   UNL     1       8.406   9.214  18.200  0.00  0.00    +0.000 A 
ATOM     15  C   UNL     1       8.463  10.353  17.414  0.00  0.00    +0.000 A 
ATOM     16  C   UNL     1       9.050  11.374  18.205  0.00  0.00    +0.000 A 
ATOM     17  C   UNL     1       9.304  10.788  19.421  0.00  0.00    +0.000 A 
ATOM     18  O   UNL     1       8.919   9.483  19.440  0.00  0.00    +0.000 OA
BRANCH  17  19
ATOM     19  N   UNL     1       9.889  11.300  20.620  0.00  0.00    +0.000 N 
ATOM     20  O   UNL     1       9.192  11.234  21.642  0.00  0.00    +0.000 OA
ATOM     21  O   UNL     1      11.034  11.765  20.550  0.00  0.00    +0.000 OA
ENDBRANCH  17  19
ENDBRANCH  13  14
ENDBRANCH   7  12
TORSDOF 3
ENDMDL
MODEL 9
REMARK VINA RESULT:      -6.8      5.666      9.044
REMARK  Name = 
REMARK  5 active torsions:
REMARK  status: ('A' for Active; 'I' for Inactive)
REMARK    1  A    between atoms: C_1  and  C_2
REMARK    2  A    between atoms: N_7  and  N_8
REMARK    3  A    between atoms: C_9  and  C_10
REMARK    4  A    between atoms: C_13  and  N_14
REMARK    5  A    between atoms: C_20  and  C_21
REMARK                            x       y       z     vdW  Elec       q    Type
REMARK                         _______ _______ _______ _____ _____    ______ ____
ROOT
ATOM      1  C   UNL     1       3.782   2.102  19.455  0.00  0.00    +0.000 C 
ATOM      2  C   UNL     1       3.314   3.532  19.508  0.00  0.00    +0.000 A 
ATOM      3  C   UNL     1       3.795   4.442  18.546  0.00  0.00    +0.000 A 
ATOM      4  C   UNL     1       3.363   5.776  18.564  0.00  0.00    +0.000 A 
ATOM      5  N   UNL     1       3.697   6.793  17.710  0.00  0.00    +0.000 NA
ATOM      6  C   UNL     1       2.985   7.814  18.124  0.00  0.00    +0.000 A 
ATOM      7  N   UNL     1       2.233   7.535  19.245  0.00  0.00    +0.000 N 
ATOM      8  C   UNL     1       2.451   6.194  19.534  0.00  0.00    +0.000 A 
ATOM      9  C   UNL     1       1.936   5.301  20.488  0.00  0.00    +0.000 A 
ATOM     10  C   UNL     1       2.400   3.970  20.486  0.00  0.00    +0.000 A 
ATOM     11  C   UNL     1       1.891   3.028  21.547  0.00  0.00    +0.000 C 
ENDROOT
BRANCH   7  12
ATOM     12  N   UNL     1       1.395   8.453  19.808  0.00  0.00    +0.000 NA
ATOM     13  C   UNL     1       1.341   8.472  21.097  0.00  0.00    +0.000 C 
BRANCH  13  14
ATOM     14  C   UNL     1       0.430   9.362  21.766  0.00  0.00    +0.000 A 
ATOM     15  C   UNL     1       0.023   9.461  23.086  0.00  0.00    +0.000 A 
ATOM     16  C   UNL     1      -0.907  10.531  23.153  0.00  0.00    +0.000 A 
ATOM     17  C   UNL     1      -0.996  11.014  21.870  0.00  0.00    +0.000 A 
ATOM     18  O   UNL     1      -0.194  10.323  21.016  0.00  0.00    +0.000 OA
BRANCH  17  19
ATOM     19  N   UNL     1      -1.768  12.075  21.304  0.00  0.00    +0.000 N 
ATOM     20  O   UNL     1      -2.621  12.587  22.042  0.00  0.00    +0.000 OA
ATOM     21  O   UNL     1      -1.530  12.400  20.134  0.00  0.00    +0.000 OA
ENDBRANCH  17  19
ENDBRANCH  13  14
ENDBRANCH   7  12
TORSDOF 3
ENDMDL
