MODEL 1
REMARK VINA RESULT:      -8.1      0.000      0.000
REMARK  Name = 
REMARK  4 active torsions:
REMARK  status: ('A' for Active; 'I' for Inactive)
REMARK    1  A    between atoms: C_1  and  C_2
REMARK    2  A    between atoms: C_4  and  C_5
REMARK    3  A    between atoms: C_10  and  C_11
REMARK    4  A    between atoms: C_18  and  C_19
REMARK                            x       y       z     vdW  Elec       q    Type
REMARK                         _______ _______ _______ _____ _____    ______ ____
ROOT
ATOM      1  C   UNL     1       2.726   4.934  18.494  0.00  0.00    +0.000 A 
ATOM      2  C   UNL     1       1.624   4.048  18.429  0.00  0.00    +0.000 A 
ATOM      3  C   UNL     1       1.778   2.712  18.067  0.00  0.00    +0.000 A 
ATOM      4  C   UNL     1       3.039   2.231  17.756  0.00  0.00    +0.000 A 
ATOM      5  C   UNL     1       4.138   3.091  17.798  0.00  0.00    +0.000 A 
ATOM      6  C   UNL     1       4.029   4.456  18.166  0.00  0.00    +0.000 A 
ENDROOT
BRANCH   1  10
ATOM      7  C   UNL     1       1.564   9.708  18.283  0.00  0.00    +0.000 C 
ATOM      8  C   UNL     1       1.922   8.419  18.910  0.00  0.00    +0.000 A 
ATOM      9  N   UNL     1       2.422   7.394  18.149  0.00  0.00    +0.000 NA
ATOM     10  C   UNL     1       2.455   6.321  18.914  0.00  0.00    +0.000 A 
ATOM     11  N   UNL     1       2.134   6.682  20.207  0.00  0.00    +0.000 N 
ATOM     12  C   UNL     1       1.787   8.011  20.222  0.00  0.00    +0.000 A 
ATOM     13  C   UNL     1       1.329   8.725  21.433  0.00  0.00    +0.000 C 
ATOM     14  H   UNL     1       2.082   6.045  20.991  0.00  0.00    +0.000 HD
ENDBRANCH   1  10
BRANCH   6  15
ATOM     15  C   UNL     1       5.282   5.277  18.176  0.00  0.00    +0.000 A 
ATOM     16  C   UNL     1       6.239   5.189  19.201  0.00  0.00    +0.000 A 
ATOM     17  C   UNL     1       7.443   5.902  19.155  0.00  0.00    +0.000 A 
ATOM     18  C   UNL     1       7.687   6.791  18.117  0.00  0.00    +0.000 A 
ATOM     19  C   UNL     1       6.731   6.958  17.122  0.00  0.00    +0.000 A 
ATOM     20  C   UNL     1       5.554   6.200  17.144  0.00  0.00    +0.000 A 
ENDBRANCH   6  15
TORSDOF 2
ENDMDL
MODEL 2
REMARK VINA RESULT:      -8.1      0.099      1.103
REMARK  Name = 
REMARK  4 active torsions:
REMARK  status: ('A' for Active; 'I' for Inactive)
REMARK    1  A    between atoms: C_1  and  C_2
REMARK    2  A    between atoms: C_4  and  C_5
REMARK    3  A    between atoms: C_10  and  C_11
REMARK    4  A    between atoms: C_18  and  C_19
REMARK                            x       y       z     vdW  Elec       q    Type
REMARK                         _______ _______ _______ _____ _____    ______ ____
ROOT
ATOM      1  C   UNL     1       2.687   4.868  18.519  0.00  0.00    +0.000 A 
ATOM      2  C   UNL     1       1.574   3.994  18.501  0.00  0.00    +0.000 A 
ATOM      3  C   UNL     1       1.704   2.649  18.160  0.00  0.00    +0.000 A 
ATOM      4  C   UNL     1       2.950   2.149  17.823  0.00  0.00    +0.000 A 
ATOM      5  C   UNL     1       4.059   2.998  17.819  0.00  0.00    +0.000 A 
ATOM      6  C   UNL     1       3.975   4.370  18.164  0.00  0.00    +0.000 A 
ENDROOT
BRANCH   1  10
ATOM      7  C   UNL     1       1.614   9.660  18.243  0.00  0.00    +0.000 C 
ATOM      8  C   UNL     1       1.948   8.373  18.888  0.00  0.00    +0.000 A 
ATOM      9  N   UNL     1       2.429   7.329  18.140  0.00  0.00    +0.000 NA
ATOM     10  C   UNL     1       2.442   6.266  18.920  0.00  0.00    +0.000 A 
ATOM     11  N   UNL     1       2.128   6.650  20.208  0.00  0.00    +0.000 N 
ATOM     12  C   UNL     1       1.806   7.985  20.205  0.00  0.00    +0.000 A 
ATOM     13  C   UNL     1       1.362   8.724  21.407  0.00  0.00    +0.000 C 
ATOM     14  H   UNL     1       2.063   6.025  21.000  0.00  0.00    +0.000 HD
ENDBRANCH   1  10
BRANCH   6  15
ATOM     15  C   UNL     1       5.236   5.177  18.124  0.00  0.00    +0.000 A 
ATOM     16  C   UNL     1       5.540   6.059  17.072  0.00  0.00    +0.000 A 
ATOM     17  C   UNL     1       6.684   6.867  17.089  0.00  0.00    +0.000 A 
ATOM     18  C   UNL     1       7.602   6.753  18.125  0.00  0.00    +0.000 A 
ATOM     19  C   UNL     1       7.370   5.840  19.146  0.00  0.00    +0.000 A 
ATOM     20  C   UNL     1       6.196   5.076  19.152  0.00  0.00    +0.000 A 
ENDBRANCH   6  15
TORSDOF 2
ENDMDL
MODEL 3
REMARK VINA RESULT:      -7.9      2.019      4.991
REMARK  Name = 
REMARK  4 active torsions:
REMARK  status: ('A' for Active; 'I' for Inactive)
REMARK    1  A    between atoms: C_1  and  C_2
REMARK    2  A    between atoms: C_4  and  C_5
REMARK    3  A    between atoms: C_10  and  C_11
REMARK    4  A    between atoms: C_18  and  C_19
REMARK                            x       y       z     vdW  Elec       q    Type
REMARK                         _______ _______ _______ _____ _____    ______ ____
ROOT
ATOM      1  C   UNL     1       3.469   4.201  19.750  0.00  0.00    +0.000 A 
ATOM      2  C   UNL     1       3.467   2.875  20.243  0.00  0.00    +0.000 A 
ATOM      3  C   UNL     1       2.353   2.331  20.880  0.00  0.00    +0.000 A 
ATOM      4  C   UNL     1       1.216   3.105  21.043  0.00  0.00    +0.000 A 
ATOM      5  C   UNL     1       1.202   4.422  20.577  0.00  0.00    +0.000 A 
ATOM      6  C   UNL     1       2.309   5.014  19.920  0.00  0.00    +0.000 A 
ENDROOT
BRANCH   1  10
ATOM      7  C   UNL     1       7.976   6.035  19.036  0.00  0.00    +0.000 C 
ATOM      8  C   UNL     1       6.676   5.434  18.672  0.00  0.00    +0.000 A 
ATOM      9  N   UNL     1       5.637   5.437  19.568  0.00  0.00    +0.000 NA
ATOM     10  C   UNL     1       4.691   4.667  19.069  0.00  0.00    +0.000 A 
ATOM     11  N   UNL     1       5.042   4.299  17.786  0.00  0.00    +0.000 N 
ATOM     12  C   UNL     1       6.304   4.772  17.519  0.00  0.00    +0.000 A 
ATOM     13  C   UNL     1       7.025   4.516  16.254  0.00  0.00    +0.000 C 
ATOM     14  H   UNL     1       4.491   3.704  17.182  0.00  0.00    +0.000 HD
ENDBRANCH   1  10
BRANCH   6  15
ATOM     15  C   UNL     1       2.171   6.433  19.464  0.00  0.00    +0.000 A 
ATOM     16  C   UNL     1       2.479   6.845  18.156  0.00  0.00    +0.000 A 
ATOM     17  C   UNL     1       2.267   8.160  17.722  0.00  0.00    +0.000 A 
ATOM     18  C   UNL     1       1.816   9.123  18.614  0.00  0.00    +0.000 A 
ATOM     19  C   UNL     1       1.569   8.769  19.935  0.00  0.00    +0.000 A 
ATOM     20  C   UNL     1       1.729   7.440  20.347  0.00  0.00    +0.000 A 
ENDBRANCH   6  15
TORSDOF 2
ENDMDL
MODEL 4
REMARK VINA RESULT:      -7.9      1.713      3.769
REMARK  Name = 
REMARK  4 active torsions:
REMARK  status: ('A' for Active; 'I' for Inactive)
REMARK    1  A    between atoms: C_1  and  C_2
REMARK    2  A    between atoms: C_4  and  C_5
REMARK    3  A    between atoms: C_10  and  C_11
REMARK    4  A    between atoms: C_18  and  C_19
REMARK                            x       y       z     vdW  Elec       q    Type
REMARK                         _______ _______ _______ _____ _____    ______ ____
ROOT
ATOM      1  C   UNL     1       3.871   6.041  17.492  0.00  0.00    +0.000 A 
ATOM      2  C   UNL     1       4.753   6.511  16.490  0.00  0.00    +0.000 A 
ATOM      3  C   UNL     1       5.523   5.639  15.723  0.00  0.00    +0.000 A 
ATOM      4  C   UNL     1       5.432   4.275  15.945  0.00  0.00    +0.000 A 
ATOM      5  C   UNL     1       4.580   3.790  16.940  0.00  0.00    +0.000 A 
ATOM      6  C   UNL     1       3.774   4.640  17.739  0.00  0.00    +0.000 A 
ENDROOT
BRANCH   1  10
ATOM      7  C   UNL     1       0.830   9.797  18.404  0.00  0.00    +0.000 C 
ATOM      8  C   UNL     1       1.734   8.670  18.712  0.00  0.00    +0.000 A 
ATOM      9  N   UNL     1       2.554   8.155  17.741  0.00  0.00    +0.000 NA
ATOM     10  C   UNL     1       3.083   7.049  18.226  0.00  0.00    +0.000 A 
ATOM     11  N   UNL     1       2.739   6.933  19.558  0.00  0.00    +0.000 N 
ATOM     12  C   UNL     1       1.877   7.951  19.882  0.00  0.00    +0.000 A 
ATOM     13  C   UNL     1       1.257   8.106  21.216  0.00  0.00    +0.000 C 
ATOM     14  H   UNL     1       3.013   6.170  20.163  0.00  0.00    +0.000 HD
ENDBRANCH   1  10
BRANCH   6  15
ATOM     15  C   UNL     1       2.898   4.000  18.772  0.00  0.00    +0.000 A 
ATOM     16  C   UNL     1       3.380   3.587  20.026  0.00  0.00    +0.000 A 
ATOM     17  C   UNL     1       2.532   3.065  21.011  0.00  0.00    +0.000 A 
ATOM     18  C   UNL     1       1.186   2.865  20.736  0.00  0.00    +0.000 A 
ATOM     19  C   UNL     1       0.688   3.195  19.482  0.00  0.00    +0.000 A 
ATOM     20  C   UNL     1       1.530   3.769  18.521  0.00  0.00    +0.000 A 
ENDBRANCH   6  15
TORSDOF 2
ENDMDL
MODEL 5
REMARK VINA RESULT:      -7.9      1.716      3.906
REMARK  Name = 
REMARK  4 active torsions:
REMARK  status: ('A' for Active; 'I' for Inactive)
REMARK    1  A    between atoms: C_1  and  C_2
REMARK    2  A    between atoms: C_4  and  C_5
REMARK    3  A    between atoms: C_10  and  C_11
REMARK    4  A    between atoms: C_18  and  C_19
REMARK                            x       y       z     vdW  Elec       q    Type
REMARK                         _______ _______ _______ _____ _____    ______ ____
ROOT
ATOM      1  C   UNL     1       3.854   6.090  17.493  0.00  0.00    +0.000 A 
ATOM      2  C   UNL     1       4.757   6.556  16.508  0.00  0.00    +0.000 A 
ATOM      3  C   UNL     1       5.532   5.679  15.751  0.00  0.00    +0.000 A 
ATOM      4  C   UNL     1       5.424   4.315  15.964  0.00  0.00    +0.000 A 
ATOM      5  C   UNL     1       4.550   3.835  16.942  0.00  0.00    +0.000 A 
ATOM      6  C   UNL     1       3.740   4.689  17.732  0.00  0.00    +0.000 A 
ENDROOT
BRANCH   1  10
ATOM      7  C   UNL     1       0.780   9.826  18.377  0.00  0.00    +0.000 C 
ATOM      8  C   UNL     1       1.702   8.715  18.694  0.00  0.00    +0.000 A 
ATOM      9  N   UNL     1       2.515   8.192  17.721  0.00  0.00    +0.000 NA
ATOM     10  C   UNL     1       3.064   7.102  18.219  0.00  0.00    +0.000 A 
ATOM     11  N   UNL     1       2.740   7.006  19.557  0.00  0.00    +0.000 N 
ATOM     12  C   UNL     1       1.869   8.020  19.875  0.00  0.00    +0.000 A 
ATOM     13  C   UNL     1       1.266   8.193  21.214  0.00  0.00    +0.000 C 
ATOM     14  H   UNL     1       3.031   6.258  20.173  0.00  0.00    +0.000 HD
ENDBRANCH   1  10
BRANCH   6  15
ATOM     15  C   UNL     1       2.840   4.053  18.746  0.00  0.00    +0.000 A 
ATOM     16  C   UNL     1       1.493   3.749  18.483  0.00  0.00    +0.000 A 
ATOM     17  C   UNL     1       0.688   3.081  19.413  0.00  0.00    +0.000 A 
ATOM     18  C   UNL     1       1.188   2.770  20.671  0.00  0.00    +0.000 A 
ATOM     19  C   UNL     1       2.493   3.119  20.993  0.00  0.00    +0.000 A 
ATOM     20  C   UNL     1       3.311   3.736  20.038  0.00  0.00    +0.000 A 
ENDBRANCH   6  15
TORSDOF 2
ENDMDL
MODEL 6
REMARK VINA RESULT:      -7.8      1.704      4.022
REMARK  Name = 
REMARK  4 active torsions:
REMARK  status: ('A' for Active; 'I' for Inactive)
REMARK    1  A    between atoms: C_1  and  C_2
REMARK    2  A    between atoms: C_4  and  C_5
REMARK    3  A    between atoms: C_10  and  C_11
REMARK    4  A    between atoms: C_18  and  C_19
REMARK                            x       y       z     vdW  Elec       q    Type
REMARK                         _______ _______ _______ _____ _____    ______ ____
ROOT
ATOM      1  C   UNL     1       3.703   6.151  17.569  0.00  0.00    +0.000 A 
ATOM      2  C   UNL     1       4.577   6.717  16.610  0.00  0.00    +0.000 A 
ATOM      3  C   UNL     1       5.447   5.932  15.857  0.00  0.00    +0.000 A 
ATOM      4  C   UNL     1       5.467   4.560  16.049  0.00  0.00    +0.000 A 
ATOM      5  C   UNL     1       4.623   3.983  17.001  0.00  0.00    +0.000 A 
ATOM      6  C   UNL     1       3.719   4.742  17.786  0.00  0.00    +0.000 A 
ENDROOT
BRANCH   1  10
ATOM      7  C   UNL     1       1.360   8.416  21.252  0.00  0.00    +0.000 C 
ATOM      8  C   UNL     1       1.758   8.139  19.857  0.00  0.00    +0.000 A 
ATOM      9  N   UNL     1       2.388   6.963  19.537  0.00  0.00    +0.000 NA
ATOM     10  C   UNL     1       2.806   7.071  18.292  0.00  0.00    +0.000 A 
ATOM     11  N   UNL     1       2.309   8.241  17.752  0.00  0.00    +0.000 N 
ATOM     12  C   UNL     1       1.646   8.935  18.734  0.00  0.00    +0.000 A 
ATOM     13  C   UNL     1       1.034  10.265  18.528  0.00  0.00    +0.000 C 
ATOM     14  H   UNL     1       2.486   8.566  16.811  0.00  0.00    +0.000 HD
ENDBRANCH   1  10
BRANCH   6  15
ATOM     15  C   UNL     1       2.865   4.007  18.772  0.00  0.00    +0.000 A 
ATOM     16  C   UNL     1       3.308   3.680  20.066  0.00  0.00    +0.000 A 
ATOM     17  C   UNL     1       2.469   3.065  21.003  0.00  0.00    +0.000 A 
ATOM     18  C   UNL     1       1.184   2.682  20.643  0.00  0.00    +0.000 A 
ATOM     19  C   UNL     1       0.737   2.923  19.350  0.00  0.00    +0.000 A 
ATOM     20  C   UNL     1       1.560   3.590  18.435  0.00  0.00    +0.000 A 
ENDBRANCH   6  15
TORSDOF 2
ENDMDL
MODEL 7
REMARK VINA RESULT:      -7.8      1.739      4.145
REMARK  Name = 
REMARK  4 active torsions:
REMARK  status: ('A' for Active; 'I' for Inactive)
REMARK    1  A    between atoms: C_1  and  C_2
REMARK    2  A    between atoms: C_4  and  C_5
REMARK    3  A    between atoms: C_10  and  C_11
REMARK    4  A    between atoms: C_18  and  C_19
REMARK                            x       y       z     vdW  Elec       q    Type
REMARK                         _______ _______ _______ _____ _____    ______ ____
ROOT
ATOM      1  C   UNL     1       3.642   6.229  17.562  0.00  0.00    +0.000 A 
ATOM      2  C   UNL     1       4.522   6.787  16.605  0.00  0.00    +0.000 A 
ATOM      3  C   UNL     1       5.382   5.994  15.848  0.00  0.00    +0.000 A 
ATOM      4  C   UNL     1       5.385   4.622  16.036  0.00  0.00    +0.000 A 
ATOM      5  C   UNL     1       4.536   4.051  16.987  0.00  0.00    +0.000 A 
ATOM      6  C   UNL     1       3.642   4.819  17.775  0.00  0.00    +0.000 A 
ENDROOT
BRANCH   1  10
ATOM      7  C   UNL     1       1.335   8.515  21.255  0.00  0.00    +0.000 C 
ATOM      8  C   UNL     1       1.725   8.234  19.858  0.00  0.00    +0.000 A 
ATOM      9  N   UNL     1       2.342   7.052  19.536  0.00  0.00    +0.000 NA
ATOM     10  C   UNL     1       2.756   7.156  18.289  0.00  0.00    +0.000 A 
ATOM     11  N   UNL     1       2.268   8.331  17.751  0.00  0.00    +0.000 N 
ATOM     12  C   UNL     1       1.615   9.031  18.736  0.00  0.00    +0.000 A 
ATOM     13  C   UNL     1       1.014  10.366  18.531  0.00  0.00    +0.000 C 
ATOM     14  H   UNL     1       2.443   8.654  16.809  0.00  0.00    +0.000 HD
ENDBRANCH   1  10
BRANCH   6  15
ATOM     15  C   UNL     1       2.780   4.090  18.759  0.00  0.00    +0.000 A 
ATOM     16  C   UNL     1       1.477   3.658  18.455  0.00  0.00    +0.000 A 
ATOM     17  C   UNL     1       0.714   2.908  19.358  0.00  0.00    +0.000 A 
ATOM     18  C   UNL     1       1.205   2.637  20.628  0.00  0.00    +0.000 A 
ATOM     19  C   UNL     1       2.461   3.110  20.989  0.00  0.00    +0.000 A 
ATOM     20  C   UNL     1       3.241   3.811  20.062  0.00  0.00    +0.000 A 
ENDBRANCH   6  15
TORSDOF 2
ENDMDL
MODEL 8
REMARK VINA RESULT:      -7.7      2.089      4.920
REMARK  Name = 
REMARK  4 active torsions:
REMARK  status: ('A' for Active; 'I' for Inactive)
REMARK    1  A    between atoms: C_1  and  C_2
REMARK    2  A    between atoms: C_4  and  C_5
REMARK    3  A    between atoms: C_10  and  C_11
REMARK    4  A    between atoms: C_18  and  C_19
REMARK                            x       y       z     vdW  Elec       q    Type
REMARK                         _______ _______ _______ _____ _____    ______ ____
ROOT
ATOM      1  C   UNL     1       3.534   4.098  19.820  0.00  0.00    +0.000 A 
ATOM      2  C   UNL     1       3.568   2.782  20.341  0.00  0.00    +0.000 A 
ATOM      3  C   UNL     1       2.475   2.228  21.005  0.00  0.00    +0.000 A 
ATOM      4  C   UNL     1       1.324   2.981  21.168  0.00  0.00    +0.000 A 
ATOM      5  C   UNL     1       1.275   4.287  20.676  0.00  0.00    +0.000 A 
ATOM      6  C   UNL     1       2.360   4.888  19.990  0.00  0.00    +0.000 A 
ENDROOT
BRANCH   1  10
ATOM      7  C   UNL     1       7.952   6.095  18.995  0.00  0.00    +0.000 C 
ATOM      8  C   UNL     1       6.684   5.409  18.670  0.00  0.00    +0.000 A 
ATOM      9  N   UNL     1       5.642   5.422  19.561  0.00  0.00    +0.000 NA
ATOM     10  C   UNL     1       4.736   4.575  19.113  0.00  0.00    +0.000 A 
ATOM     11  N   UNL     1       5.112   4.139  17.858  0.00  0.00    +0.000 N 
ATOM     12  C   UNL     1       6.351   4.654  17.563  0.00  0.00    +0.000 A 
ATOM     13  C   UNL     1       7.091   4.348  16.320  0.00  0.00    +0.000 C 
ATOM     14  H   UNL     1       4.593   3.479  17.294  0.00  0.00    +0.000 HD
ENDBRANCH   1  10
BRANCH   6  15
ATOM     15  C   UNL     1       2.184   6.295  19.507  0.00  0.00    +0.000 A 
ATOM     16  C   UNL     1       1.724   7.332  20.338  0.00  0.00    +0.000 A 
ATOM     17  C   UNL     1       1.643   8.657  19.894  0.00  0.00    +0.000 A 
ATOM     18  C   UNL     1       1.943   8.970  18.575  0.00  0.00    +0.000 A 
ATOM     19  C   UNL     1       2.332   7.959  17.705  0.00  0.00    +0.000 A 
ATOM     20  C   UNL     1       2.466   6.645  18.170  0.00  0.00    +0.000 A 
ENDBRANCH   6  15
TORSDOF 2
ENDMDL
MODEL 9
REMARK VINA RESULT:      -7.6      1.457      4.807
REMARK  Name = 
REMARK  4 active torsions:
REMARK  status: ('A' for Active; 'I' for Inactive)
REMARK    1  A    between atoms: C_1  and  C_2
REMARK    2  A    between atoms: C_4  and  C_5
REMARK    3  A    between atoms: C_10  and  C_11
REMARK    4  A    between atoms: C_18  and  C_19
REMARK                            x       y       z     vdW  Elec       q    Type
REMARK                         _______ _______ _______ _____ _____    ______ ____
ROOT
ATOM      1  C   UNL     1       3.843   4.198  18.567  0.00  0.00    +0.000 A 
ATOM      2  C   UNL     1       3.980   2.823  18.261  0.00  0.00    +0.000 A 
ATOM      3  C   UNL     1       2.872   1.992  18.110  0.00  0.00    +0.000 A 
ATOM      4  C   UNL     1       1.600   2.516  18.266  0.00  0.00    +0.000 A 
ATOM      5  C   UNL     1       1.442   3.868  18.582  0.00  0.00    +0.000 A 
ATOM      6  C   UNL     1       2.540   4.751  18.741  0.00  0.00    +0.000 A 
ENDROOT
BRANCH   1  10
ATOM      7  C   UNL     1       8.330   5.633  19.981  0.00  0.00    +0.000 C 
ATOM      8  C   UNL     1       7.061   5.675  19.225  0.00  0.00    +0.000 A 
ATOM      9  N   UNL     1       5.986   4.927  19.634  0.00  0.00    +0.000 NA
ATOM     10  C   UNL     1       5.080   4.993  18.679  0.00  0.00    +0.000 A 
ATOM     11  N   UNL     1       5.493   5.908  17.731  0.00  0.00    +0.000 N 
ATOM     12  C   UNL     1       6.752   6.347  18.059  0.00  0.00    +0.000 A 
ATOM     13  C   UNL     1       7.532   7.294  17.233  0.00  0.00    +0.000 C 
ATOM     14  H   UNL     1       4.982   6.143  16.891  0.00  0.00    +0.000 HD
ENDBRANCH   1  10
BRANCH   6  15
ATOM     15  C   UNL     1       2.242   6.179  19.078  0.00  0.00    +0.000 A 
ATOM     16  C   UNL     1       2.337   7.218  18.136  0.00  0.00    +0.000 A 
ATOM     17  C   UNL     1       1.976   8.535  18.445  0.00  0.00    +0.000 A 
ATOM     18  C   UNL     1       1.587   8.866  19.736  0.00  0.00    +0.000 A 
ATOM     19  C   UNL     1       1.550   7.878  20.712  0.00  0.00    +0.000 A 
ATOM     20  C   UNL     1       1.857   6.553  20.382  0.00  0.00    +0.000 A 
ENDBRANCH   6  15
TORSDOF 2
ENDMDL
