MODEL 1
REMARK VINA RESULT:      -7.9      0.000      0.000
REMARK  Name = 
REMARK  7 active torsions:
REMARK  status: ('A' for Active; 'I' for Inactive)
REMARK    1  A    between atoms: C_1  and  C_2
REMARK    2  A    between atoms: C_2  and  O_3
REMARK    3  A    between atoms: C_2  and  C_4
REMARK    4  A    between atoms: C_2  and  C_15
REMARK    5  A    between atoms: C_4  and  S_5
REMARK    6  A    between atoms: S_5  and  C_8
REMARK    7  A    between atoms: C_17  and  C_18
REMARK                            x       y       z     vdW  Elec       q    Type
REMARK                         _______ _______ _______ _____ _____    ______ ____
ROOT
ATOM      1  C   UNL     1       0.963   4.096  20.301  0.00  0.00    +0.000 C 
ATOM      2  C   UNL     1       2.280   4.861  20.069  0.00  0.00    +0.000 C 
ENDROOT
BRANCH   2   3
ATOM      3  C   UNL     1       1.946   6.332  20.070  0.00  0.00    +0.000 A 
ATOM      4  N   UNL     1       1.244   7.008  20.952  0.00  0.00    +0.000 NA
ATOM      5  C   UNL     1       1.300   8.297  20.478  0.00  0.00    +0.000 A 
ATOM      6  N   UNL     1       1.980   8.418  19.325  0.00  0.00    +0.000 NA
ATOM      7  O   UNL     1       2.424   7.116  19.060  0.00  0.00    +0.000 OA
BRANCH   5   8
ATOM      8  C   UNL     1       0.621   9.383  21.179  0.00  0.00    +0.000 A 
ATOM      9  C   UNL     1       0.022   9.139  22.428  0.00  0.00    +0.000 A 
ATOM     10  C   UNL     1      -0.674  10.146  23.103  0.00  0.00    +0.000 A 
ATOM     11  C   UNL     1      -0.775  11.412  22.533  0.00  0.00    +0.000 A 
ATOM     12 CL   UNL     1      -1.651  12.647  23.349  0.00  0.00    +0.000 Cl
ATOM     13  C   UNL     1      -0.176  11.679  21.304  0.00  0.00    +0.000 A 
ATOM     14  C   UNL     1       0.520  10.670  20.628  0.00  0.00    +0.000 A 
ENDBRANCH   5   8
ENDBRANCH   2   3
BRANCH   2  15
ATOM     15  O   UNL     1       3.135   4.658  21.202  0.00  0.00    +0.000 OA
ATOM     16  H   UNL     1       4.015   5.043  21.009  0.00  0.00    +0.000 HD
ENDBRANCH   2  15
BRANCH   2  17
ATOM     17  C   UNL     1       3.004   4.474  18.766  0.00  0.00    +0.000 C 
BRANCH  17  18
ATOM     18  S   UNL     1       4.755   4.317  19.035  0.00  0.00    +0.000 S 
ATOM     19  O   UNL     1       5.198   5.535  19.697  0.00  0.00    +0.000 OA
ATOM     20  O   UNL     1       5.000   3.032  19.659  0.00  0.00    +0.000 OA
BRANCH  18  21
ATOM     21  C   UNL     1       5.545   4.253  17.449  0.00  0.00    +0.000 A 
ATOM     22  C   UNL     1       4.784   4.035  16.298  0.00  0.00    +0.000 A 
ATOM     23  C   UNL     1       5.372   4.210  15.042  0.00  0.00    +0.000 A 
ATOM     24  C   UNL     1       6.706   4.611  14.945  0.00  0.00    +0.000 A 
ATOM     25 BR   UNL     1       7.475   4.920  13.245  0.00  0.00    +0.000 Br
ATOM     26  C   UNL     1       7.468   4.821  16.093  0.00  0.00    +0.000 A 
ATOM     27  C   UNL     1       6.888   4.645  17.349  0.00  0.00    +0.000 A 
ENDBRANCH  18  21
ENDBRANCH  17  18
ENDBRANCH   2  17
TORSDOF 6
ENDMDL
MODEL 2
REMARK VINA RESULT:      -7.1      1.043      1.730
REMARK  Name = 
REMARK  7 active torsions:
REMARK  status: ('A' for Active; 'I' for Inactive)
REMARK    1  A    between atoms: C_1  and  C_2
REMARK    2  A    between atoms: C_2  and  O_3
REMARK    3  A    between atoms: C_2  and  C_4
REMARK    4  A    between atoms: C_2  and  C_15
REMARK    5  A    between atoms: C_4  and  S_5
REMARK    6  A    between atoms: S_5  and  C_8
REMARK    7  A    between atoms: C_17  and  C_18
REMARK                            x       y       z     vdW  Elec       q    Type
REMARK                         _______ _______ _______ _____ _____    ______ ____
ROOT
ATOM      1  C   UNL     1       2.312   5.104  18.328  0.00  0.00    +0.000 C 
ATOM      2  C   UNL     1       3.049   5.952  19.382  0.00  0.00    +0.000 C 
ENDROOT
BRANCH   2   3
ATOM      3  C   UNL     1       2.282   7.243  19.529  0.00  0.00    +0.000 A 
ATOM      4  N   UNL     1       1.543   7.642  20.539  0.00  0.00    +0.000 NA
ATOM      5  C   UNL     1       1.129   8.895  20.152  0.00  0.00    +0.000 A 
ATOM      6  N   UNL     1       1.563   9.252  18.931  0.00  0.00    +0.000 NA
ATOM      7  O   UNL     1       2.342   8.162  18.521  0.00  0.00    +0.000 OA
BRANCH   5   8
ATOM      8  C   UNL     1       0.259   9.694  21.009  0.00  0.00    +0.000 A 
ATOM      9  C   UNL     1      -0.357  10.849  20.493  0.00  0.00    +0.000 A 
ATOM     10  C   UNL     1      -1.160  11.660  21.301  0.00  0.00    +0.000 A 
ATOM     11  C   UNL     1      -1.356  11.321  22.637  0.00  0.00    +0.000 A 
ATOM     12 CL   UNL     1      -2.324  12.328  23.639  0.00  0.00    +0.000 Cl
ATOM     13  C   UNL     1      -0.768  10.172  23.163  0.00  0.00    +0.000 A 
ATOM     14  C   UNL     1       0.036   9.361  22.353  0.00  0.00    +0.000 A 
ENDBRANCH   5   8
ENDBRANCH   2   3
BRANCH   2  15
ATOM     15  O   UNL     1       2.948   5.297  20.653  0.00  0.00    +0.000 OA
ATOM     16  H   UNL     1       3.035   5.965  21.364  0.00  0.00    +0.000 HD
ENDBRANCH   2  15
BRANCH   2  17
ATOM     17  C   UNL     1       4.522   6.237  19.034  0.00  0.00    +0.000 C 
BRANCH  17  18
ATOM     18  S   UNL     1       5.392   4.730  18.668  0.00  0.00    +0.000 S 
ATOM     19  O   UNL     1       6.673   4.797  19.355  0.00  0.00    +0.000 OA
ATOM     20  O   UNL     1       4.496   3.620  18.927  0.00  0.00    +0.000 OA
BRANCH  18  21
ATOM     21  C   UNL     1       5.721   4.702  16.926  0.00  0.00    +0.000 A 
ATOM     22  C   UNL     1       6.992   5.032  16.450  0.00  0.00    +0.000 A 
ATOM     23  C   UNL     1       7.308   4.792  15.110  0.00  0.00    +0.000 A 
ATOM     24  C   UNL     1       6.360   4.216  14.261  0.00  0.00    +0.000 A 
ATOM     25 BR   UNL     1       6.817   3.823  12.469  0.00  0.00    +0.000 Br
ATOM     26  C   UNL     1       5.089   3.893  14.734  0.00  0.00    +0.000 A 
ATOM     27  C   UNL     1       4.767   4.134  16.069  0.00  0.00    +0.000 A 
ENDBRANCH  18  21
ENDBRANCH  17  18
ENDBRANCH   2  17
TORSDOF 6
ENDMDL
MODEL 3
REMARK VINA RESULT:      -7.1      0.908      1.126
REMARK  Name = 
REMARK  7 active torsions:
REMARK  status: ('A' for Active; 'I' for Inactive)
REMARK    1  A    between atoms: C_1  and  C_2
REMARK    2  A    between atoms: C_2  and  O_3
REMARK    3  A    between atoms: C_2  and  C_4
REMARK    4  A    between atoms: C_2  and  C_15
REMARK    5  A    between atoms: C_4  and  S_5
REMARK    6  A    between atoms: S_5  and  C_8
REMARK    7  A    between atoms: C_17  and  C_18
REMARK                            x       y       z     vdW  Elec       q    Type
REMARK                         _______ _______ _______ _____ _____    ______ ____
ROOT
ATOM      1  C   UNL     1       2.561   4.604  20.491  0.00  0.00    +0.000 C 
ATOM      2  C   UNL     1       3.240   5.552  19.484  0.00  0.00    +0.000 C 
ENDROOT
BRANCH   2   3
ATOM      3  C   UNL     1       2.494   6.862  19.535  0.00  0.00    +0.000 A 
ATOM      4  N   UNL     1       1.793   7.364  20.527  0.00  0.00    +0.000 NA
ATOM      5  C   UNL     1       1.382   8.581  20.039  0.00  0.00    +0.000 A 
ATOM      6  N   UNL     1       1.779   8.818  18.777  0.00  0.00    +0.000 NA
ATOM      7  O   UNL     1       2.532   7.684  18.445  0.00  0.00    +0.000 OA
BRANCH   5   8
ATOM      8  C   UNL     1       0.550   9.469  20.845  0.00  0.00    +0.000 A 
ATOM      9  C   UNL     1       0.323   9.171  22.201  0.00  0.00    +0.000 A 
ATOM     10  C   UNL     1      -0.505   9.977  22.988  0.00  0.00    +0.000 A 
ATOM     11  C   UNL     1      -1.115  11.094  22.424  0.00  0.00    +0.000 A 
ATOM     12 CL   UNL     1      -2.153  12.074  23.382  0.00  0.00    +0.000 Cl
ATOM     13  C   UNL     1      -0.892  11.415  21.086  0.00  0.00    +0.000 A 
ATOM     14  C   UNL     1      -0.063  10.607  20.299  0.00  0.00    +0.000 A 
ENDBRANCH   5   8
ENDBRANCH   2   3
BRANCH   2  15
ATOM     15  O   UNL     1       4.565   5.844  19.948  0.00  0.00    +0.000 OA
ATOM     16  H   UNL     1       4.551   5.919  20.925  0.00  0.00    +0.000 HD
ENDBRANCH   2  15
BRANCH   2  17
ATOM     17  C   UNL     1       3.278   5.009  18.043  0.00  0.00    +0.000 C 
BRANCH  17  18
ATOM     18  S   UNL     1       4.393   3.630  17.913  0.00  0.00    +0.000 S 
ATOM     19  O   UNL     1       5.231   3.643  19.103  0.00  0.00    +0.000 OA
ATOM     20  O   UNL     1       3.613   2.449  17.599  0.00  0.00    +0.000 OA
BRANCH  18  21
ATOM     21  C   UNL     1       5.445   3.912  16.515  0.00  0.00    +0.000 A 
ATOM     22  C   UNL     1       4.946   3.749  15.220  0.00  0.00    +0.000 A 
ATOM     23  C   UNL     1       5.703   4.187  14.131  0.00  0.00    +0.000 A 
ATOM     24  C   UNL     1       6.944   4.793  14.342  0.00  0.00    +0.000 A 
ATOM     25 BR   UNL     1       7.932   5.453  12.869  0.00  0.00    +0.000 Br
ATOM     26  C   UNL     1       7.446   4.949  15.632  0.00  0.00    +0.000 A 
ATOM     27  C   UNL     1       6.696   4.511  16.723  0.00  0.00    +0.000 A 
ENDBRANCH  18  21
ENDBRANCH  17  18
ENDBRANCH   2  17
TORSDOF 6
ENDMDL
MODEL 4
REMARK VINA RESULT:      -7.1      5.462      7.631
REMARK  Name = 
REMARK  7 active torsions:
REMARK  status: ('A' for Active; 'I' for Inactive)
REMARK    1  A    between atoms: C_1  and  C_2
REMARK    2  A    between atoms: C_2  and  O_3
REMARK    3  A    between atoms: C_2  and  C_4
REMARK    4  A    between atoms: C_2  and  C_15
REMARK    5  A    between atoms: C_4  and  S_5
REMARK    6  A    between atoms: S_5  and  C_8
REMARK    7  A    between atoms: C_17  and  C_18
REMARK                            x       y       z     vdW  Elec       q    Type
REMARK                         _______ _______ _______ _____ _____    ______ ____
ROOT
ATOM      1  C   UNL     1       6.222   4.627  17.309  0.00  0.00    +0.000 C 
ATOM      2  C   UNL     1       6.106   6.029  16.680  0.00  0.00    +0.000 C 
ENDROOT
BRANCH   2   3
ATOM      3  C   UNL     1       7.052   6.933  17.431  0.00  0.00    +0.000 A 
ATOM      4  N   UNL     1       7.233   8.226  17.284  0.00  0.00    +0.000 NA
ATOM      5  C   UNL     1       8.169   8.524  18.246  0.00  0.00    +0.000 A 
ATOM      6  N   UNL     1       8.585   7.453  18.943  0.00  0.00    +0.000 NA
ATOM      7  O   UNL     1       7.833   6.396  18.414  0.00  0.00    +0.000 OA
BRANCH   5   8
ATOM      8  C   UNL     1       8.664   9.888  18.412  0.00  0.00    +0.000 A 
ATOM      9  C   UNL     1       9.544  10.186  19.468  0.00  0.00    +0.000 A 
ATOM     10  C   UNL     1       9.999  11.490  19.681  0.00  0.00    +0.000 A 
ATOM     11  C   UNL     1       9.579  12.512  18.833  0.00  0.00    +0.000 A 
ATOM     12 CL   UNL     1      10.119  14.122  19.105  0.00  0.00    +0.000 Cl
ATOM     13  C   UNL     1       8.721  12.235  17.771  0.00  0.00    +0.000 A 
ATOM     14  C   UNL     1       8.264  10.928  17.560  0.00  0.00    +0.000 A 
ENDBRANCH   5   8
ENDBRANCH   2   3
BRANCH   2  15
ATOM     15  O   UNL     1       6.608   5.974  15.338  0.00  0.00    +0.000 OA
ATOM     16  H   UNL     1       6.340   6.788  14.864  0.00  0.00    +0.000 HD
ENDBRANCH   2  15
BRANCH   2  17
ATOM     17  C   UNL     1       4.678   6.606  16.701  0.00  0.00    +0.000 C 
BRANCH  17  18
ATOM     18  S   UNL     1       3.749   5.952  18.070  0.00  0.00    +0.000 S 
ATOM     19  O   UNL     1       2.981   4.823  17.565  0.00  0.00    +0.000 OA
ATOM     20  O   UNL     1       4.660   5.761  19.181  0.00  0.00    +0.000 OA
BRANCH  18  21
ATOM     21  C   UNL     1       2.595   7.195  18.586  0.00  0.00    +0.000 A 
ATOM     22  C   UNL     1       2.187   7.258  19.920  0.00  0.00    +0.000 A 
ATOM     23  C   UNL     1       1.461   8.366  20.366  0.00  0.00    +0.000 A 
ATOM     24  C   UNL     1       1.158   9.404  19.482  0.00  0.00    +0.000 A 
ATOM     25 BR   UNL     1       0.242  10.936  20.107  0.00  0.00    +0.000 Br
ATOM     26  C   UNL     1       1.558   9.338  18.149  0.00  0.00    +0.000 A 
ATOM     27  C   UNL     1       2.280   8.233  17.698  0.00  0.00    +0.000 A 
ENDBRANCH  18  21
ENDBRANCH  17  18
ENDBRANCH   2  17
TORSDOF 6
ENDMDL
MODEL 5
REMARK VINA RESULT:      -7.0      6.035     10.463
REMARK  Name = 
REMARK  7 active torsions:
REMARK  status: ('A' for Active; 'I' for Inactive)
REMARK    1  A    between atoms: C_1  and  C_2
REMARK    2  A    between atoms: C_2  and  O_3
REMARK    3  A    between atoms: C_2  and  C_4
REMARK    4  A    between atoms: C_2  and  C_15
REMARK    5  A    between atoms: C_4  and  S_5
REMARK    6  A    between atoms: S_5  and  C_8
REMARK    7  A    between atoms: C_17  and  C_18
REMARK                            x       y       z     vdW  Elec       q    Type
REMARK                         _______ _______ _______ _____ _____    ______ ____
ROOT
ATOM      1  C   UNL     1       0.537  11.836  18.889  0.00  0.00    +0.000 C 
ATOM      2  C   UNL     1       0.366  11.219  20.290  0.00  0.00    +0.000 C 
ENDROOT
BRANCH   2   3
ATOM      3  C   UNL     1       0.884   9.804  20.218  0.00  0.00    +0.000 A 
ATOM      4  N   UNL     1       1.570   9.234  19.253  0.00  0.00    +0.000 NA
ATOM      5  C   UNL     1       1.804   7.969  19.737  0.00  0.00    +0.000 A 
ATOM      6  N   UNL     1       1.256   7.743  20.943  0.00  0.00    +0.000 NA
ATOM      7  O   UNL     1       0.657   8.966  21.272  0.00  0.00    +0.000 OA
BRANCH   5   8
ATOM      8  C   UNL     1       2.543   6.990  18.946  0.00  0.00    +0.000 A 
ATOM      9  C   UNL     1       3.446   7.428  17.959  0.00  0.00    +0.000 A 
ATOM     10  C   UNL     1       4.135   6.516  17.155  0.00  0.00    +0.000 A 
ATOM     11  C   UNL     1       3.928   5.151  17.331  0.00  0.00    +0.000 A 
ATOM     12 CL   UNL     1       4.755   4.026  16.328  0.00  0.00    +0.000 Cl
ATOM     13  C   UNL     1       3.050   4.695  18.313  0.00  0.00    +0.000 A 
ATOM     14  C   UNL     1       2.360   5.610  19.118  0.00  0.00    +0.000 A 
ENDBRANCH   5   8
ENDBRANCH   2   3
BRANCH   2  15
ATOM     15  O   UNL     1       1.236  11.902  21.203  0.00  0.00    +0.000 OA
ATOM     16  H   UNL     1       0.977  11.673  22.120  0.00  0.00    +0.000 HD
ENDBRANCH   2  15
BRANCH   2  17
ATOM     17  C   UNL     1      -1.085  11.236  20.806  0.00  0.00    +0.000 C 
BRANCH  17  18
ATOM     18  S   UNL     1      -1.201  12.120  22.345  0.00  0.00    +0.000 S 
ATOM     19  O   UNL     1      -0.582  11.287  23.366  0.00  0.00    +0.000 OA
ATOM     20  O   UNL     1      -0.715  13.468  22.127  0.00  0.00    +0.000 OA
BRANCH  18  21
ATOM     21  C   UNL     1      -2.919  12.276  22.754  0.00  0.00    +0.000 A 
ATOM     22  C   UNL     1      -3.326  12.231  24.089  0.00  0.00    +0.000 A 
ATOM     23  C   UNL     1      -4.639  12.577  24.420  0.00  0.00    +0.000 A 
ATOM     24  C   UNL     1      -5.529  12.976  23.420  0.00  0.00    +0.000 A 
ATOM     25 BR   UNL     1      -7.282  13.517  23.881  0.00  0.00    +0.000 Br
ATOM     26  C   UNL     1      -5.126  13.014  22.087  0.00  0.00    +0.000 A 
ATOM     27  C   UNL     1      -3.818  12.666  21.751  0.00  0.00    +0.000 A 
ENDBRANCH  18  21
ENDBRANCH  17  18
ENDBRANCH   2  17
TORSDOF 6
ENDMDL
MODEL 6
REMARK VINA RESULT:      -7.0      5.622     10.013
REMARK  Name = 
REMARK  7 active torsions:
REMARK  status: ('A' for Active; 'I' for Inactive)
REMARK    1  A    between atoms: C_1  and  C_2
REMARK    2  A    between atoms: C_2  and  O_3
REMARK    3  A    between atoms: C_2  and  C_4
REMARK    4  A    between atoms: C_2  and  C_15
REMARK    5  A    between atoms: C_4  and  S_5
REMARK    6  A    between atoms: S_5  and  C_8
REMARK    7  A    between atoms: C_17  and  C_18
REMARK                            x       y       z     vdW  Elec       q    Type
REMARK                         _______ _______ _______ _____ _____    ______ ____
ROOT
ATOM      1  C   UNL     1      -0.519   9.916  17.717  0.00  0.00    +0.000 C 
ATOM      2  C   UNL     1       0.586  10.156  18.763  0.00  0.00    +0.000 C 
ENDROOT
BRANCH   2   3
ATOM      3  C   UNL     1       1.442   8.915  18.798  0.00  0.00    +0.000 A 
ATOM      4  N   UNL     1       2.109   8.356  17.814  0.00  0.00    +0.000 NA
ATOM      5  C   UNL     1       2.735   7.293  18.420  0.00  0.00    +0.000 A 
ATOM      6  N   UNL     1       2.443   7.170  19.726  0.00  0.00    +0.000 NA
ATOM      7  O   UNL     1       1.596   8.255  19.984  0.00  0.00    +0.000 OA
BRANCH   5   8
ATOM      8  C   UNL     1       3.586   6.388  17.654  0.00  0.00    +0.000 A 
ATOM      9  C   UNL     1       4.604   6.912  16.836  0.00  0.00    +0.000 A 
ATOM     10  C   UNL     1       5.405   6.075  16.056  0.00  0.00    +0.000 A 
ATOM     11  C   UNL     1       5.197   4.699  16.087  0.00  0.00    +0.000 A 
ATOM     12 CL   UNL     1       6.165   3.667  15.110  0.00  0.00    +0.000 Cl
ATOM     13  C   UNL     1       4.204   4.157  16.901  0.00  0.00    +0.000 A 
ATOM     14  C   UNL     1       3.401   4.997  17.682  0.00  0.00    +0.000 A 
ENDBRANCH   5   8
ENDBRANCH   2   3
BRANCH   2  15
ATOM     15  O   UNL     1       1.445  11.204  18.292  0.00  0.00    +0.000 OA
ATOM     16  H   UNL     1       0.951  11.757  17.651  0.00  0.00    +0.000 HD
ENDBRANCH   2  15
BRANCH   2  17
ATOM     17  C   UNL     1       0.052  10.483  20.170  0.00  0.00    +0.000 C 
BRANCH  17  18
ATOM     18  S   UNL     1       0.010  12.240  20.442  0.00  0.00    +0.000 S 
ATOM     19  O   UNL     1       1.260  12.602  21.095  0.00  0.00    +0.000 OA
ATOM     20  O   UNL     1      -0.358  12.879  19.194  0.00  0.00    +0.000 OA
BRANCH  18  21
ATOM     21  C   UNL     1      -1.306  12.583  21.579  0.00  0.00    +0.000 A 
ATOM     22  C   UNL     1      -2.297  13.508  21.241  0.00  0.00    +0.000 A 
ATOM     23  C   UNL     1      -3.444  13.608  22.034  0.00  0.00    +0.000 A 
ATOM     24  C   UNL     1      -3.596  12.778  23.148  0.00  0.00    +0.000 A 
ATOM     25 BR   UNL     1      -5.183  12.863  24.174  0.00  0.00    +0.000 Br
ATOM     26  C   UNL     1      -2.604  11.861  23.490  0.00  0.00    +0.000 A 
ATOM     27  C   UNL     1      -1.456  11.760  22.703  0.00  0.00    +0.000 A 
ENDBRANCH  18  21
ENDBRANCH  17  18
ENDBRANCH   2  17
TORSDOF 6
ENDMDL
MODEL 7
REMARK VINA RESULT:      -7.0      6.025     10.292
REMARK  Name = 
REMARK  7 active torsions:
REMARK  status: ('A' for Active; 'I' for Inactive)
REMARK    1  A    between atoms: C_1  and  C_2
REMARK    2  A    between atoms: C_2  and  O_3
REMARK    3  A    between atoms: C_2  and  C_4
REMARK    4  A    between atoms: C_2  and  C_15
REMARK    5  A    between atoms: C_4  and  S_5
REMARK    6  A    between atoms: S_5  and  C_8
REMARK    7  A    between atoms: C_17  and  C_18
REMARK                            x       y       z     vdW  Elec       q    Type
REMARK                         _______ _______ _______ _____ _____    ______ ____
ROOT
ATOM      1  C   UNL     1       0.600  12.727  19.077  0.00  0.00    +0.000 C 
ATOM      2  C   UNL     1       0.483  11.651  20.173  0.00  0.00    +0.000 C 
ENDROOT
BRANCH   2   3
ATOM      3  C   UNL     1       0.997  10.360  19.586  0.00  0.00    +0.000 A 
ATOM      4  N   UNL     1       1.360   9.265  20.215  0.00  0.00    +0.000 NA
ATOM      5  C   UNL     1       1.696   8.410  19.192  0.00  0.00    +0.000 A 
ATOM      6  N   UNL     1       1.582   8.960  17.971  0.00  0.00    +0.000 NA
ATOM      7  O   UNL     1       1.104  10.251  18.229  0.00  0.00    +0.000 OA
BRANCH   5   8
ATOM      8  C   UNL     1       2.173   7.059  19.471  0.00  0.00    +0.000 A 
ATOM      9  C   UNL     1       3.128   6.468  18.624  0.00  0.00    +0.000 A 
ATOM     10  C   UNL     1       3.571   5.160  18.838  0.00  0.00    +0.000 A 
ATOM     11  C   UNL     1       3.063   4.429  19.909  0.00  0.00    +0.000 A 
ATOM     12 CL   UNL     1       3.589   2.812  20.163  0.00  0.00    +0.000 Cl
ATOM     13  C   UNL     1       2.129   5.001  20.770  0.00  0.00    +0.000 A 
ATOM     14  C   UNL     1       1.685   6.311  20.553  0.00  0.00    +0.000 A 
ENDBRANCH   5   8
ENDBRANCH   2   3
BRANCH   2  15
ATOM     15  O   UNL     1       1.386  11.977  21.238  0.00  0.00    +0.000 OA
ATOM     16  H   UNL     1       1.779  12.857  21.064  0.00  0.00    +0.000 HD
ENDBRANCH   2  15
BRANCH   2  17
ATOM     17  C   UNL     1      -0.948  11.464  20.714  0.00  0.00    +0.000 C 
BRANCH  17  18
ATOM     18  S   UNL     1      -1.102  12.143  22.351  0.00  0.00    +0.000 S 
ATOM     19  O   UNL     1      -0.554  11.161  23.275  0.00  0.00    +0.000 OA
ATOM     20  O   UNL     1      -0.564  13.489  22.332  0.00  0.00    +0.000 OA
BRANCH  18  21
ATOM     21  C   UNL     1      -2.830  12.307  22.710  0.00  0.00    +0.000 A 
ATOM     22  C   UNL     1      -3.279  12.228  24.031  0.00  0.00    +0.000 A 
ATOM     23  C   UNL     1      -4.598  12.581  24.331  0.00  0.00    +0.000 A 
ATOM     24  C   UNL     1      -5.452  13.018  23.315  0.00  0.00    +0.000 A 
ATOM     25 BR   UNL     1      -7.213  13.566  23.737  0.00  0.00    +0.000 Br
ATOM     26  C   UNL     1      -5.007  13.089  21.997  0.00  0.00    +0.000 A 
ATOM     27  C   UNL     1      -3.693  12.736  21.691  0.00  0.00    +0.000 A 
ENDBRANCH  18  21
ENDBRANCH  17  18
ENDBRANCH   2  17
TORSDOF 6
ENDMDL
MODEL 8
REMARK VINA RESULT:      -6.9      5.687     10.091
REMARK  Name = 
REMARK  7 active torsions:
REMARK  status: ('A' for Active; 'I' for Inactive)
REMARK    1  A    between atoms: C_1  and  C_2
REMARK    2  A    between atoms: C_2  and  O_3
REMARK    3  A    between atoms: C_2  and  C_4
REMARK    4  A    between atoms: C_2  and  C_15
REMARK    5  A    between atoms: C_4  and  S_5
REMARK    6  A    between atoms: S_5  and  C_8
REMARK    7  A    between atoms: C_17  and  C_18
REMARK                            x       y       z     vdW  Elec       q    Type
REMARK                         _______ _______ _______ _____ _____    ______ ____
ROOT
ATOM      1  C   UNL     1      -0.637  10.043  18.012  0.00  0.00    +0.000 C 
ATOM      2  C   UNL     1       0.654  10.348  18.794  0.00  0.00    +0.000 C 
ENDROOT
BRANCH   2   3
ATOM      3  C   UNL     1       1.446   9.066  18.862  0.00  0.00    +0.000 A 
ATOM      4  N   UNL     1       2.119   8.471  17.902  0.00  0.00    +0.000 NA
ATOM      5  C   UNL     1       2.670   7.381  18.533  0.00  0.00    +0.000 A 
ATOM      6  N   UNL     1       2.326   7.277  19.828  0.00  0.00    +0.000 NA
ATOM      7  O   UNL     1       1.525   8.404  20.053  0.00  0.00    +0.000 OA
BRANCH   5   8
ATOM      8  C   UNL     1       3.501   6.432  17.798  0.00  0.00    +0.000 A 
ATOM      9  C   UNL     1       4.551   6.906  16.989  0.00  0.00    +0.000 A 
ATOM     10  C   UNL     1       5.335   6.026  16.238  0.00  0.00    +0.000 A 
ATOM     11  C   UNL     1       5.078   4.659  16.291  0.00  0.00    +0.000 A 
ATOM     12 CL   UNL     1       6.026   3.576  15.350  0.00  0.00    +0.000 Cl
ATOM     13  C   UNL     1       4.054   4.168  17.098  0.00  0.00    +0.000 A 
ATOM     14  C   UNL     1       3.268   5.050  17.849  0.00  0.00    +0.000 A 
ENDBRANCH   5   8
ENDBRANCH   2   3
BRANCH   2  15
ATOM     15  O   UNL     1       1.455  11.256  18.026  0.00  0.00    +0.000 OA
ATOM     16  H   UNL     1       2.384  11.197  18.330  0.00  0.00    +0.000 HD
ENDBRANCH   2  15
BRANCH   2  17
ATOM     17  C   UNL     1       0.409  10.906  20.209  0.00  0.00    +0.000 C 
BRANCH  17  18
ATOM     18  S   UNL     1       0.333  12.682  20.188  0.00  0.00    +0.000 S 
ATOM     19  O   UNL     1       1.705  13.169  20.153  0.00  0.00    +0.000 OA
ATOM     20  O   UNL     1      -0.596  13.080  19.149  0.00  0.00    +0.000 OA
BRANCH  18  21
ATOM     21  C   UNL     1      -0.383  13.214  21.720  0.00  0.00    +0.000 A 
ATOM     22  C   UNL     1       0.033  14.412  22.307  0.00  0.00    +0.000 A 
ATOM     23  C   UNL     1      -0.686  14.936  23.385  0.00  0.00    +0.000 A 
ATOM     24  C   UNL     1      -1.818  14.268  23.860  0.00  0.00    +0.000 A 
ATOM     25 BR   UNL     1      -2.831  15.019  25.269  0.00  0.00    +0.000 Br
ATOM     26  C   UNL     1      -2.228  13.069  23.280  0.00  0.00    +0.000 A 
ATOM     27  C   UNL     1      -1.512  12.540  22.206  0.00  0.00    +0.000 A 
ENDBRANCH  18  21
ENDBRANCH  17  18
ENDBRANCH   2  17
TORSDOF 6
ENDMDL
MODEL 9
REMARK VINA RESULT:      -6.9      5.627      9.952
REMARK  Name = 
REMARK  7 active torsions:
REMARK  status: ('A' for Active; 'I' for Inactive)
REMARK    1  A    between atoms: C_1  and  C_2
REMARK    2  A    between atoms: C_2  and  O_3
REMARK    3  A    between atoms: C_2  and  C_4
REMARK    4  A    between atoms: C_2  and  C_15
REMARK    5  A    between atoms: C_4  and  S_5
REMARK    6  A    between atoms: S_5  and  C_8
REMARK    7  A    between atoms: C_17  and  C_18
REMARK                            x       y       z     vdW  Elec       q    Type
REMARK                         _______ _______ _______ _____ _____    ______ ____
ROOT
ATOM      1  C   UNL     1      -0.542  10.143  18.562  0.00  0.00    +0.000 C 
ATOM      2  C   UNL     1       0.874  10.337  19.138  0.00  0.00    +0.000 C 
ENDROOT
BRANCH   2   3
ATOM      3  C   UNL     1       1.581   9.008  19.038  0.00  0.00    +0.000 A 
ATOM      4  N   UNL     1       2.269   8.524  18.028  0.00  0.00    +0.000 NA
ATOM      5  C   UNL     1       2.715   7.314  18.502  0.00  0.00    +0.000 A 
ATOM      6  N   UNL     1       2.293   7.034  19.747  0.00  0.00    +0.000 NA
ATOM      7  O   UNL     1       1.551   8.165  20.111  0.00  0.00    +0.000 OA
BRANCH   5   8
ATOM      8  C   UNL     1       3.527   6.435  17.665  0.00  0.00    +0.000 A 
ATOM      9  C   UNL     1       3.350   5.041  17.740  0.00  0.00    +0.000 A 
ATOM     10  C   UNL     1       4.142   4.172  16.986  0.00  0.00    +0.000 A 
ATOM     11  C   UNL     1       5.122   4.691  16.143  0.00  0.00    +0.000 A 
ATOM     12 CL   UNL     1       6.114   3.624  15.231  0.00  0.00    +0.000 Cl
ATOM     13  C   UNL     1       5.303   6.069  16.042  0.00  0.00    +0.000 A 
ATOM     14  C   UNL     1       4.509   6.939  16.799  0.00  0.00    +0.000 A 
ENDBRANCH   5   8
ENDBRANCH   2   3
BRANCH   2  15
ATOM     15  O   UNL     1       1.601  11.227  18.281  0.00  0.00    +0.000 OA
ATOM     16  H   UNL     1       1.554  10.893  17.361  0.00  0.00    +0.000 HD
ENDBRANCH   2  15
BRANCH   2  17
ATOM     17  C   UNL     1       0.891  10.849  20.591  0.00  0.00    +0.000 C 
BRANCH  17  18
ATOM     18  S   UNL     1       0.248  12.504  20.690  0.00  0.00    +0.000 S 
ATOM     19  O   UNL     1       1.082  13.232  21.635  0.00  0.00    +0.000 OA
ATOM     20  O   UNL     1       0.089  13.005  19.340  0.00  0.00    +0.000 OA
BRANCH  18  21
ATOM     21  C   UNL     1      -1.384  12.412  21.378  0.00  0.00    +0.000 A 
ATOM     22  C   UNL     1      -1.553  12.266  22.757  0.00  0.00    +0.000 A 
ATOM     23  C   UNL     1      -2.825  12.420  23.314  0.00  0.00    +0.000 A 
ATOM     24  C   UNL     1      -3.913  12.729  22.494  0.00  0.00    +0.000 A 
ATOM     25 BR   UNL     1      -5.619  13.012  23.261  0.00  0.00    +0.000 Br
ATOM     26  C   UNL     1      -3.747  12.868  21.118  0.00  0.00    +0.000 A 
ATOM     27  C   UNL     1      -2.479  12.711  20.556  0.00  0.00    +0.000 A 
ENDBRANCH  18  21
ENDBRANCH  17  18
ENDBRANCH   2  17
TORSDOF 6
ENDMDL
