MODEL 1
REMARK VINA RESULT:      -7.5      0.000      0.000
REMARK  Name = 
REMARK  7 active torsions:
REMARK  status: ('A' for Active; 'I' for Inactive)
REMARK    1  A    between atoms: C_1  and  C_2
REMARK    2  A    between atoms: C_2  and  C_3
REMARK    3  A    between atoms: C_2  and  C_4
REMARK    4  A    between atoms: C_2  and  N_5
REMARK    5  A    between atoms: C_9  and  N_10
REMARK    6  A    between atoms: C_11  and  C_13
REMARK    7  A    between atoms: C_13  and  C_14
REMARK                            x       y       z     vdW  Elec       q    Type
REMARK                         _______ _______ _______ _____ _____    ______ ____
ROOT
ATOM      1  N   UNL     1       4.768   4.994  18.104  0.00  0.00    +0.000 N 
ATOM      2  N   UNL     1       4.951   3.836  18.791  0.00  0.00    +0.000 NA
ATOM      3  C   UNL     1       3.832   3.694  19.485  0.00  0.00    +0.000 A 
ATOM      4  C   UNL     1       2.911   4.725  19.261  0.00  0.00    +0.000 A 
ATOM      5  C   UNL     1       3.498   5.555  18.325  0.00  0.00    +0.000 A 
ATOM      6  C   UNL     1       1.677   4.651  20.076  0.00  0.00    +0.000 C 
ATOM      7  S   UNL     1       2.015   3.320  21.325  0.00  0.00    +0.000 S 
ATOM      8  C   UNL     1       3.505   2.639  20.465  0.00  0.00    +0.000 C 
ENDROOT
BRANCH   1  10
ATOM      9  C   UNL     1       6.150   6.964  17.394  0.00  0.00    +0.000 C 
ATOM     10  C   UNL     1       5.870   5.441  17.224  0.00  0.00    +0.000 C 
ATOM     11  C   UNL     1       5.510   5.224  15.743  0.00  0.00    +0.000 C 
ATOM     12  C   UNL     1       7.173   4.702  17.570  0.00  0.00    +0.000 C 
ENDBRANCH   1  10
BRANCH   5  13
ATOM     13  N   UNL     1       2.974   6.721  17.750  0.00  0.00    +0.000 N 
ATOM     14  C   UNL     1       2.423   7.827  18.503  0.00  0.00    +0.000 C 
ATOM     15  O   UNL     1       2.323   7.778  19.719  0.00  0.00    +0.000 OA
ATOM     16  H   UNL     1       2.933   6.776  16.743  0.00  0.00    +0.000 HD
BRANCH  14  17
ATOM     17  C   UNL     1       1.944   9.015  17.702  0.00  0.00    +0.000 C 
BRANCH  17  18
ATOM     18  C   UNL     1       0.811   9.768  18.352  0.00  0.00    +0.000 A 
ATOM     19  C   UNL     1       1.070  10.658  19.408  0.00  0.00    +0.000 A 
ATOM     20  C   UNL     1       0.029  11.381  19.994  0.00  0.00    +0.000 A 
ATOM     21  C   UNL     1      -1.269  11.226  19.524  0.00  0.00    +0.000 A 
ATOM     22  F   UNL     1      -2.263  11.921  20.089  0.00  0.00    +0.000 F 
ATOM     23  C   UNL     1      -1.545  10.366  18.468  0.00  0.00    +0.000 A 
ATOM     24  C   UNL     1      -0.506   9.641  17.877  0.00  0.00    +0.000 A 
ENDBRANCH  17  18
ENDBRANCH  14  17
ENDBRANCH   5  13
TORSDOF 4
ENDMDL
MODEL 2
REMARK VINA RESULT:      -7.4      0.087      1.343
REMARK  Name = 
REMARK  7 active torsions:
REMARK  status: ('A' for Active; 'I' for Inactive)
REMARK    1  A    between atoms: C_1  and  C_2
REMARK    2  A    between atoms: C_2  and  C_3
REMARK    3  A    between atoms: C_2  and  C_4
REMARK    4  A    between atoms: C_2  and  N_5
REMARK    5  A    between atoms: C_9  and  N_10
REMARK    6  A    between atoms: C_11  and  C_13
REMARK    7  A    between atoms: C_13  and  C_14
REMARK                            x       y       z     vdW  Elec       q    Type
REMARK                         _______ _______ _______ _____ _____    ______ ____
ROOT
ATOM      1  N   UNL     1       4.754   5.035  18.054  0.00  0.00    +0.000 N 
ATOM      2  N   UNL     1       4.921   3.868  18.729  0.00  0.00    +0.000 NA
ATOM      3  C   UNL     1       3.794   3.725  19.410  0.00  0.00    +0.000 A 
ATOM      4  C   UNL     1       2.883   4.766  19.189  0.00  0.00    +0.000 A 
ATOM      5  C   UNL     1       3.485   5.603  18.269  0.00  0.00    +0.000 A 
ATOM      6  C   UNL     1       1.641   4.691  19.990  0.00  0.00    +0.000 C 
ATOM      7  S   UNL     1       1.956   3.343  21.227  0.00  0.00    +0.000 S 
ATOM      8  C   UNL     1       3.450   2.661  20.373  0.00  0.00    +0.000 C 
ENDROOT
BRANCH   1  10
ATOM      9  C   UNL     1       5.511   5.336  15.681  0.00  0.00    +0.000 C 
ATOM     10  C   UNL     1       5.866   5.485  17.190  0.00  0.00    +0.000 C 
ATOM     11  C   UNL     1       7.126   4.632  17.431  0.00  0.00    +0.000 C 
ATOM     12  C   UNL     1       6.175   6.972  17.435  0.00  0.00    +0.000 C 
ENDBRANCH   1  10
BRANCH   5  13
ATOM     13  N   UNL     1       2.975   6.779  17.703  0.00  0.00    +0.000 N 
ATOM     14  C   UNL     1       2.409   7.873  18.463  0.00  0.00    +0.000 C 
ATOM     15  O   UNL     1       2.284   7.804  19.676  0.00  0.00    +0.000 OA
ATOM     16  H   UNL     1       2.956   6.852  16.696  0.00  0.00    +0.000 HD
BRANCH  14  17
ATOM     17  C   UNL     1       1.950   9.075  17.671  0.00  0.00    +0.000 C 
BRANCH  17  18
ATOM     18  C   UNL     1       0.836   9.847  18.334  0.00  0.00    +0.000 A 
ATOM     19  C   UNL     1      -0.491   9.673  17.909  0.00  0.00    +0.000 A 
ATOM     20  C   UNL     1      -1.531  10.362  18.538  0.00  0.00    +0.000 A 
ATOM     21  C   UNL     1      -1.250  11.218  19.596  0.00  0.00    +0.000 A 
ATOM     22  F   UNL     1      -2.250  11.876  20.195  0.00  0.00    +0.000 F 
ATOM     23  C   UNL     1       0.053  11.390  20.045  0.00  0.00    +0.000 A 
ATOM     24  C   UNL     1       1.097  10.702  19.419  0.00  0.00    +0.000 A 
ENDBRANCH  17  18
ENDBRANCH  14  17
ENDBRANCH   5  13
TORSDOF 4
ENDMDL
MODEL 3
REMARK VINA RESULT:      -7.4      1.119      1.187
REMARK  Name = 
REMARK  7 active torsions:
REMARK  status: ('A' for Active; 'I' for Inactive)
REMARK    1  A    between atoms: C_1  and  C_2
REMARK    2  A    between atoms: C_2  and  C_3
REMARK    3  A    between atoms: C_2  and  C_4
REMARK    4  A    between atoms: C_2  and  N_5
REMARK    5  A    between atoms: C_9  and  N_10
REMARK    6  A    between atoms: C_11  and  C_13
REMARK    7  A    between atoms: C_13  and  C_14
REMARK                            x       y       z     vdW  Elec       q    Type
REMARK                         _______ _______ _______ _____ _____    ______ ____
ROOT
ATOM      1  N   UNL     1       4.934   4.851  17.964  0.00  0.00    +0.000 N 
ATOM      2  N   UNL     1       4.893   3.516  18.214  0.00  0.00    +0.000 NA
ATOM      3  C   UNL     1       3.600   3.233  18.240  0.00  0.00    +0.000 A 
ATOM      4  C   UNL     1       2.788   4.349  18.000  0.00  0.00    +0.000 A 
ATOM      5  C   UNL     1       3.654   5.402  17.774  0.00  0.00    +0.000 A 
ATOM      6  C   UNL     1       1.332   4.097  18.099  0.00  0.00    +0.000 C 
ATOM      7  S   UNL     1       1.195   2.393  18.823  0.00  0.00    +0.000 S 
ATOM      8  C   UNL     1       2.966   1.934  18.541  0.00  0.00    +0.000 C 
ENDROOT
BRANCH   1  10
ATOM      9  C   UNL     1       6.184   6.903  17.242  0.00  0.00    +0.000 C 
ATOM     10  C   UNL     1       6.267   5.485  17.881  0.00  0.00    +0.000 C 
ATOM     11  C   UNL     1       7.213   4.658  16.990  0.00  0.00    +0.000 C 
ATOM     12  C   UNL     1       6.873   5.657  19.284  0.00  0.00    +0.000 C 
ENDBRANCH   1  10
BRANCH   5  13
ATOM     13  N   UNL     1       3.340   6.732  17.467  0.00  0.00    +0.000 N 
ATOM     14  C   UNL     1       2.636   7.631  18.357  0.00  0.00    +0.000 C 
ATOM     15  O   UNL     1       2.208   7.250  19.435  0.00  0.00    +0.000 OA
ATOM     16  H   UNL     1       3.576   7.076  16.548  0.00  0.00    +0.000 HD
BRANCH  14  17
ATOM     17  C   UNL     1       2.429   9.043  17.860  0.00  0.00    +0.000 C 
BRANCH  17  18
ATOM     18  C   UNL     1       1.171   9.691  18.383  0.00  0.00    +0.000 A 
ATOM     19  C   UNL     1       1.224  10.521  19.516  0.00  0.00    +0.000 A 
ATOM     20  C   UNL     1       0.068  11.148  19.987  0.00  0.00    +0.000 A 
ATOM     21  C   UNL     1      -1.139  10.956  19.327  0.00  0.00    +0.000 A 
ATOM     22  F   UNL     1      -2.243  11.559  19.783  0.00  0.00    +0.000 F 
ATOM     23  C   UNL     1      -1.210  10.156  18.194  0.00  0.00    +0.000 A 
ATOM     24  C   UNL     1      -0.056   9.527  17.717  0.00  0.00    +0.000 A 
ENDBRANCH  17  18
ENDBRANCH  14  17
ENDBRANCH   5  13
TORSDOF 4
ENDMDL
MODEL 4
REMARK VINA RESULT:      -7.4      0.488      1.061
REMARK  Name = 
REMARK  7 active torsions:
REMARK  status: ('A' for Active; 'I' for Inactive)
REMARK    1  A    between atoms: C_1  and  C_2
REMARK    2  A    between atoms: C_2  and  C_3
REMARK    3  A    between atoms: C_2  and  C_4
REMARK    4  A    between atoms: C_2  and  N_5
REMARK    5  A    between atoms: C_9  and  N_10
REMARK    6  A    between atoms: C_11  and  C_13
REMARK    7  A    between atoms: C_13  and  C_14
REMARK                            x       y       z     vdW  Elec       q    Type
REMARK                         _______ _______ _______ _____ _____    ______ ____
ROOT
ATOM      1  N   UNL     1       4.657   4.995  17.652  0.00  0.00    +0.000 N 
ATOM      2  N   UNL     1       4.760   3.742  18.167  0.00  0.00    +0.000 NA
ATOM      3  C   UNL     1       3.595   3.543  18.765  0.00  0.00    +0.000 A 
ATOM      4  C   UNL     1       2.723   4.632  18.645  0.00  0.00    +0.000 A 
ATOM      5  C   UNL     1       3.394   5.568  17.880  0.00  0.00    +0.000 A 
ATOM      6  C   UNL     1       1.438   4.488  19.365  0.00  0.00    +0.000 C 
ATOM      7  S   UNL     1       1.653   2.975  20.418  0.00  0.00    +0.000 S 
ATOM      8  C   UNL     1       3.174   2.369  19.554  0.00  0.00    +0.000 C 
ENDROOT
BRANCH   1  10
ATOM      9  C   UNL     1       7.072   4.608  17.096  0.00  0.00    +0.000 C 
ATOM     10  C   UNL     1       5.826   5.523  16.915  0.00  0.00    +0.000 C 
ATOM     11  C   UNL     1       6.223   6.915  17.442  0.00  0.00    +0.000 C 
ATOM     12  C   UNL     1       5.530   5.590  15.407  0.00  0.00    +0.000 C 
ENDBRANCH   1  10
BRANCH   5  13
ATOM     13  N   UNL     1       2.943   6.826  17.457  0.00  0.00    +0.000 N 
ATOM     14  C   UNL     1       2.489   7.873  18.347  0.00  0.00    +0.000 C 
ATOM     15  O   UNL     1       2.411   7.690  19.552  0.00  0.00    +0.000 OA
ATOM     16  H   UNL     1       2.886   7.000  16.464  0.00  0.00    +0.000 HD
BRANCH  14  17
ATOM     17  C   UNL     1       2.082   9.176  17.700  0.00  0.00    +0.000 C 
BRANCH  17  18
ATOM     18  C   UNL     1       0.910   9.847  18.373  0.00  0.00    +0.000 A 
ATOM     19  C   UNL     1       1.123  10.716  19.456  0.00  0.00    +0.000 A 
ATOM     20  C   UNL     1       0.045  11.364  20.064  0.00  0.00    +0.000 A 
ATOM     21  C   UNL     1      -1.244  11.153  19.589  0.00  0.00    +0.000 A 
ATOM     22  F   UNL     1      -2.273  11.776  20.175  0.00  0.00    +0.000 F 
ATOM     23  C   UNL     1      -1.474  10.313  18.508  0.00  0.00    +0.000 A 
ATOM     24  C   UNL     1      -0.399   9.663  17.895  0.00  0.00    +0.000 A 
ENDBRANCH  17  18
ENDBRANCH  14  17
ENDBRANCH   5  13
TORSDOF 4
ENDMDL
MODEL 5
REMARK VINA RESULT:      -7.4      0.819      1.321
REMARK  Name = 
REMARK  7 active torsions:
REMARK  status: ('A' for Active; 'I' for Inactive)
REMARK    1  A    between atoms: C_1  and  C_2
REMARK    2  A    between atoms: C_2  and  C_3
REMARK    3  A    between atoms: C_2  and  C_4
REMARK    4  A    between atoms: C_2  and  N_5
REMARK    5  A    between atoms: C_9  and  N_10
REMARK    6  A    between atoms: C_11  and  C_13
REMARK    7  A    between atoms: C_13  and  C_14
REMARK                            x       y       z     vdW  Elec       q    Type
REMARK                         _______ _______ _______ _____ _____    ______ ____
ROOT
ATOM      1  N   UNL     1       4.532   4.843  18.173  0.00  0.00    +0.000 N 
ATOM      2  N   UNL     1       4.785   3.725  18.902  0.00  0.00    +0.000 NA
ATOM      3  C   UNL     1       3.683   3.548  19.614  0.00  0.00    +0.000 A 
ATOM      4  C   UNL     1       2.704   4.517  19.361  0.00  0.00    +0.000 A 
ATOM      5  C   UNL     1       3.234   5.341  18.386  0.00  0.00    +0.000 A 
ATOM      6  C   UNL     1       1.483   4.407  20.192  0.00  0.00    +0.000 C 
ATOM      7  S   UNL     1       1.906   3.147  21.488  0.00  0.00    +0.000 S 
ATOM      8  C   UNL     1       3.424   2.516  20.638  0.00  0.00    +0.000 C 
ENDROOT
BRANCH   1  10
ATOM      9  C   UNL     1       6.971   4.672  17.616  0.00  0.00    +0.000 C 
ATOM     10  C   UNL     1       5.598   5.315  17.263  0.00  0.00    +0.000 C 
ATOM     11  C   UNL     1       5.784   6.839  17.383  0.00  0.00    +0.000 C 
ATOM     12  C   UNL     1       5.279   4.930  15.809  0.00  0.00    +0.000 C 
ENDBRANCH   1  10
BRANCH   5  13
ATOM     13  N   UNL     1       2.640   6.452  17.773  0.00  0.00    +0.000 N 
ATOM     14  C   UNL     1       2.264   7.665  18.467  0.00  0.00    +0.000 C 
ATOM     15  O   UNL     1       2.390   7.767  19.677  0.00  0.00    +0.000 OA
ATOM     16  H   UNL     1       2.415   6.388  16.791  0.00  0.00    +0.000 HD
BRANCH  14  17
ATOM     17  C   UNL     1       1.674   8.769  17.621  0.00  0.00    +0.000 C 
BRANCH  17  18
ATOM     18  C   UNL     1       1.197   9.956  18.420  0.00  0.00    +0.000 A 
ATOM     19  C   UNL     1       1.960  11.135  18.452  0.00  0.00    +0.000 A 
ATOM     20  C   UNL     1       1.509  12.249  19.166  0.00  0.00    +0.000 A 
ATOM     21  C   UNL     1       0.296  12.191  19.840  0.00  0.00    +0.000 A 
ATOM     22  F   UNL     1      -0.131  13.261  20.522  0.00  0.00    +0.000 F 
ATOM     23  C   UNL     1      -0.483  11.042  19.805  0.00  0.00    +0.000 A 
ATOM     24  C   UNL     1      -0.037   9.925  19.092  0.00  0.00    +0.000 A 
ENDBRANCH  17  18
ENDBRANCH  14  17
ENDBRANCH   5  13
TORSDOF 4
ENDMDL
MODEL 6
REMARK VINA RESULT:      -7.3      1.437      1.950
REMARK  Name = 
REMARK  7 active torsions:
REMARK  status: ('A' for Active; 'I' for Inactive)
REMARK    1  A    between atoms: C_1  and  C_2
REMARK    2  A    between atoms: C_2  and  C_3
REMARK    3  A    between atoms: C_2  and  C_4
REMARK    4  A    between atoms: C_2  and  N_5
REMARK    5  A    between atoms: C_9  and  N_10
REMARK    6  A    between atoms: C_11  and  C_13
REMARK    7  A    between atoms: C_13  and  C_14
REMARK                            x       y       z     vdW  Elec       q    Type
REMARK                         _______ _______ _______ _____ _____    ______ ____
ROOT
ATOM      1  N   UNL     1       5.475   4.969  18.665  0.00  0.00    +0.000 N 
ATOM      2  N   UNL     1       5.590   3.660  19.011  0.00  0.00    +0.000 NA
ATOM      3  C   UNL     1       4.466   3.398  19.659  0.00  0.00    +0.000 A 
ATOM      4  C   UNL     1       3.606   4.501  19.737  0.00  0.00    +0.000 A 
ATOM      5  C   UNL     1       4.240   5.520  19.050  0.00  0.00    +0.000 A 
ATOM      6  C   UNL     1       2.371   4.279  20.522  0.00  0.00    +0.000 C 
ATOM      7  S   UNL     1       2.631   2.644  21.360  0.00  0.00    +0.000 S 
ATOM      8  C   UNL     1       4.078   2.138  20.323  0.00  0.00    +0.000 C 
ENDROOT
BRANCH   1  10
ATOM      9  C   UNL     1       7.305   4.530  17.007  0.00  0.00    +0.000 C 
ATOM     10  C   UNL     1       6.599   5.575  17.920  0.00  0.00    +0.000 C 
ATOM     11  C   UNL     1       7.673   6.108  18.887  0.00  0.00    +0.000 C 
ATOM     12  C   UNL     1       6.097   6.705  17.006  0.00  0.00    +0.000 C 
ENDBRANCH   1  10
BRANCH   5  13
ATOM     13  N   UNL     1       3.784   6.825  18.820  0.00  0.00    +0.000 N 
ATOM     14  C   UNL     1       2.541   7.150  18.154  0.00  0.00    +0.000 C 
ATOM     15  O   UNL     1       1.827   6.279  17.684  0.00  0.00    +0.000 OA
ATOM     16  H   UNL     1       4.382   7.591  19.093  0.00  0.00    +0.000 HD
BRANCH  14  17
ATOM     17  C   UNL     1       2.205   8.619  18.038  0.00  0.00    +0.000 C 
BRANCH  17  18
ATOM     18  C   UNL     1       1.352   9.136  19.170  0.00  0.00    +0.000 A 
ATOM     19  C   UNL     1       0.457  10.196  18.950  0.00  0.00    +0.000 A 
ATOM     20  C   UNL     1      -0.358  10.659  19.986  0.00  0.00    +0.000 A 
ATOM     21  C   UNL     1      -0.287  10.063  21.238  0.00  0.00    +0.000 A 
ATOM     22  F   UNL     1      -1.069  10.510  22.227  0.00  0.00    +0.000 F 
ATOM     23  C   UNL     1       0.577   9.001  21.472  0.00  0.00    +0.000 A 
ATOM     24  C   UNL     1       1.394   8.533  20.439  0.00  0.00    +0.000 A 
ENDBRANCH  17  18
ENDBRANCH  14  17
ENDBRANCH   5  13
TORSDOF 4
ENDMDL
MODEL 7
REMARK VINA RESULT:      -7.3      1.439      1.591
REMARK  Name = 
REMARK  7 active torsions:
REMARK  status: ('A' for Active; 'I' for Inactive)
REMARK    1  A    between atoms: C_1  and  C_2
REMARK    2  A    between atoms: C_2  and  C_3
REMARK    3  A    between atoms: C_2  and  C_4
REMARK    4  A    between atoms: C_2  and  N_5
REMARK    5  A    between atoms: C_9  and  N_10
REMARK    6  A    between atoms: C_11  and  C_13
REMARK    7  A    between atoms: C_13  and  C_14
REMARK                            x       y       z     vdW  Elec       q    Type
REMARK                         _______ _______ _______ _____ _____    ______ ____
ROOT
ATOM      1  N   UNL     1       5.435   4.982  18.555  0.00  0.00    +0.000 N 
ATOM      2  N   UNL     1       5.548   3.668  18.881  0.00  0.00    +0.000 NA
ATOM      3  C   UNL     1       4.454   3.415  19.584  0.00  0.00    +0.000 A 
ATOM      4  C   UNL     1       3.616   4.529  19.717  0.00  0.00    +0.000 A 
ATOM      5  C   UNL     1       4.229   5.546  19.009  0.00  0.00    +0.000 A 
ATOM      6  C   UNL     1       2.419   4.316  20.562  0.00  0.00    +0.000 C 
ATOM      7  S   UNL     1       2.698   2.668  21.368  0.00  0.00    +0.000 S 
ATOM      8  C   UNL     1       4.082   2.153  20.254  0.00  0.00    +0.000 C 
ENDROOT
BRANCH   1  10
ATOM      9  C   UNL     1       7.555   6.317  18.670  0.00  0.00    +0.000 C 
ATOM     10  C   UNL     1       6.529   5.579  17.760  0.00  0.00    +0.000 C 
ATOM     11  C   UNL     1       5.980   6.629  16.777  0.00  0.00    +0.000 C 
ATOM     12  C   UNL     1       7.303   4.490  16.999  0.00  0.00    +0.000 C 
ENDBRANCH   1  10
BRANCH   5  13
ATOM     13  N   UNL     1       3.782   6.860  18.816  0.00  0.00    +0.000 N 
ATOM     14  C   UNL     1       2.528   7.211  18.185  0.00  0.00    +0.000 C 
ATOM     15  O   UNL     1       1.793   6.357  17.715  0.00  0.00    +0.000 OA
ATOM     16  H   UNL     1       4.394   7.615  19.090  0.00  0.00    +0.000 HD
BRANCH  14  17
ATOM     17  C   UNL     1       2.204   8.685  18.107  0.00  0.00    +0.000 C 
BRANCH  17  18
ATOM     18  C   UNL     1       1.300   9.167  19.215  0.00  0.00    +0.000 A 
ATOM     19  C   UNL     1       1.359   8.567  20.484  0.00  0.00    +0.000 A 
ATOM     20  C   UNL     1       0.547   9.028  21.522  0.00  0.00    +0.000 A 
ATOM     21  C   UNL     1      -0.319  10.092  21.300  0.00  0.00    +0.000 A 
ATOM     22  F   UNL     1      -1.095  10.530  22.298  0.00  0.00    +0.000 F 
ATOM     23  C   UNL     1      -0.380  10.712  20.059  0.00  0.00    +0.000 A 
ATOM     24  C   UNL     1       0.432  10.255  19.017  0.00  0.00    +0.000 A 
ENDBRANCH  17  18
ENDBRANCH  14  17
ENDBRANCH   5  13
TORSDOF 4
ENDMDL
MODEL 8
REMARK VINA RESULT:      -7.3      0.914      1.290
REMARK  Name = 
REMARK  7 active torsions:
REMARK  status: ('A' for Active; 'I' for Inactive)
REMARK    1  A    between atoms: C_1  and  C_2
REMARK    2  A    between atoms: C_2  and  C_3
REMARK    3  A    between atoms: C_2  and  C_4
REMARK    4  A    between atoms: C_2  and  N_5
REMARK    5  A    between atoms: C_9  and  N_10
REMARK    6  A    between atoms: C_11  and  C_13
REMARK    7  A    between atoms: C_13  and  C_14
REMARK                            x       y       z     vdW  Elec       q    Type
REMARK                         _______ _______ _______ _____ _____    ______ ____
ROOT
ATOM      1  N   UNL     1       4.769   4.824  18.206  0.00  0.00    +0.000 N 
ATOM      2  N   UNL     1       5.055   3.719  18.943  0.00  0.00    +0.000 NA
ATOM      3  C   UNL     1       3.950   3.499  19.638  0.00  0.00    +0.000 A 
ATOM      4  C   UNL     1       2.937   4.428  19.367  0.00  0.00    +0.000 A 
ATOM      5  C   UNL     1       3.449   5.271  18.398  0.00  0.00    +0.000 A 
ATOM      6  C   UNL     1       1.709   4.270  20.179  0.00  0.00    +0.000 C 
ATOM      7  S   UNL     1       2.162   3.031  21.485  0.00  0.00    +0.000 S 
ATOM      8  C   UNL     1       3.717   2.460  20.660  0.00  0.00    +0.000 C 
ENDROOT
BRANCH   1  10
ATOM      9  C   UNL     1       6.012   6.876  17.473  0.00  0.00    +0.000 C 
ATOM     10  C   UNL     1       5.829   5.338  17.313  0.00  0.00    +0.000 C 
ATOM     11  C   UNL     1       5.468   5.091  15.837  0.00  0.00    +0.000 C 
ATOM     12  C   UNL     1       7.181   4.686  17.647  0.00  0.00    +0.000 C 
ENDBRANCH   1  10
BRANCH   5  13
ATOM     13  N   UNL     1       2.820   6.355  17.773  0.00  0.00    +0.000 N 
ATOM     14  C   UNL     1       2.376   7.549  18.460  0.00  0.00    +0.000 C 
ATOM     15  O   UNL     1       2.471   7.655  19.673  0.00  0.00    +0.000 OA
ATOM     16  H   UNL     1       2.620   6.283  16.786  0.00  0.00    +0.000 HD
BRANCH  14  17
ATOM     17  C   UNL     1       1.757   8.628  17.602  0.00  0.00    +0.000 C 
BRANCH  17  18
ATOM     18  C   UNL     1       1.333   9.850  18.377  0.00  0.00    +0.000 A 
ATOM     19  C   UNL     1       0.224   9.790  19.236  0.00  0.00    +0.000 A 
ATOM     20  C   UNL     1      -0.156  10.910  19.980  0.00  0.00    +0.000 A 
ATOM     21  C   UNL     1       0.573  12.087  19.875  0.00  0.00    +0.000 A 
ATOM     22  F   UNL     1       0.206  13.157  20.590  0.00  0.00    +0.000 F 
ATOM     23  C   UNL     1       1.685  12.163  19.046  0.00  0.00    +0.000 A 
ATOM     24  C   UNL     1       2.070  11.045  18.301  0.00  0.00    +0.000 A 
ENDBRANCH  17  18
ENDBRANCH  14  17
ENDBRANCH   5  13
TORSDOF 4
ENDMDL
MODEL 9
REMARK VINA RESULT:      -7.2      2.310      3.757
REMARK  Name = 
REMARK  7 active torsions:
REMARK  status: ('A' for Active; 'I' for Inactive)
REMARK    1  A    between atoms: C_1  and  C_2
REMARK    2  A    between atoms: C_2  and  C_3
REMARK    3  A    between atoms: C_2  and  C_4
REMARK    4  A    between atoms: C_2  and  N_5
REMARK    5  A    between atoms: C_9  and  N_10
REMARK    6  A    between atoms: C_11  and  C_13
REMARK    7  A    between atoms: C_13  and  C_14
REMARK                            x       y       z     vdW  Elec       q    Type
REMARK                         _______ _______ _______ _____ _____    ______ ____
ROOT
ATOM      1  N   UNL     1       3.432   4.391  18.597  0.00  0.00    +0.000 N 
ATOM      2  N   UNL     1       4.553   3.680  18.308  0.00  0.00    +0.000 NA
ATOM      3  C   UNL     1       5.138   4.376  17.346  0.00  0.00    +0.000 A 
ATOM      4  C   UNL     1       4.434   5.537  17.002  0.00  0.00    +0.000 A 
ATOM      5  C   UNL     1       3.340   5.577  17.847  0.00  0.00    +0.000 A 
ATOM      6  C   UNL     1       5.007   6.307  15.875  0.00  0.00    +0.000 C 
ATOM      7  S   UNL     1       6.317   5.200  15.164  0.00  0.00    +0.000 S 
ATOM      8  C   UNL     1       6.364   4.032  16.599  0.00  0.00    +0.000 C 
ENDROOT
BRANCH   1  10
ATOM      9  C   UNL     1       3.197   2.653  20.390  0.00  0.00    +0.000 C 
ATOM     10  C   UNL     1       2.542   3.857  19.650  0.00  0.00    +0.000 C 
ATOM     11  C   UNL     1       1.227   3.335  19.043  0.00  0.00    +0.000 C 
ATOM     12  C   UNL     1       2.250   4.933  20.709  0.00  0.00    +0.000 C 
ENDBRANCH   1  10
BRANCH   5  13
ATOM     13  N   UNL     1       2.336   6.552  17.920  0.00  0.00    +0.000 N 
ATOM     14  C   UNL     1       2.584   7.976  17.985  0.00  0.00    +0.000 C 
ATOM     15  O   UNL     1       3.720   8.420  18.045  0.00  0.00    +0.000 OA
ATOM     16  H   UNL     1       1.378   6.242  17.979  0.00  0.00    +0.000 HD
BRANCH  14  17
ATOM     17  C   UNL     1       1.366   8.870  18.017  0.00  0.00    +0.000 C 
BRANCH  17  18
ATOM     18  C   UNL     1       0.931   9.252  19.410  0.00  0.00    +0.000 A 
ATOM     19  C   UNL     1       0.027  10.310  19.600  0.00  0.00    +0.000 A 
ATOM     20  C   UNL     1      -0.404  10.649  20.885  0.00  0.00    +0.000 A 
ATOM     21  C   UNL     1       0.058   9.930  21.979  0.00  0.00    +0.000 A 
ATOM     22  F   UNL     1      -0.357  10.259  23.208  0.00  0.00    +0.000 F 
ATOM     23  C   UNL     1       0.937   8.867  21.812  0.00  0.00    +0.000 A 
ATOM     24  C   UNL     1       1.370   8.523  20.529  0.00  0.00    +0.000 A 
ENDBRANCH  17  18
ENDBRANCH  14  17
ENDBRANCH   5  13
TORSDOF 4
ENDMDL
