MODEL 1
REMARK VINA RESULT:      -6.7      0.000      0.000
REMARK  Name = 
REMARK  6 active torsions:
REMARK  status: ('A' for Active; 'I' for Inactive)
REMARK    1  A    between atoms: C_1  and  C_2
REMARK    2  A    between atoms: C_2  and  O_3
REMARK    3  A    between atoms: O_3  and  C_4
REMARK    4  A    between atoms: C_4  and  C_6
REMARK    5  A    between atoms: C_10  and  N_11
REMARK    6  A    between atoms: C_12  and  C_14
REMARK                            x       y       z     vdW  Elec       q    Type
REMARK                         _______ _______ _______ _____ _____    ______ ____
ROOT
ATOM      1  C   UNL     1       5.411   5.227  15.737  0.00  0.00    +0.000 A 
ATOM      2  C   UNL     1       5.257   6.581  16.059  0.00  0.00    +0.000 A 
ATOM      3  C   UNL     1       4.440   6.957  17.116  0.00  0.00    +0.000 A 
ATOM      4  C   UNL     1       3.756   5.985  17.849  0.00  0.00    +0.000 A 
ATOM      5  C   UNL     1       3.872   4.630  17.527  0.00  0.00    +0.000 A 
ATOM      6  C   UNL     1       4.714   4.254  16.474  0.00  0.00    +0.000 A 
ENDROOT
BRANCH   5   7
ATOM      7  N   UNL     1       3.199   3.610  18.232  0.00  0.00    +0.000 N 
ATOM      8  C   UNL     1       1.854   3.294  18.158  0.00  0.00    +0.000 C 
ATOM      9  O   UNL     1       1.027   3.844  17.428  0.00  0.00    +0.000 OA
ATOM     10  H   UNL     1       3.774   2.973  18.777  0.00  0.00    +0.000 HD
BRANCH   8  11
ATOM     11  C   UNL     1       1.386   2.220  19.126  0.00  0.00    +0.000 C 
ATOM     12 CL   UNL     1       1.117   2.851  20.764  0.00  0.00    +0.000 Cl
ENDBRANCH   8  11
ENDBRANCH   5   7
BRANCH   1  13
ATOM     13  C   UNL     1       6.367   4.774  14.692  0.00  0.00    +0.000 C 
ATOM     14  O   UNL     1       7.505   5.198  14.585  0.00  0.00    +0.000 OA
BRANCH  13  15
ATOM     15  O   UNL     1       5.730   3.945  13.828  0.00  0.00    +0.000 OA
BRANCH  15  17
ATOM     16  C   UNL     1       5.603   2.666  11.818  0.00  0.00    +0.000 C 
ATOM     17  C   UNL     1       6.397   3.709  12.582  0.00  0.00    +0.000 C 
ENDBRANCH  15  17
ENDBRANCH  13  15
ENDBRANCH   1  13
TORSDOF 5
ENDMDL
MODEL 2
REMARK VINA RESULT:      -6.5      1.326      1.403
REMARK  Name = 
REMARK  6 active torsions:
REMARK  status: ('A' for Active; 'I' for Inactive)
REMARK    1  A    between atoms: C_1  and  C_2
REMARK    2  A    between atoms: C_2  and  O_3
REMARK    3  A    between atoms: O_3  and  C_4
REMARK    4  A    between atoms: C_4  and  C_6
REMARK    5  A    between atoms: C_10  and  N_11
REMARK    6  A    between atoms: C_12  and  C_14
REMARK                            x       y       z     vdW  Elec       q    Type
REMARK                         _______ _______ _______ _____ _____    ______ ____
ROOT
ATOM      1  C   UNL     1       6.398   4.683  16.143  0.00  0.00    +0.000 A 
ATOM      2  C   UNL     1       7.162   5.298  17.143  0.00  0.00    +0.000 A 
ATOM      3  C   UNL     1       6.751   5.241  18.468  0.00  0.00    +0.000 A 
ATOM      4  C   UNL     1       5.566   4.585  18.803  0.00  0.00    +0.000 A 
ATOM      5  C   UNL     1       4.772   3.989  17.818  0.00  0.00    +0.000 A 
ATOM      6  C   UNL     1       5.201   4.031  16.487  0.00  0.00    +0.000 A 
ENDROOT
BRANCH   5   7
ATOM      7  N   UNL     1       3.564   3.319  18.103  0.00  0.00    +0.000 N 
ATOM      8  C   UNL     1       2.288   3.855  18.079  0.00  0.00    +0.000 C 
ATOM      9  O   UNL     1       2.002   5.012  17.769  0.00  0.00    +0.000 OA
ATOM     10  H   UNL     1       3.619   2.313  18.243  0.00  0.00    +0.000 HD
BRANCH   8  11
ATOM     11  C   UNL     1       1.184   2.922  18.549  0.00  0.00    +0.000 C 
ATOM     12 CL   UNL     1       0.940   2.989  20.307  0.00  0.00    +0.000 Cl
ENDBRANCH   8  11
ENDBRANCH   5   7
BRANCH   1  13
ATOM     13  C   UNL     1       6.862   4.618  14.732  0.00  0.00    +0.000 C 
ATOM     14  O   UNL     1       7.687   5.376  14.254  0.00  0.00    +0.000 OA
BRANCH  13  15
ATOM     15  O   UNL     1       6.131   3.694  14.060  0.00  0.00    +0.000 OA
BRANCH  15  17
ATOM     16  C   UNL     1       5.036   3.269  11.983  0.00  0.00    +0.000 C 
ATOM     17  C   UNL     1       6.353   3.629  12.646  0.00  0.00    +0.000 C 
ENDBRANCH  15  17
ENDBRANCH  13  15
ENDBRANCH   1  13
TORSDOF 5
ENDMDL
MODEL 3
REMARK VINA RESULT:      -6.5      3.163      6.083
REMARK  Name = 
REMARK  6 active torsions:
REMARK  status: ('A' for Active; 'I' for Inactive)
REMARK    1  A    between atoms: C_1  and  C_2
REMARK    2  A    between atoms: C_2  and  O_3
REMARK    3  A    between atoms: O_3  and  C_4
REMARK    4  A    between atoms: C_4  and  C_6
REMARK    5  A    between atoms: C_10  and  N_11
REMARK    6  A    between atoms: C_12  and  C_14
REMARK                            x       y       z     vdW  Elec       q    Type
REMARK                         _______ _______ _______ _____ _____    ______ ____
ROOT
ATOM      1  C   UNL     1       4.456   4.164  18.400  0.00  0.00    +0.000 A 
ATOM      2  C   UNL     1       4.265   5.522  18.686  0.00  0.00    +0.000 A 
ATOM      3  C   UNL     1       4.448   6.475  17.694  0.00  0.00    +0.000 A 
ATOM      4  C   UNL     1       4.841   6.083  16.413  0.00  0.00    +0.000 A 
ATOM      5  C   UNL     1       5.066   4.736  16.112  0.00  0.00    +0.000 A 
ATOM      6  C   UNL     1       4.859   3.777  17.111  0.00  0.00    +0.000 A 
ENDROOT
BRANCH   5   7
ATOM      7  N   UNL     1       5.468   4.288  14.837  0.00  0.00    +0.000 N 
ATOM      8  C   UNL     1       6.663   4.564  14.195  0.00  0.00    +0.000 C 
ATOM      9  O   UNL     1       7.589   5.230  14.660  0.00  0.00    +0.000 OA
ATOM     10  H   UNL     1       4.865   3.610  14.378  0.00  0.00    +0.000 HD
BRANCH   8  11
ATOM     11  C   UNL     1       6.770   4.041  12.772  0.00  0.00    +0.000 C 
ATOM     12 CL   UNL     1       5.250   3.328  12.194  0.00  0.00    +0.000 Cl
ENDBRANCH   8  11
ENDBRANCH   5   7
BRANCH   1  13
ATOM     13  C   UNL     1       4.155   3.104  19.398  0.00  0.00    +0.000 C 
ATOM     14  O   UNL     1       5.010   2.497  20.020  0.00  0.00    +0.000 OA
BRANCH  13  15
ATOM     15  O   UNL     1       2.824   2.843  19.390  0.00  0.00    +0.000 OA
BRANCH  15  17
ATOM     16  C   UNL     1       0.959   4.003  20.321  0.00  0.00    +0.000 C 
ATOM     17  C   UNL     1       2.132   3.090  20.620  0.00  0.00    +0.000 C 
ENDBRANCH  15  17
ENDBRANCH  13  15
ENDBRANCH   1  13
TORSDOF 5
ENDMDL
MODEL 4
REMARK VINA RESULT:      -6.4      1.828      1.835
REMARK  Name = 
REMARK  6 active torsions:
REMARK  status: ('A' for Active; 'I' for Inactive)
REMARK    1  A    between atoms: C_1  and  C_2
REMARK    2  A    between atoms: C_2  and  O_3
REMARK    3  A    between atoms: O_3  and  C_4
REMARK    4  A    between atoms: C_4  and  C_6
REMARK    5  A    between atoms: C_10  and  N_11
REMARK    6  A    between atoms: C_12  and  C_14
REMARK                            x       y       z     vdW  Elec       q    Type
REMARK                         _______ _______ _______ _____ _____    ______ ____
ROOT
ATOM      1  C   UNL     1       6.496   5.078  15.955  0.00  0.00    +0.000 A 
ATOM      2  C   UNL     1       7.176   5.956  16.807  0.00  0.00    +0.000 A 
ATOM      3  C   UNL     1       6.774   6.096  18.128  0.00  0.00    +0.000 A 
ATOM      4  C   UNL     1       5.678   5.375  18.604  0.00  0.00    +0.000 A 
ATOM      5  C   UNL     1       4.965   4.514  17.763  0.00  0.00    +0.000 A 
ATOM      6  C   UNL     1       5.388   4.360  16.438  0.00  0.00    +0.000 A 
ENDROOT
BRANCH   5   7
ATOM      7  N   UNL     1       3.849   3.767  18.193  0.00  0.00    +0.000 N 
ATOM      8  C   UNL     1       3.825   2.798  19.181  0.00  0.00    +0.000 C 
ATOM      9  O   UNL     1       4.786   2.455  19.871  0.00  0.00    +0.000 OA
ATOM     10  H   UNL     1       2.945   4.032  17.811  0.00  0.00    +0.000 HD
BRANCH   8  11
ATOM     11  C   UNL     1       2.500   2.072  19.346  0.00  0.00    +0.000 C 
ATOM     12 CL   UNL     1       1.111   3.087  18.904  0.00  0.00    +0.000 Cl
ENDBRANCH   8  11
ENDBRANCH   5   7
BRANCH   1  13
ATOM     13  C   UNL     1       6.966   4.808  14.570  0.00  0.00    +0.000 C 
ATOM     14  O   UNL     1       7.818   5.471  14.003  0.00  0.00    +0.000 OA
BRANCH  13  15
ATOM     15  O   UNL     1       6.211   3.824  14.022  0.00  0.00    +0.000 OA
BRANCH  15  17
ATOM     16  C   UNL     1       5.038   3.293  12.013  0.00  0.00    +0.000 C 
ATOM     17  C   UNL     1       6.395   3.604  12.618  0.00  0.00    +0.000 C 
ENDBRANCH  15  17
ENDBRANCH  13  15
ENDBRANCH   1  13
TORSDOF 5
ENDMDL
MODEL 5
REMARK VINA RESULT:      -6.4      1.351      1.351
REMARK  Name = 
REMARK  6 active torsions:
REMARK  status: ('A' for Active; 'I' for Inactive)
REMARK    1  A    between atoms: C_1  and  C_2
REMARK    2  A    between atoms: C_2  and  O_3
REMARK    3  A    between atoms: O_3  and  C_4
REMARK    4  A    between atoms: C_4  and  C_6
REMARK    5  A    between atoms: C_10  and  N_11
REMARK    6  A    between atoms: C_12  and  C_14
REMARK                            x       y       z     vdW  Elec       q    Type
REMARK                         _______ _______ _______ _____ _____    ______ ____
ROOT
ATOM      1  C   UNL     1       5.670   5.238  15.514  0.00  0.00    +0.000 A 
ATOM      2  C   UNL     1       5.566   6.595  15.845  0.00  0.00    +0.000 A 
ATOM      3  C   UNL     1       4.732   6.999  16.878  0.00  0.00    +0.000 A 
ATOM      4  C   UNL     1       3.980   6.053  17.577  0.00  0.00    +0.000 A 
ATOM      5  C   UNL     1       4.045   4.697  17.246  0.00  0.00    +0.000 A 
ATOM      6  C   UNL     1       4.904   4.292  16.217  0.00  0.00    +0.000 A 
ENDROOT
BRANCH   5   7
ATOM      7  N   UNL     1       3.303   3.703  17.917  0.00  0.00    +0.000 N 
ATOM      8  C   UNL     1       3.715   2.944  18.999  0.00  0.00    +0.000 C 
ATOM      9  O   UNL     1       4.800   3.043  19.572  0.00  0.00    +0.000 OA
ATOM     10  H   UNL     1       2.328   3.597  17.648  0.00  0.00    +0.000 HD
BRANCH   8  11
ATOM     11  C   UNL     1       2.743   1.862  19.439  0.00  0.00    +0.000 C 
ATOM     12 CL   UNL     1       1.135   2.509  19.827  0.00  0.00    +0.000 Cl
ENDBRANCH   8  11
ENDBRANCH   5   7
BRANCH   1  13
ATOM     13  C   UNL     1       6.639   4.752  14.497  0.00  0.00    +0.000 C 
ATOM     14  O   UNL     1       7.641   5.363  14.168  0.00  0.00    +0.000 OA
BRANCH  13  15
ATOM     15  O   UNL     1       6.158   3.621  13.922  0.00  0.00    +0.000 OA
BRANCH  15  17
ATOM     16  C   UNL     1       4.946   3.295  11.892  0.00  0.00    +0.000 C 
ATOM     17  C   UNL     1       6.317   3.527  12.501  0.00  0.00    +0.000 C 
ENDBRANCH  15  17
ENDBRANCH  13  15
ENDBRANCH   1  13
TORSDOF 5
ENDMDL
MODEL 6
REMARK VINA RESULT:      -6.3      1.435      1.699
REMARK  Name = 
REMARK  6 active torsions:
REMARK  status: ('A' for Active; 'I' for Inactive)
REMARK    1  A    between atoms: C_1  and  C_2
REMARK    2  A    between atoms: C_2  and  O_3
REMARK    3  A    between atoms: O_3  and  C_4
REMARK    4  A    between atoms: C_4  and  C_6
REMARK    5  A    between atoms: C_10  and  N_11
REMARK    6  A    between atoms: C_12  and  C_14
REMARK                            x       y       z     vdW  Elec       q    Type
REMARK                         _______ _______ _______ _____ _____    ______ ____
ROOT
ATOM      1  C   UNL     1       5.525   5.562  17.152  0.00  0.00    +0.000 A 
ATOM      2  C   UNL     1       5.064   6.853  16.867  0.00  0.00    +0.000 A 
ATOM      3  C   UNL     1       3.867   7.300  17.409  0.00  0.00    +0.000 A 
ATOM      4  C   UNL     1       3.112   6.457  18.225  0.00  0.00    +0.000 A 
ATOM      5  C   UNL     1       3.538   5.154  18.500  0.00  0.00    +0.000 A 
ATOM      6  C   UNL     1       4.756   4.715  17.969  0.00  0.00    +0.000 A 
ENDROOT
BRANCH   5   7
ATOM      7  N   UNL     1       2.811   4.261  19.315  0.00  0.00    +0.000 N 
ATOM      8  C   UNL     1       1.701   3.518  18.953  0.00  0.00    +0.000 C 
ATOM      9  O   UNL     1       1.186   3.499  17.834  0.00  0.00    +0.000 OA
ATOM     10  H   UNL     1       3.197   4.061  20.234  0.00  0.00    +0.000 HD
BRANCH   8  11
ATOM     11  C   UNL     1       1.053   2.730  20.079  0.00  0.00    +0.000 C 
ATOM     12 CL   UNL     1       1.964   2.842  21.599  0.00  0.00    +0.000 Cl
ENDBRANCH   8  11
ENDBRANCH   5   7
BRANCH   1  13
ATOM     13  C   UNL     1       6.856   5.086  16.691  0.00  0.00    +0.000 C 
ATOM     14  O   UNL     1       7.609   4.413  17.373  0.00  0.00    +0.000 OA
BRANCH  13  15
ATOM     15  O   UNL     1       7.133   5.629  15.479  0.00  0.00    +0.000 OA
BRANCH  15  17
ATOM     16  C   UNL     1       5.829   4.179  14.105  0.00  0.00    +0.000 C 
ATOM     17  C   UNL     1       7.223   4.706  14.387  0.00  0.00    +0.000 C 
ENDBRANCH  15  17
ENDBRANCH  13  15
ENDBRANCH   1  13
TORSDOF 5
ENDMDL
MODEL 7
REMARK VINA RESULT:      -6.3      2.785      4.147
REMARK  Name = 
REMARK  6 active torsions:
REMARK  status: ('A' for Active; 'I' for Inactive)
REMARK    1  A    between atoms: C_1  and  C_2
REMARK    2  A    between atoms: C_2  and  O_3
REMARK    3  A    between atoms: O_3  and  C_4
REMARK    4  A    between atoms: C_4  and  C_6
REMARK    5  A    between atoms: C_10  and  N_11
REMARK    6  A    between atoms: C_12  and  C_14
REMARK                            x       y       z     vdW  Elec       q    Type
REMARK                         _______ _______ _______ _____ _____    ______ ____
ROOT
ATOM      1  C   UNL     1       6.710   4.951  18.052  0.00  0.00    +0.000 A 
ATOM      2  C   UNL     1       7.115   4.639  16.749  0.00  0.00    +0.000 A 
ATOM      3  C   UNL     1       6.226   4.041  15.867  0.00  0.00    +0.000 A 
ATOM      4  C   UNL     1       4.930   3.732  16.285  0.00  0.00    +0.000 A 
ATOM      5  C   UNL     1       4.513   4.008  17.591  0.00  0.00    +0.000 A 
ATOM      6  C   UNL     1       5.406   4.631  18.469  0.00  0.00    +0.000 A 
ENDROOT
BRANCH   5   7
ATOM      7  N   UNL     1       3.217   3.712  18.064  0.00  0.00    +0.000 N 
ATOM      8  C   UNL     1       2.731   2.473  18.443  0.00  0.00    +0.000 C 
ATOM      9  O   UNL     1       3.375   1.424  18.455  0.00  0.00    +0.000 OA
ATOM     10  H   UNL     1       2.603   4.503  18.242  0.00  0.00    +0.000 HD
BRANCH   8  11
ATOM     11  C   UNL     1       1.254   2.438  18.799  0.00  0.00    +0.000 C 
ATOM     12 CL   UNL     1       0.809   3.686  19.982  0.00  0.00    +0.000 Cl
ENDBRANCH   8  11
ENDBRANCH   5   7
BRANCH   1  13
ATOM     13  C   UNL     1       7.590   5.698  18.989  0.00  0.00    +0.000 C 
ATOM     14  O   UNL     1       7.605   5.520  20.194  0.00  0.00    +0.000 OA
BRANCH  13  15
ATOM     15  O   UNL     1       8.246   6.673  18.310  0.00  0.00    +0.000 OA
BRANCH  15  17
ATOM     16  C   UNL     1       8.228   9.040  18.016  0.00  0.00    +0.000 C 
ATOM     17  C   UNL     1       7.438   7.757  17.837  0.00  0.00    +0.000 C 
ENDBRANCH  15  17
ENDBRANCH  13  15
ENDBRANCH   1  13
TORSDOF 5
ENDMDL
MODEL 8
REMARK VINA RESULT:      -6.3      1.592      1.743
REMARK  Name = 
REMARK  6 active torsions:
REMARK  status: ('A' for Active; 'I' for Inactive)
REMARK    1  A    between atoms: C_1  and  C_2
REMARK    2  A    between atoms: C_2  and  O_3
REMARK    3  A    between atoms: O_3  and  C_4
REMARK    4  A    between atoms: C_4  and  C_6
REMARK    5  A    between atoms: C_10  and  N_11
REMARK    6  A    between atoms: C_12  and  C_14
REMARK                            x       y       z     vdW  Elec       q    Type
REMARK                         _______ _______ _______ _____ _____    ______ ____
ROOT
ATOM      1  C   UNL     1       6.584   4.931  15.938  0.00  0.00    +0.000 A 
ATOM      2  C   UNL     1       7.564   5.103  16.924  0.00  0.00    +0.000 A 
ATOM      3  C   UNL     1       7.207   5.124  18.265  0.00  0.00    +0.000 A 
ATOM      4  C   UNL     1       5.867   4.990  18.632  0.00  0.00    +0.000 A 
ATOM      5  C   UNL     1       4.868   4.846  17.664  0.00  0.00    +0.000 A 
ATOM      6  C   UNL     1       5.236   4.805  16.314  0.00  0.00    +0.000 A 
ENDROOT
BRANCH   5   7
ATOM      7  N   UNL     1       3.501   4.713  17.982  0.00  0.00    +0.000 N 
ATOM      8  C   UNL     1       2.779   3.536  18.079  0.00  0.00    +0.000 C 
ATOM      9  O   UNL     1       3.235   2.401  17.931  0.00  0.00    +0.000 OA
ATOM     10  H   UNL     1       3.012   5.557  18.269  0.00  0.00    +0.000 HD
BRANCH   8  11
ATOM     11  C   UNL     1       1.288   3.707  18.320  0.00  0.00    +0.000 C 
ATOM     12 CL   UNL     1       0.497   2.189  18.793  0.00  0.00    +0.000 Cl
ENDBRANCH   8  11
ENDBRANCH   5   7
BRANCH   1  13
ATOM     13  C   UNL     1       6.936   4.784  14.501  0.00  0.00    +0.000 C 
ATOM     14  O   UNL     1       7.763   5.475  13.932  0.00  0.00    +0.000 OA
BRANCH  13  15
ATOM     15  O   UNL     1       6.107   3.878  13.925  0.00  0.00    +0.000 OA
BRANCH  15  17
ATOM     16  C   UNL     1       5.033   3.197  11.906  0.00  0.00    +0.000 C 
ATOM     17  C   UNL     1       6.352   3.600  12.541  0.00  0.00    +0.000 C 
ENDBRANCH  15  17
ENDBRANCH  13  15
ENDBRANCH   1  13
TORSDOF 5
ENDMDL
MODEL 9
REMARK VINA RESULT:      -6.2      2.328      3.256
REMARK  Name = 
REMARK  6 active torsions:
REMARK  status: ('A' for Active; 'I' for Inactive)
REMARK    1  A    between atoms: C_1  and  C_2
REMARK    2  A    between atoms: C_2  and  O_3
REMARK    3  A    between atoms: O_3  and  C_4
REMARK    4  A    between atoms: C_4  and  C_6
REMARK    5  A    between atoms: C_10  and  N_11
REMARK    6  A    between atoms: C_12  and  C_14
REMARK                            x       y       z     vdW  Elec       q    Type
REMARK                         _______ _______ _______ _____ _____    ______ ____
ROOT
ATOM      1  C   UNL     1       5.561   5.887  17.118  0.00  0.00    +0.000 A 
ATOM      2  C   UNL     1       4.883   7.088  16.874  0.00  0.00    +0.000 A 
ATOM      3  C   UNL     1       3.607   7.283  17.385  0.00  0.00    +0.000 A 
ATOM      4  C   UNL     1       2.990   6.275  18.127  0.00  0.00    +0.000 A 
ATOM      5  C   UNL     1       3.636   5.057  18.359  0.00  0.00    +0.000 A 
ATOM      6  C   UNL     1       4.931   4.873  17.860  0.00  0.00    +0.000 A 
ENDROOT
BRANCH   5   7
ATOM      7  N   UNL     1       3.057   4.005  19.098  0.00  0.00    +0.000 N 
ATOM      8  C   UNL     1       2.227   3.006  18.617  0.00  0.00    +0.000 C 
ATOM      9  O   UNL     1       1.887   2.862  17.442  0.00  0.00    +0.000 OA
ATOM     10  H   UNL     1       3.355   3.905  20.065  0.00  0.00    +0.000 HD
BRANCH   8  11
ATOM     11  C   UNL     1       1.655   2.074  19.672  0.00  0.00    +0.000 C 
ATOM     12 CL   UNL     1       1.243   2.923  21.177  0.00  0.00    +0.000 Cl
ENDBRANCH   8  11
ENDBRANCH   5   7
BRANCH   1  13
ATOM     13  C   UNL     1       6.971   5.684  16.692  0.00  0.00    +0.000 C 
ATOM     14  O   UNL     1       7.460   4.590  16.467  0.00  0.00    +0.000 OA
BRANCH  13  15
ATOM     15  O   UNL     1       7.629   6.869  16.735  0.00  0.00    +0.000 OA
BRANCH  15  17
ATOM     16  C   UNL     1       8.154   8.857  17.944  0.00  0.00    +0.000 C 
ATOM     17  C   UNL     1       7.955   7.356  18.042  0.00  0.00    +0.000 C 
ENDBRANCH  15  17
ENDBRANCH  13  15
ENDBRANCH   1  13
TORSDOF 5
ENDMDL
