MODEL 1
REMARK VINA RESULT:      -9.3      0.000      0.000
REMARK  Name = 
REMARK  5 active torsions:
REMARK  status: ('A' for Active; 'I' for Inactive)
REMARK    1  A    between atoms: C_2  and  C_18
REMARK    2  A    between atoms: N_3  and  C_4
REMARK    3  A    between atoms: C_7  and  S_8
REMARK    4  A    between atoms: S_8  and  N_11
REMARK    5  A    between atoms: C_20  and  C_21
REMARK                            x       y       z     vdW  Elec       q    Type
REMARK                         _______ _______ _______ _____ _____    ______ ____
ROOT
ATOM      1  O   UNL     1       2.317  10.673  17.916  0.00  0.00    +0.000 OA
ATOM      2  C   UNL     1       1.379  10.296  18.622  0.00  0.00    +0.000 C 
ATOM      3  N   UNL     1       1.259   8.959  19.026  0.00  0.00    +0.000 N 
ATOM      4  H   UNL     1       0.379   8.659  19.420  0.00  0.00    +0.000 HD
ENDROOT
BRANCH   2   5
ATOM      5  C   UNL     1       0.514  11.418  19.222  0.00  0.00    +0.000 A 
ATOM      6  C   UNL     1      -0.596  10.745  19.746  0.00  0.00    +0.000 A 
ATOM      7  C   UNL     1      -1.783  11.382  19.582  0.00  0.00    +0.000 A 
ATOM      8  N   UNL     1      -1.792  12.565  20.195  0.00  0.00    +0.000 NA
ATOM      9  C   UNL     1      -0.826  13.380  19.815  0.00  0.00    +0.000 A 
ATOM     10  C   UNL     1      -1.249  14.691  19.773  0.00  0.00    +0.000 A 
ATOM     11  C   UNL     1      -0.448  15.668  19.234  0.00  0.00    +0.000 A 
ATOM     12  C   UNL     1       0.827  15.324  18.851  0.00  0.00    +0.000 A 
ATOM     13 CL   UNL     1       1.891  16.601  18.387  0.00  0.00    +0.000 Cl
ATOM     14  C   UNL     1       1.281  13.968  18.856  0.00  0.00    +0.000 A 
ATOM     15  C   UNL     1       0.419  12.893  19.264  0.00  0.00    +0.000 A 
BRANCH   7  16
ATOM     16  C   UNL     1      -2.465  11.547  18.263  0.00  0.00    +0.000 A 
ATOM     17  C   UNL     1      -1.898  10.901  17.149  0.00  0.00    +0.000 A 
ATOM     18  C   UNL     1      -2.730  10.528  16.097  0.00  0.00    +0.000 A 
ATOM     19  C   UNL     1      -4.075  10.841  16.148  0.00  0.00    +0.000 A 
ATOM     20  N   UNL     1      -4.630  11.581  17.124  0.00  0.00    +0.000 NA
ATOM     21  C   UNL     1      -3.811  11.934  18.140  0.00  0.00    +0.000 A 
ENDBRANCH   7  16
ENDBRANCH   2   5
BRANCH   3  22
ATOM     22  C   UNL     1       2.265   7.911  18.828  0.00  0.00    +0.000 A 
ATOM     23  C   UNL     1       3.107   7.771  17.707  0.00  0.00    +0.000 A 
ATOM     24  C   UNL     1       4.005   6.665  17.563  0.00  0.00    +0.000 A 
ATOM     25  C   UNL     1       4.089   5.670  18.545  0.00  0.00    +0.000 A 
ATOM     26  C   UNL     1       3.305   5.831  19.694  0.00  0.00    +0.000 A 
ATOM     27  C   UNL     1       2.431   6.944  19.838  0.00  0.00    +0.000 A 
BRANCH  25  28
ATOM     28  S   UNL     1       4.800   4.044  18.154  0.00  0.00    +0.000 S 
ATOM     29  O   UNL     1       5.403   4.165  16.841  0.00  0.00    +0.000 OA
ATOM     30  O   UNL     1       5.609   3.667  19.297  0.00  0.00    +0.000 OA
BRANCH  28  31
ATOM     31  N   UNL     1       3.575   2.902  18.030  0.00  0.00    +0.000 NA
ATOM     32  C   UNL     1       2.376   3.132  17.215  0.00  0.00    +0.000 C 
ATOM     33  C   UNL     1       1.298   3.301  18.267  0.00  0.00    +0.000 C 
ATOM     34  C   UNL     1       1.691   2.295  19.350  0.00  0.00    +0.000 C 
ATOM     35  C   UNL     1       3.191   2.058  19.171  0.00  0.00    +0.000 C 
ENDBRANCH  28  31
ENDBRANCH  25  28
ENDBRANCH   3  22
TORSDOF 5
ENDMDL
MODEL 2
REMARK VINA RESULT:      -9.0      1.368      2.237
REMARK  Name = 
REMARK  5 active torsions:
REMARK  status: ('A' for Active; 'I' for Inactive)
REMARK    1  A    between atoms: C_2  and  C_18
REMARK    2  A    between atoms: N_3  and  C_4
REMARK    3  A    between atoms: C_7  and  S_8
REMARK    4  A    between atoms: S_8  and  N_11
REMARK    5  A    between atoms: C_20  and  C_21
REMARK                            x       y       z     vdW  Elec       q    Type
REMARK                         _______ _______ _______ _____ _____    ______ ____
ROOT
ATOM      1  O   UNL     1       2.409  10.662  18.001  0.00  0.00    +0.000 OA
ATOM      2  C   UNL     1       1.423  10.293  18.645  0.00  0.00    +0.000 C 
ATOM      3  N   UNL     1       1.239   8.949  18.994  0.00  0.00    +0.000 N 
ATOM      4  H   UNL     1       0.330   8.666  19.333  0.00  0.00    +0.000 HD
ENDROOT
BRANCH   2   5
ATOM      5  C   UNL     1       0.567  11.424  19.242  0.00  0.00    +0.000 A 
ATOM      6  C   UNL     1      -0.538  10.758  19.786  0.00  0.00    +0.000 A 
ATOM      7  C   UNL     1      -1.726  11.396  19.628  0.00  0.00    +0.000 A 
ATOM      8  N   UNL     1      -1.726  12.586  20.227  0.00  0.00    +0.000 NA
ATOM      9  C   UNL     1      -0.763  13.395  19.827  0.00  0.00    +0.000 A 
ATOM     10  C   UNL     1      -1.185  14.705  19.774  0.00  0.00    +0.000 A 
ATOM     11  C   UNL     1      -0.388  15.675  19.215  0.00  0.00    +0.000 A 
ATOM     12  C   UNL     1       0.881  15.325  18.822  0.00  0.00    +0.000 A 
ATOM     13 CL   UNL     1       1.942  16.595  18.331  0.00  0.00    +0.000 Cl
ATOM     14  C   UNL     1       1.334  13.968  18.837  0.00  0.00    +0.000 A 
ATOM     15  C   UNL     1       0.474  12.900  19.268  0.00  0.00    +0.000 A 
BRANCH   7  16
ATOM     16  C   UNL     1      -2.422  11.546  18.315  0.00  0.00    +0.000 A 
ATOM     17  C   UNL     1      -1.888  10.860  17.209  0.00  0.00    +0.000 A 
ATOM     18  C   UNL     1      -2.744  10.483  16.178  0.00  0.00    +0.000 A 
ATOM     19  C   UNL     1      -4.080  10.832  16.240  0.00  0.00    +0.000 A 
ATOM     20  N   UNL     1      -4.602  11.608  17.205  0.00  0.00    +0.000 NA
ATOM     21  C   UNL     1      -3.760  11.965  18.201  0.00  0.00    +0.000 A 
ENDBRANCH   7  16
ENDBRANCH   2   5
BRANCH   3  22
ATOM     22  C   UNL     1       2.217   7.873  18.808  0.00  0.00    +0.000 A 
ATOM     23  C   UNL     1       3.030   7.678  17.674  0.00  0.00    +0.000 A 
ATOM     24  C   UNL     1       3.901   6.549  17.546  0.00  0.00    +0.000 A 
ATOM     25  C   UNL     1       3.988   5.586  18.559  0.00  0.00    +0.000 A 
ATOM     26  C   UNL     1       3.235   5.802  19.719  0.00  0.00    +0.000 A 
ATOM     27  C   UNL     1       2.387   6.937  19.847  0.00  0.00    +0.000 A 
BRANCH  25  28
ATOM     28  S   UNL     1       4.656   3.933  18.206  0.00  0.00    +0.000 S 
ATOM     29  O   UNL     1       4.972   3.336  19.489  0.00  0.00    +0.000 OA
ATOM     30  O   UNL     1       3.708   3.292  17.315  0.00  0.00    +0.000 OA
BRANCH  28  31
ATOM     31  N   UNL     1       6.099   4.071  17.359  0.00  0.00    +0.000 NA
ATOM     32  C   UNL     1       7.220   4.878  17.856  0.00  0.00    +0.000 C 
ATOM     33  C   UNL     1       7.231   6.045  16.889  0.00  0.00    +0.000 C 
ATOM     34  C   UNL     1       6.874   5.404  15.546  0.00  0.00    +0.000 C 
ATOM     35  C   UNL     1       6.128   4.114  15.890  0.00  0.00    +0.000 C 
ENDBRANCH  28  31
ENDBRANCH  25  28
ENDBRANCH   3  22
TORSDOF 5
ENDMDL
MODEL 3
REMARK VINA RESULT:      -8.9      1.493      2.224
REMARK  Name = 
REMARK  5 active torsions:
REMARK  status: ('A' for Active; 'I' for Inactive)
REMARK    1  A    between atoms: C_2  and  C_18
REMARK    2  A    between atoms: N_3  and  C_4
REMARK    3  A    between atoms: C_7  and  S_8
REMARK    4  A    between atoms: S_8  and  N_11
REMARK    5  A    between atoms: C_20  and  C_21
REMARK                            x       y       z     vdW  Elec       q    Type
REMARK                         _______ _______ _______ _____ _____    ______ ____
ROOT
ATOM      1  O   UNL     1       2.445  10.562  18.006  0.00  0.00    +0.000 OA
ATOM      2  C   UNL     1       1.446  10.193  18.629  0.00  0.00    +0.000 C 
ATOM      3  N   UNL     1       1.256   8.849  18.978  0.00  0.00    +0.000 N 
ATOM      4  H   UNL     1       0.340   8.566  19.297  0.00  0.00    +0.000 HD
ENDROOT
BRANCH   2   5
ATOM      5  C   UNL     1       0.574  11.324  19.201  0.00  0.00    +0.000 A 
ATOM      6  C   UNL     1      -0.541  10.658  19.725  0.00  0.00    +0.000 A 
ATOM      7  C   UNL     1      -1.727  11.292  19.537  0.00  0.00    +0.000 A 
ATOM      8  N   UNL     1      -1.743  12.484  20.131  0.00  0.00    +0.000 NA
ATOM      9  C   UNL     1      -0.774  13.294  19.749  0.00  0.00    +0.000 A 
ATOM     10  C   UNL     1      -1.198  14.603  19.681  0.00  0.00    +0.000 A 
ATOM     11  C   UNL     1      -0.391  15.572  19.135  0.00  0.00    +0.000 A 
ATOM     12  C   UNL     1       0.888  15.224  18.772  0.00  0.00    +0.000 A 
ATOM     13 CL   UNL     1       1.956  16.494  18.298  0.00  0.00    +0.000 Cl
ATOM     14  C   UNL     1       1.343  13.869  18.803  0.00  0.00    +0.000 A 
ATOM     15  C   UNL     1       0.477  12.800  19.219  0.00  0.00    +0.000 A 
BRANCH   7  16
ATOM     16  C   UNL     1      -2.394  11.435  18.209  0.00  0.00    +0.000 A 
ATOM     17  C   UNL     1      -1.878  10.688  17.133  0.00  0.00    +0.000 A 
ATOM     18  C   UNL     1      -2.735  10.322  16.100  0.00  0.00    +0.000 A 
ATOM     19  C   UNL     1      -4.053  10.737  16.129  0.00  0.00    +0.000 A 
ATOM     20  N   UNL     1      -4.551  11.568  17.061  0.00  0.00    +0.000 NA
ATOM     21  C   UNL     1      -3.708  11.914  18.059  0.00  0.00    +0.000 A 
ENDBRANCH   7  16
ENDBRANCH   2   5
BRANCH   3  22
ATOM     22  C   UNL     1       2.241   7.775  18.819  0.00  0.00    +0.000 A 
ATOM     23  C   UNL     1       2.424   6.682  19.689  0.00  0.00    +0.000 A 
ATOM     24  C   UNL     1       3.469   5.722  19.496  0.00  0.00    +0.000 A 
ATOM     25  C   UNL     1       4.356   5.827  18.417  0.00  0.00    +0.000 A 
ATOM     26  C   UNL     1       4.144   6.870  17.509  0.00  0.00    +0.000 A 
ATOM     27  C   UNL     1       3.091   7.808  17.696  0.00  0.00    +0.000 A 
BRANCH  25  28
ATOM     28  S   UNL     1       5.954   4.963  18.449  0.00  0.00    +0.000 S 
ATOM     29  O   UNL     1       6.967   5.982  18.633  0.00  0.00    +0.000 OA
ATOM     30  O   UNL     1       5.817   3.887  19.411  0.00  0.00    +0.000 OA
BRANCH  28  31
ATOM     31  N   UNL     1       6.242   4.245  16.958  0.00  0.00    +0.000 NA
ATOM     32  C   UNL     1       7.276   4.742  16.042  0.00  0.00    +0.000 C 
ATOM     33  C   UNL     1       6.450   5.346  14.923  0.00  0.00    +0.000 C 
ATOM     34  C   UNL     1       5.262   4.390  14.795  0.00  0.00    +0.000 C 
ATOM     35  C   UNL     1       5.150   3.687  16.148  0.00  0.00    +0.000 C 
ENDBRANCH  28  31
ENDBRANCH  25  28
ENDBRANCH   3  22
TORSDOF 5
ENDMDL
MODEL 4
REMARK VINA RESULT:      -8.7      2.172      3.618
REMARK  Name = 
REMARK  5 active torsions:
REMARK  status: ('A' for Active; 'I' for Inactive)
REMARK    1  A    between atoms: C_2  and  C_18
REMARK    2  A    between atoms: N_3  and  C_4
REMARK    3  A    between atoms: C_7  and  S_8
REMARK    4  A    between atoms: S_8  and  N_11
REMARK    5  A    between atoms: C_20  and  C_21
REMARK                            x       y       z     vdW  Elec       q    Type
REMARK                         _______ _______ _______ _____ _____    ______ ____
ROOT
ATOM      1  O   UNL     1       2.553  10.835  17.886  0.00  0.00    +0.000 OA
ATOM      2  C   UNL     1       1.444  10.381  18.179  0.00  0.00    +0.000 C 
ATOM      3  N   UNL     1       1.232   9.003  18.322  0.00  0.00    +0.000 N 
ATOM      4  H   UNL     1       0.279   8.670  18.354  0.00  0.00    +0.000 HD
ENDROOT
BRANCH   2   5
ATOM      5  C   UNL     1       0.400  11.425  18.614  0.00  0.00    +0.000 A 
ATOM      6  C   UNL     1       1.138  12.345  19.368  0.00  0.00    +0.000 A 
ATOM      7  C   UNL     1       0.502  12.826  20.467  0.00  0.00    +0.000 A 
ATOM      8  N   UNL     1      -0.611  13.481  20.140  0.00  0.00    +0.000 NA
ATOM      9  C   UNL     1      -1.473  12.769  19.439  0.00  0.00    +0.000 A 
ATOM     10  C   UNL     1      -2.775  13.060  19.782  0.00  0.00    +0.000 A 
ATOM     11  C   UNL     1      -3.813  12.302  19.295  0.00  0.00    +0.000 A 
ATOM     12  C   UNL     1      -3.527  11.330  18.367  0.00  0.00    +0.000 A 
ATOM     13 CL   UNL     1      -4.858  10.541  17.601  0.00  0.00    +0.000 Cl
ATOM     14  C   UNL     1      -2.183  10.987  18.016  0.00  0.00    +0.000 A 
ATOM     15  C   UNL     1      -1.062  11.649  18.622  0.00  0.00    +0.000 A 
BRANCH   7  16
ATOM     16  C   UNL     1       0.212  12.011  21.684  0.00  0.00    +0.000 A 
ATOM     17  C   UNL     1      -0.839  12.435  22.520  0.00  0.00    +0.000 A 
ATOM     18  C   UNL     1      -1.518  11.484  23.275  0.00  0.00    +0.000 A 
ATOM     19  C   UNL     1      -1.117  10.162  23.227  0.00  0.00    +0.000 A 
ATOM     20  N   UNL     1      -0.031   9.738  22.556  0.00  0.00    +0.000 NA
ATOM     21  C   UNL     1       0.616  10.672  21.825  0.00  0.00    +0.000 A 
ENDBRANCH   7  16
ENDBRANCH   2   5
BRANCH   3  22
ATOM     22  C   UNL     1       2.274   7.971  18.319  0.00  0.00    +0.000 A 
ATOM     23  C   UNL     1       3.208   7.739  17.290  0.00  0.00    +0.000 A 
ATOM     24  C   UNL     1       4.139   6.653  17.338  0.00  0.00    +0.000 A 
ATOM     25  C   UNL     1       4.165   5.771  18.425  0.00  0.00    +0.000 A 
ATOM     26  C   UNL     1       3.285   6.029  19.484  0.00  0.00    +0.000 A 
ATOM     27  C   UNL     1       2.378   7.123  19.438  0.00  0.00    +0.000 A 
BRANCH  25  28
ATOM     28  S   UNL     1       4.941   4.135  18.270  0.00  0.00    +0.000 S 
ATOM     29  O   UNL     1       5.507   4.075  16.937  0.00  0.00    +0.000 OA
ATOM     30  O   UNL     1       5.793   3.977  19.433  0.00  0.00    +0.000 OA
BRANCH  28  31
ATOM     31  N   UNL     1       3.769   2.937  18.363  0.00  0.00    +0.000 NA
ATOM     32  C   UNL     1       2.649   2.869  17.416  0.00  0.00    +0.000 C 
ATOM     33  C   UNL     1       1.469   3.259  18.284  0.00  0.00    +0.000 C 
ATOM     34  C   UNL     1       1.783   2.610  19.633  0.00  0.00    +0.000 C 
ATOM     35  C   UNL     1       3.300   2.416  19.655  0.00  0.00    +0.000 C 
ENDBRANCH  28  31
ENDBRANCH  25  28
ENDBRANCH   3  22
TORSDOF 5
ENDMDL
MODEL 5
REMARK VINA RESULT:      -8.7      3.727      9.710
REMARK  Name = 
REMARK  5 active torsions:
REMARK  status: ('A' for Active; 'I' for Inactive)
REMARK    1  A    between atoms: C_2  and  C_18
REMARK    2  A    between atoms: N_3  and  C_4
REMARK    3  A    between atoms: C_7  and  S_8
REMARK    4  A    between atoms: S_8  and  N_11
REMARK    5  A    between atoms: C_20  and  C_21
REMARK                            x       y       z     vdW  Elec       q    Type
REMARK                         _______ _______ _______ _____ _____    ______ ____
ROOT
ATOM      1  O   UNL     1       1.887   7.848  19.825  0.00  0.00    +0.000 OA
ATOM      2  C   UNL     1       1.943   7.903  18.594  0.00  0.00    +0.000 C 
ATOM      3  N   UNL     1       1.383   8.974  17.884  0.00  0.00    +0.000 N 
ATOM      4  H   UNL     1       1.270   8.874  16.885  0.00  0.00    +0.000 HD
ENDROOT
BRANCH   2   5
ATOM      5  C   UNL     1       2.872   6.871  17.931  0.00  0.00    +0.000 A 
ATOM      6  C   UNL     1       2.049   5.755  17.736  0.00  0.00    +0.000 A 
ATOM      7  C   UNL     1       2.647   4.557  17.960  0.00  0.00    +0.000 A 
ATOM      8  N   UNL     1       3.674   4.361  17.134  0.00  0.00    +0.000 NA
ATOM      9  C   UNL     1       4.598   5.302  17.185  0.00  0.00    +0.000 A 
ATOM     10  C   UNL     1       5.865   4.784  17.035  0.00  0.00    +0.000 A 
ATOM     11  C   UNL     1       6.972   5.573  17.234  0.00  0.00    +0.000 A 
ATOM     12  C   UNL     1       6.780   6.914  17.466  0.00  0.00    +0.000 A 
ATOM     13 CL   UNL     1       8.177   7.928  17.492  0.00  0.00    +0.000 Cl
ATOM     14  C   UNL     1       5.477   7.473  17.657  0.00  0.00    +0.000 A 
ATOM     15  C   UNL     1       4.299   6.650  17.614  0.00  0.00    +0.000 A 
BRANCH   7  16
ATOM     16  C   UNL     1       3.048   4.065  19.312  0.00  0.00    +0.000 A 
ATOM     17  C   UNL     1       2.247   4.439  20.407  0.00  0.00    +0.000 A 
ATOM     18  C   UNL     1       2.198   3.599  21.517  0.00  0.00    +0.000 A 
ATOM     19  C   UNL     1       2.968   2.452  21.538  0.00  0.00    +0.000 A 
ATOM     20  N   UNL     1       3.853   2.133  20.578  0.00  0.00    +0.000 NA
ATOM     21  C   UNL     1       3.889   2.955  19.506  0.00  0.00    +0.000 A 
ENDBRANCH   7  16
ENDBRANCH   2   5
BRANCH   3  22
ATOM     22  C   UNL     1       0.833  10.199  18.472  0.00  0.00    +0.000 A 
ATOM     23  C   UNL     1       1.558  11.366  18.785  0.00  0.00    +0.000 A 
ATOM     24  C   UNL     1       0.952  12.488  19.436  0.00  0.00    +0.000 A 
ATOM     25  C   UNL     1      -0.405  12.474  19.783  0.00  0.00    +0.000 A 
ATOM     26  C   UNL     1      -1.152  11.347  19.419  0.00  0.00    +0.000 A 
ATOM     27  C   UNL     1      -0.545  10.245  18.754  0.00  0.00    +0.000 A 
BRANCH  25  28
ATOM     28  S   UNL     1      -1.049  13.622  21.037  0.00  0.00    +0.000 S 
ATOM     29  O   UNL     1      -0.078  13.639  22.113  0.00  0.00    +0.000 OA
ATOM     30  O   UNL     1      -1.383  14.846  20.335  0.00  0.00    +0.000 OA
BRANCH  28  31
ATOM     31  N   UNL     1      -2.482  13.022  21.675  0.00  0.00    +0.000 NA
ATOM     32  C   UNL     1      -3.720  13.809  21.680  0.00  0.00    +0.000 C 
ATOM     33  C   UNL     1      -3.894  14.128  23.152  0.00  0.00    +0.000 C 
ATOM     34  C   UNL     1      -3.420  12.854  23.855  0.00  0.00    +0.000 C 
ATOM     35  C   UNL     1      -2.492  12.155  22.862  0.00  0.00    +0.000 C 
ENDBRANCH  28  31
ENDBRANCH  25  28
ENDBRANCH   3  22
TORSDOF 5
ENDMDL
MODEL 6
REMARK VINA RESULT:      -8.5      1.523      1.929
REMARK  Name = 
REMARK  5 active torsions:
REMARK  status: ('A' for Active; 'I' for Inactive)
REMARK    1  A    between atoms: C_2  and  C_18
REMARK    2  A    between atoms: N_3  and  C_4
REMARK    3  A    between atoms: C_7  and  S_8
REMARK    4  A    between atoms: S_8  and  N_11
REMARK    5  A    between atoms: C_20  and  C_21
REMARK                            x       y       z     vdW  Elec       q    Type
REMARK                         _______ _______ _______ _____ _____    ______ ____
ROOT
ATOM      1  O   UNL     1       1.157  10.560  21.836  0.00  0.00    +0.000 OA
ATOM      2  C   UNL     1       0.877  11.105  20.765  0.00  0.00    +0.000 C 
ATOM      3  N   UNL     1       1.117  10.472  19.537  0.00  0.00    +0.000 N 
ATOM      4  H   UNL     1       1.068  11.031  18.697  0.00  0.00    +0.000 HD
ENDROOT
BRANCH   2   5
ATOM      5  C   UNL     1       0.036  12.388  20.880  0.00  0.00    +0.000 A 
ATOM      6  C   UNL     1      -1.133  11.967  21.526  0.00  0.00    +0.000 A 
ATOM      7  C   UNL     1      -2.277  12.538  21.071  0.00  0.00    +0.000 A 
ATOM      8  N   UNL     1      -2.263  13.860  21.236  0.00  0.00    +0.000 NA
ATOM      9  C   UNL     1      -1.240  14.467  20.666  0.00  0.00    +0.000 A 
ATOM     10  C   UNL     1      -1.597  15.692  20.146  0.00  0.00    +0.000 A 
ATOM     11  C   UNL     1      -0.721  16.400  19.360  0.00  0.00    +0.000 A 
ATOM     12  C   UNL     1       0.555  15.913  19.208  0.00  0.00    +0.000 A 
ATOM     13 CL   UNL     1       1.704  16.921  18.406  0.00  0.00    +0.000 Cl
ATOM     14  C   UNL     1       0.943  14.631  19.711  0.00  0.00    +0.000 A 
ATOM     15  C   UNL     1       0.009  13.788  20.404  0.00  0.00    +0.000 A 
BRANCH   7  16
ATOM     16  C   UNL     1      -2.875  12.252  19.733  0.00  0.00    +0.000 A 
ATOM     17  C   UNL     1      -2.182  11.374  18.880  0.00  0.00    +0.000 A 
ATOM     18  C   UNL     1      -2.905  10.637  17.946  0.00  0.00    +0.000 A 
ATOM     19  C   UNL     1      -4.271  10.818  17.845  0.00  0.00    +0.000 A 
ATOM     20  N   UNL     1      -4.951  11.748  18.539  0.00  0.00    +0.000 NA
ATOM     21  C   UNL     1      -4.237  12.454  19.443  0.00  0.00    +0.000 A 
ENDBRANCH   7  16
ENDBRANCH   2   5
BRANCH   3  22
ATOM     22  C   UNL     1       1.545   9.081  19.360  0.00  0.00    +0.000 A 
ATOM     23  C   UNL     1       1.592   8.093  20.363  0.00  0.00    +0.000 A 
ATOM     24  C   UNL     1       2.104   6.779  20.115  0.00  0.00    +0.000 A 
ATOM     25  C   UNL     1       2.575   6.415  18.848  0.00  0.00    +0.000 A 
ATOM     26  C   UNL     1       2.473   7.367  17.825  0.00  0.00    +0.000 A 
ATOM     27  C   UNL     1       1.945   8.663  18.076  0.00  0.00    +0.000 A 
BRANCH  25  28
ATOM     28  S   UNL     1       3.678   4.985  18.648  0.00  0.00    +0.000 S 
ATOM     29  O   UNL     1       3.913   4.844  17.225  0.00  0.00    +0.000 OA
ATOM     30  O   UNL     1       4.790   5.199  19.554  0.00  0.00    +0.000 OA
BRANCH  28  31
ATOM     31  N   UNL     1       2.898   3.589  19.159  0.00  0.00    +0.000 NA
ATOM     32  C   UNL     1       1.519   3.278  18.763  0.00  0.00    +0.000 C 
ATOM     33  C   UNL     1       0.761   3.464  20.063  0.00  0.00    +0.000 C 
ATOM     34  C   UNL     1       1.727   2.930  21.123  0.00  0.00    +0.000 C 
ATOM     35  C   UNL     1       3.120   3.031  20.501  0.00  0.00    +0.000 C 
ENDBRANCH  28  31
ENDBRANCH  25  28
ENDBRANCH   3  22
TORSDOF 5
ENDMDL
MODEL 7
REMARK VINA RESULT:      -8.5      3.850      9.867
REMARK  Name = 
REMARK  5 active torsions:
REMARK  status: ('A' for Active; 'I' for Inactive)
REMARK    1  A    between atoms: C_2  and  C_18
REMARK    2  A    between atoms: N_3  and  C_4
REMARK    3  A    between atoms: C_7  and  S_8
REMARK    4  A    between atoms: S_8  and  N_11
REMARK    5  A    between atoms: C_20  and  C_21
REMARK                            x       y       z     vdW  Elec       q    Type
REMARK                         _______ _______ _______ _____ _____    ______ ____
ROOT
ATOM      1  O   UNL     1       1.878   8.003  19.887  0.00  0.00    +0.000 OA
ATOM      2  C   UNL     1       1.972   8.110  18.661  0.00  0.00    +0.000 C 
ATOM      3  N   UNL     1       1.564   9.274  17.995  0.00  0.00    +0.000 N 
ATOM      4  H   UNL     1       1.466   9.237  16.991  0.00  0.00    +0.000 HD
ENDROOT
BRANCH   2   5
ATOM      5  C   UNL     1       2.786   7.005  17.965  0.00  0.00    +0.000 A 
ATOM      6  C   UNL     1       1.872   5.954  17.821  0.00  0.00    +0.000 A 
ATOM      7  C   UNL     1       2.387   4.715  18.028  0.00  0.00    +0.000 A 
ATOM      8  N   UNL     1       3.355   4.436  17.157  0.00  0.00    +0.000 NA
ATOM      9  C   UNL     1       4.349   5.304  17.154  0.00  0.00    +0.000 A 
ATOM     10  C   UNL     1       5.565   4.689  16.949  0.00  0.00    +0.000 A 
ATOM     11  C   UNL     1       6.737   5.392  17.086  0.00  0.00    +0.000 A 
ATOM     12  C   UNL     1       6.659   6.745  17.314  0.00  0.00    +0.000 A 
ATOM     13 CL   UNL     1       8.129   7.648  17.263  0.00  0.00    +0.000 Cl
ATOM     14  C   UNL     1       5.413   7.403  17.562  0.00  0.00    +0.000 A 
ATOM     15  C   UNL     1       4.176   6.673  17.583  0.00  0.00    +0.000 A 
BRANCH   7  16
ATOM     16  C   UNL     1       2.814   4.204  19.364  0.00  0.00    +0.000 A 
ATOM     17  C   UNL     1       2.019   4.535  20.477  0.00  0.00    +0.000 A 
ATOM     18  C   UNL     1       2.000   3.671  21.568  0.00  0.00    +0.000 A 
ATOM     19  C   UNL     1       2.795   2.541  21.555  0.00  0.00    +0.000 A 
ATOM     20  N   UNL     1       3.675   2.261  20.578  0.00  0.00    +0.000 NA
ATOM     21  C   UNL     1       3.680   3.107  19.524  0.00  0.00    +0.000 A 
ENDBRANCH   7  16
ENDBRANCH   2   5
BRANCH   3  22
ATOM     22  C   UNL     1       1.152  10.527  18.635  0.00  0.00    +0.000 A 
ATOM     23  C   UNL     1       1.870  11.739  18.623  0.00  0.00    +0.000 A 
ATOM     24  C   UNL     1       1.428  12.893  19.346  0.00  0.00    +0.000 A 
ATOM     25  C   UNL     1       0.245  12.867  20.096  0.00  0.00    +0.000 A 
ATOM     26  C   UNL     1      -0.512  11.689  20.062  0.00  0.00    +0.000 A 
ATOM     27  C   UNL     1      -0.076  10.554  19.325  0.00  0.00    +0.000 A 
BRANCH  25  28
ATOM     28  S   UNL     1      -0.049  14.097  21.400  0.00  0.00    +0.000 S 
ATOM     29  O   UNL     1      -1.358  13.806  21.950  0.00  0.00    +0.000 OA
ATOM     30  O   UNL     1       1.123  14.075  22.253  0.00  0.00    +0.000 OA
BRANCH  28  31
ATOM     31  N   UNL     1      -0.129  15.633  20.727  0.00  0.00    +0.000 NA
ATOM     32  C   UNL     1      -1.095  15.973  19.675  0.00  0.00    +0.000 C 
ATOM     33  C   UNL     1      -0.205  16.134  18.459  0.00  0.00    +0.000 C 
ATOM     34  C   UNL     1       1.057  16.794  19.020  0.00  0.00    +0.000 C 
ATOM     35  C   UNL     1       1.079  16.441  20.508  0.00  0.00    +0.000 C 
ENDBRANCH  28  31
ENDBRANCH  25  28
ENDBRANCH   3  22
TORSDOF 5
ENDMDL
MODEL 8
REMARK VINA RESULT:      -8.5      1.003      1.298
REMARK  Name = 
REMARK  5 active torsions:
REMARK  status: ('A' for Active; 'I' for Inactive)
REMARK    1  A    between atoms: C_2  and  C_18
REMARK    2  A    between atoms: N_3  and  C_4
REMARK    3  A    between atoms: C_7  and  S_8
REMARK    4  A    between atoms: S_8  and  N_11
REMARK    5  A    between atoms: C_20  and  C_21
REMARK                            x       y       z     vdW  Elec       q    Type
REMARK                         _______ _______ _______ _____ _____    ______ ____
ROOT
ATOM      1  O   UNL     1       1.276   9.428  21.248  0.00  0.00    +0.000 OA
ATOM      2  C   UNL     1       1.295  10.083  20.202  0.00  0.00    +0.000 C 
ATOM      3  N   UNL     1       1.838   9.560  19.021  0.00  0.00    +0.000 N 
ATOM      4  H   UNL     1       2.020  10.197  18.259  0.00  0.00    +0.000 HD
ENDROOT
BRANCH   2   5
ATOM      5  C   UNL     1       0.473  11.383  20.226  0.00  0.00    +0.000 A 
ATOM      6  C   UNL     1      -0.802  10.968  20.630  0.00  0.00    +0.000 A 
ATOM      7  C   UNL     1      -1.832  11.592  20.004  0.00  0.00    +0.000 A 
ATOM      8  N   UNL     1      -1.822  12.904  20.233  0.00  0.00    +0.000 NA
ATOM      9  C   UNL     1      -0.699  13.506  19.888  0.00  0.00    +0.000 A 
ATOM     10  C   UNL     1      -0.931  14.763  19.373  0.00  0.00    +0.000 A 
ATOM     11  C   UNL     1       0.088  15.480  18.793  0.00  0.00    +0.000 A 
ATOM     12  C   UNL     1       1.360  14.963  18.851  0.00  0.00    +0.000 A 
ATOM     13 CL   UNL     1       2.656  15.972  18.320  0.00  0.00    +0.000 Cl
ATOM     14  C   UNL     1       1.624  13.649  19.352  0.00  0.00    +0.000 A 
ATOM     15  C   UNL     1       0.562  12.803  19.823  0.00  0.00    +0.000 A 
BRANCH   7  16
ATOM     16  C   UNL     1      -2.183  11.383  18.567  0.00  0.00    +0.000 A 
ATOM     17  C   UNL     1      -1.472  10.399  17.856  0.00  0.00    +0.000 A 
ATOM     18  C   UNL     1      -2.094   9.768  16.782  0.00  0.00    +0.000 A 
ATOM     19  C   UNL     1      -3.368  10.155  16.410  0.00  0.00    +0.000 A 
ATOM     20  N   UNL     1      -4.025  11.186  16.969  0.00  0.00    +0.000 NA
ATOM     21  C   UNL     1      -3.411  11.787  18.012  0.00  0.00    +0.000 A 
ENDBRANCH   7  16
ENDBRANCH   2   5
BRANCH   3  22
ATOM     22  C   UNL     1       2.276   8.175  18.819  0.00  0.00    +0.000 A 
ATOM     23  C   UNL     1       1.959   7.076  19.642  0.00  0.00    +0.000 A 
ATOM     24  C   UNL     1       2.500   5.771  19.412  0.00  0.00    +0.000 A 
ATOM     25  C   UNL     1       3.370   5.528  18.341  0.00  0.00    +0.000 A 
ATOM     26  C   UNL     1       3.641   6.597  17.477  0.00  0.00    +0.000 A 
ATOM     27  C   UNL     1       3.082   7.886  17.701  0.00  0.00    +0.000 A 
BRANCH  25  28
ATOM     28  S   UNL     1       4.449   4.066  18.341  0.00  0.00    +0.000 S 
ATOM     29  O   UNL     1       4.827   3.837  16.961  0.00  0.00    +0.000 OA
ATOM     30  O   UNL     1       5.465   4.309  19.347  0.00  0.00    +0.000 OA
BRANCH  28  31
ATOM     31  N   UNL     1       3.582   2.719  18.844  0.00  0.00    +0.000 NA
ATOM     32  C   UNL     1       2.577   2.077  17.989  0.00  0.00    +0.000 C 
ATOM     33  C   UNL     1       1.281   2.433  18.690  0.00  0.00    +0.000 C 
ATOM     34  C   UNL     1       1.643   2.358  20.175  0.00  0.00    +0.000 C 
ATOM     35  C   UNL     1       3.158   2.555  20.242  0.00  0.00    +0.000 C 
ENDBRANCH  28  31
ENDBRANCH  25  28
ENDBRANCH   3  22
TORSDOF 5
ENDMDL
MODEL 9
REMARK VINA RESULT:      -8.5      1.854      2.480
REMARK  Name = 
REMARK  5 active torsions:
REMARK  status: ('A' for Active; 'I' for Inactive)
REMARK    1  A    between atoms: C_2  and  C_18
REMARK    2  A    between atoms: N_3  and  C_4
REMARK    3  A    between atoms: C_7  and  S_8
REMARK    4  A    between atoms: S_8  and  N_11
REMARK    5  A    between atoms: C_20  and  C_21
REMARK                            x       y       z     vdW  Elec       q    Type
REMARK                         _______ _______ _______ _____ _____    ______ ____
ROOT
ATOM      1  O   UNL     1       1.548  12.528  19.007  0.00  0.00    +0.000 OA
ATOM      2  C   UNL     1       0.415  12.214  19.383  0.00  0.00    +0.000 C 
ATOM      3  N   UNL     1       0.016  10.873  19.461  0.00  0.00    +0.000 N 
ATOM      4  H   UNL     1      -0.969  10.676  19.570  0.00  0.00    +0.000 HD
ENDROOT
BRANCH   2   5
ATOM      5  C   UNL     1      -0.418  13.358  19.986  0.00  0.00    +0.000 A 
ATOM      6  C   UNL     1      -1.202  12.726  20.959  0.00  0.00    +0.000 A 
ATOM      7  C   UNL     1      -2.476  13.185  21.054  0.00  0.00    +0.000 A 
ATOM      8  N   UNL     1      -2.509  14.474  21.387  0.00  0.00    +0.000 NA
ATOM      9  C   UNL     1      -1.843  15.263  20.564  0.00  0.00    +0.000 A 
ATOM     10  C   UNL     1      -2.475  16.476  20.395  0.00  0.00    +0.000 A 
ATOM     11  C   UNL     1      -2.037  17.366  19.445  0.00  0.00    +0.000 A 
ATOM     12  C   UNL     1      -0.886  17.067  18.756  0.00  0.00    +0.000 A 
ATOM     13 CL   UNL     1      -0.229  18.291  17.731  0.00  0.00    +0.000 Cl
ATOM     14  C   UNL     1      -0.228  15.804  18.890  0.00  0.00    +0.000 A 
ATOM     15  C   UNL     1      -0.744  14.782  19.758  0.00  0.00    +0.000 A 
BRANCH   7  16
ATOM     16  C   UNL     1      -3.524  12.956  20.015  0.00  0.00    +0.000 A 
ATOM     17  C   UNL     1      -3.229  12.052  18.977  0.00  0.00    +0.000 A 
ATOM     18  C   UNL     1      -4.277  11.373  18.362  0.00  0.00    +0.000 A 
ATOM     19  C   UNL     1      -5.578  11.636  18.748  0.00  0.00    +0.000 A 
ATOM     20  N   UNL     1      -5.913  12.592  19.632  0.00  0.00    +0.000 NA
ATOM     21  C   UNL     1      -4.885  13.241  20.222  0.00  0.00    +0.000 A 
ENDBRANCH   7  16
ENDBRANCH   2   5
BRANCH   3  22
ATOM     22  C   UNL     1       0.889   9.707  19.287  0.00  0.00    +0.000 A 
ATOM     23  C   UNL     1       1.503   9.303  18.085  0.00  0.00    +0.000 A 
ATOM     24  C   UNL     1       2.275   8.101  17.991  0.00  0.00    +0.000 A 
ATOM     25  C   UNL     1       2.461   7.273  19.106  0.00  0.00    +0.000 A 
ATOM     26  C   UNL     1       1.911   7.697  20.322  0.00  0.00    +0.000 A 
ATOM     27  C   UNL     1       1.162   8.903  20.411  0.00  0.00    +0.000 A 
BRANCH  25  28
ATOM     28  S   UNL     1       2.967   5.541  18.895  0.00  0.00    +0.000 S 
ATOM     29  O   UNL     1       3.336   5.388  17.502  0.00  0.00    +0.000 OA
ATOM     30  O   UNL     1       3.934   5.269  19.941  0.00  0.00    +0.000 OA
BRANCH  28  31
ATOM     31  N   UNL     1       1.657   4.527  19.171  0.00  0.00    +0.000 NA
ATOM     32  C   UNL     1       1.233   4.155  20.526  0.00  0.00    +0.000 C 
ATOM     33  C   UNL     1       1.619   2.691  20.594  0.00  0.00    +0.000 C 
ATOM     34  C   UNL     1       1.317   2.172  19.187  0.00  0.00    +0.000 C 
ATOM     35  C   UNL     1       1.354   3.400  18.277  0.00  0.00    +0.000 C 
ENDBRANCH  28  31
ENDBRANCH  25  28
ENDBRANCH   3  22
TORSDOF 5
ENDMDL
