MODEL 1
REMARK VINA RESULT:      -7.9      0.000      0.000
REMARK  Name = 
REMARK  8 active torsions:
REMARK  status: ('A' for Active; 'I' for Inactive)
REMARK    1  A    between atoms: C_1  and  O_2
REMARK    2  A    between atoms: O_2  and  C_3
REMARK    3  A    between atoms: C_3  and  C_5
REMARK    4  A    between atoms: C_8  and  N_9
REMARK    5  A    between atoms: C_10  and  C_12
REMARK    6  A    between atoms: C_12  and  S_13
REMARK    7  A    between atoms: S_13  and  C_14
REMARK    8  A    between atoms: N_18  and  C_19
REMARK                            x       y       z     vdW  Elec       q    Type
REMARK                         _______ _______ _______ _____ _____    ______ ____
ROOT
ATOM      1  N   UNL     1       2.495   5.432  20.773  0.00  0.00    +0.000 N 
ATOM      2  C   UNL     1       1.678   4.308  20.766  0.00  0.00    +0.000 C 
ATOM      3  O   UNL     1       0.559   4.238  20.260  0.00  0.00    +0.000 OA
ATOM      4  H   UNL     1       3.473   5.291  21.020  0.00  0.00    +0.000 HD
ENDROOT
BRANCH   1   8
ATOM      5  C   UNL     1       1.488   9.173  19.077  0.00  0.00    +0.000 A 
ATOM      6  C   UNL     1       1.123   8.887  20.394  0.00  0.00    +0.000 A 
ATOM      7  C   UNL     1       1.456   7.653  20.962  0.00  0.00    +0.000 A 
ATOM      8  C   UNL     1       2.153   6.689  20.230  0.00  0.00    +0.000 A 
ATOM      9  C   UNL     1       2.535   6.982  18.917  0.00  0.00    +0.000 A 
ATOM     10  C   UNL     1       2.191   8.211  18.340  0.00  0.00    +0.000 A 
BRANCH   5  11
ATOM     11  C   UNL     1       1.120  10.509  18.521  0.00  0.00    +0.000 C 
ATOM     12  O   UNL     1      -0.018  10.925  18.440  0.00  0.00    +0.000 OA
BRANCH  11  14
ATOM     13  C   UNL     1       2.173  12.586  18.284  0.00  0.00    +0.000 C 
ATOM     14  O   UNL     1       2.246  11.164  18.143  0.00  0.00    +0.000 OA
ENDBRANCH  11  14
ENDBRANCH   5  11
ENDBRANCH   1   8
BRANCH   2  15
ATOM     15  C   UNL     1       2.289   3.092  21.431  0.00  0.00    +0.000 C 
BRANCH  15  16
ATOM     16  S   UNL     1       3.660   2.399  20.473  0.00  0.00    +0.000 S 
BRANCH  16  17
ATOM     17  C   UNL     1       3.290   2.819  18.828  0.00  0.00    +0.000 A 
ATOM     18  N   UNL     1       2.191   2.459  18.207  0.00  0.00    +0.000 NA
ATOM     19  N   UNL     1       2.150   3.112  17.001  0.00  0.00    +0.000 NA
ATOM     20  C   UNL     1       3.228   3.860  16.923  0.00  0.00    +0.000 A 
ATOM     21  N   UNL     1       4.016   3.706  18.041  0.00  0.00    +0.000 N 
BRANCH  21  22
ATOM     22  C   UNL     1       5.300   4.279  18.203  0.00  0.00    +0.000 A 
ATOM     23  C   UNL     1       6.202   4.369  17.143  0.00  0.00    +0.000 A 
ATOM     24  C   UNL     1       7.397   5.058  17.317  0.00  0.00    +0.000 A 
ATOM     25  C   UNL     1       7.659   5.629  18.546  0.00  0.00    +0.000 A 
ATOM     26  N   UNL     1       6.826   5.538  19.604  0.00  0.00    +0.000 NA
ATOM     27  C   UNL     1       5.666   4.867  19.414  0.00  0.00    +0.000 A 
ENDBRANCH  21  22
ENDBRANCH  16  17
ENDBRANCH  15  16
ENDBRANCH   2  15
TORSDOF 7
ENDMDL
MODEL 2
REMARK VINA RESULT:      -7.6      0.664      1.373
REMARK  Name = 
REMARK  8 active torsions:
REMARK  status: ('A' for Active; 'I' for Inactive)
REMARK    1  A    between atoms: C_1  and  O_2
REMARK    2  A    between atoms: O_2  and  C_3
REMARK    3  A    between atoms: C_3  and  C_5
REMARK    4  A    between atoms: C_8  and  N_9
REMARK    5  A    between atoms: C_10  and  C_12
REMARK    6  A    between atoms: C_12  and  S_13
REMARK    7  A    between atoms: S_13  and  C_14
REMARK    8  A    between atoms: N_18  and  C_19
REMARK                            x       y       z     vdW  Elec       q    Type
REMARK                         _______ _______ _______ _____ _____    ______ ____
ROOT
ATOM      1  N   UNL     1       2.540   5.405  20.766  0.00  0.00    +0.000 N 
ATOM      2  C   UNL     1       1.758   4.257  20.786  0.00  0.00    +0.000 C 
ATOM      3  O   UNL     1       0.616   4.158  20.340  0.00  0.00    +0.000 OA
ATOM      4  H   UNL     1       3.534   5.292  20.957  0.00  0.00    +0.000 HD
ENDROOT
BRANCH   1   8
ATOM      5  C   UNL     1       1.292   9.183  19.329  0.00  0.00    +0.000 A 
ATOM      6  C   UNL     1       2.035   8.336  18.503  0.00  0.00    +0.000 A 
ATOM      7  C   UNL     1       2.448   7.084  18.971  0.00  0.00    +0.000 A 
ATOM      8  C   UNL     1       2.130   6.658  20.262  0.00  0.00    +0.000 A 
ATOM      9  C   UNL     1       1.370   7.498  21.084  0.00  0.00    +0.000 A 
ATOM     10  C   UNL     1       0.967   8.758  20.624  0.00  0.00    +0.000 A 
BRANCH   5  11
ATOM     11  C   UNL     1       0.865  10.503  18.779  0.00  0.00    +0.000 C 
ATOM     12  O   UNL     1      -0.035  10.649  17.977  0.00  0.00    +0.000 OA
BRANCH  11  14
ATOM     13  C   UNL     1       2.076  12.466  18.383  0.00  0.00    +0.000 C 
ATOM     14  O   UNL     1       1.628  11.484  19.321  0.00  0.00    +0.000 OA
ENDBRANCH  11  14
ENDBRANCH   5  11
ENDBRANCH   1   8
BRANCH   2  15
ATOM     15  C   UNL     1       2.442   3.051  21.397  0.00  0.00    +0.000 C 
BRANCH  15  16
ATOM     16  S   UNL     1       3.855   2.489  20.415  0.00  0.00    +0.000 S 
BRANCH  16  17
ATOM     17  C   UNL     1       3.413   2.858  18.776  0.00  0.00    +0.000 A 
ATOM     18  N   UNL     1       2.319   2.424  18.194  0.00  0.00    +0.000 NA
ATOM     19  N   UNL     1       2.205   3.053  16.980  0.00  0.00    +0.000 NA
ATOM     20  C   UNL     1       3.233   3.862  16.858  0.00  0.00    +0.000 A 
ATOM     21  N   UNL     1       4.061   3.773  17.954  0.00  0.00    +0.000 N 
BRANCH  21  22
ATOM     22  C   UNL     1       5.313   4.424  18.069  0.00  0.00    +0.000 A 
ATOM     23  C   UNL     1       5.654   5.164  19.201  0.00  0.00    +0.000 A 
ATOM     24  C   UNL     1       6.942   5.673  19.326  0.00  0.00    +0.000 A 
ATOM     25  C   UNL     1       7.848   5.434  18.312  0.00  0.00    +0.000 A 
ATOM     26  N   UNL     1       7.549   4.749  17.189  0.00  0.00    +0.000 NA
ATOM     27  C   UNL     1       6.291   4.258  17.087  0.00  0.00    +0.000 A 
ENDBRANCH  21  22
ENDBRANCH  16  17
ENDBRANCH  15  16
ENDBRANCH   2  15
TORSDOF 7
ENDMDL
MODEL 3
REMARK VINA RESULT:      -7.6      0.598      1.357
REMARK  Name = 
REMARK  8 active torsions:
REMARK  status: ('A' for Active; 'I' for Inactive)
REMARK    1  A    between atoms: C_1  and  O_2
REMARK    2  A    between atoms: O_2  and  C_3
REMARK    3  A    between atoms: C_3  and  C_5
REMARK    4  A    between atoms: C_8  and  N_9
REMARK    5  A    between atoms: C_10  and  C_12
REMARK    6  A    between atoms: C_12  and  S_13
REMARK    7  A    between atoms: S_13  and  C_14
REMARK    8  A    between atoms: N_18  and  C_19
REMARK                            x       y       z     vdW  Elec       q    Type
REMARK                         _______ _______ _______ _____ _____    ______ ____
ROOT
ATOM      1  N   UNL     1       2.600   5.252  20.702  0.00  0.00    +0.000 N 
ATOM      2  C   UNL     1       1.782   4.129  20.744  0.00  0.00    +0.000 C 
ATOM      3  O   UNL     1       0.621   4.072  20.343  0.00  0.00    +0.000 OA
ATOM      4  H   UNL     1       3.596   5.104  20.853  0.00  0.00    +0.000 HD
ENDROOT
BRANCH   1   8
ATOM      5  C   UNL     1       1.418   9.081  19.349  0.00  0.00    +0.000 A 
ATOM      6  C   UNL     1       2.142   8.238  18.502  0.00  0.00    +0.000 A 
ATOM      7  C   UNL     1       2.533   6.969  18.942  0.00  0.00    +0.000 A 
ATOM      8  C   UNL     1       2.212   6.523  20.226  0.00  0.00    +0.000 A 
ATOM      9  C   UNL     1       1.472   7.359  21.068  0.00  0.00    +0.000 A 
ATOM     10  C   UNL     1       1.091   8.637  20.636  0.00  0.00    +0.000 A 
BRANCH   5  11
ATOM     11  C   UNL     1       1.014  10.420  18.827  0.00  0.00    +0.000 C 
ATOM     12  O   UNL     1       1.728  11.134  18.153  0.00  0.00    +0.000 OA
BRANCH  11  14
ATOM     13  C   UNL     1      -1.055  11.328  18.216  0.00  0.00    +0.000 C 
ATOM     14  O   UNL     1      -0.257  10.689  19.217  0.00  0.00    +0.000 OA
ENDBRANCH  11  14
ENDBRANCH   5  11
ENDBRANCH   1   8
BRANCH   2  15
ATOM     15  C   UNL     1       2.450   2.896  21.316  0.00  0.00    +0.000 C 
BRANCH  15  16
ATOM     16  S   UNL     1       3.902   2.391  20.360  0.00  0.00    +0.000 S 
BRANCH  16  17
ATOM     17  C   UNL     1       3.503   2.807  18.721  0.00  0.00    +0.000 A 
ATOM     18  N   UNL     1       2.442   2.362  18.088  0.00  0.00    +0.000 NA
ATOM     19  N   UNL     1       2.348   3.031  16.893  0.00  0.00    +0.000 NA
ATOM     20  C   UNL     1       3.355   3.873  16.834  0.00  0.00    +0.000 A 
ATOM     21  N   UNL     1       4.150   3.769  17.954  0.00  0.00    +0.000 N 
BRANCH  21  22
ATOM     22  C   UNL     1       5.377   4.451  18.133  0.00  0.00    +0.000 A 
ATOM     23  C   UNL     1       6.119   4.923  17.051  0.00  0.00    +0.000 A 
ATOM     24  C   UNL     1       7.248   5.701  17.281  0.00  0.00    +0.000 A 
ATOM     25  C   UNL     1       7.607   5.978  18.585  0.00  0.00    +0.000 A 
ATOM     26  N   UNL     1       6.933   5.515  19.658  0.00  0.00    +0.000 NA
ATOM     27  C   UNL     1       5.835   4.762  19.414  0.00  0.00    +0.000 A 
ENDBRANCH  21  22
ENDBRANCH  16  17
ENDBRANCH  15  16
ENDBRANCH   2  15
TORSDOF 7
ENDMDL
MODEL 4
REMARK VINA RESULT:      -7.3      4.315      8.062
REMARK  Name = 
REMARK  8 active torsions:
REMARK  status: ('A' for Active; 'I' for Inactive)
REMARK    1  A    between atoms: C_1  and  O_2
REMARK    2  A    between atoms: O_2  and  C_3
REMARK    3  A    between atoms: C_3  and  C_5
REMARK    4  A    between atoms: C_8  and  N_9
REMARK    5  A    between atoms: C_10  and  C_12
REMARK    6  A    between atoms: C_12  and  S_13
REMARK    7  A    between atoms: S_13  and  C_14
REMARK    8  A    between atoms: N_18  and  C_19
REMARK                            x       y       z     vdW  Elec       q    Type
REMARK                         _______ _______ _______ _____ _____    ______ ____
ROOT
ATOM      1  N   UNL     1       1.654   8.086  21.359  0.00  0.00    +0.000 N 
ATOM      2  C   UNL     1       0.380   8.511  21.715  0.00  0.00    +0.000 C 
ATOM      3  O   UNL     1      -0.676   8.048  21.288  0.00  0.00    +0.000 OA
ATOM      4  H   UNL     1       2.426   8.394  21.948  0.00  0.00    +0.000 HD
ENDROOT
BRANCH   1   8
ATOM      5  C   UNL     1       2.478   5.004  18.582  0.00  0.00    +0.000 A 
ATOM      6  C   UNL     1       2.618   6.340  18.199  0.00  0.00    +0.000 A 
ATOM      7  C   UNL     1       2.350   7.364  19.113  0.00  0.00    +0.000 A 
ATOM      8  C   UNL     1       1.940   7.075  20.417  0.00  0.00    +0.000 A 
ATOM      9  C   UNL     1       1.817   5.737  20.807  0.00  0.00    +0.000 A 
ATOM     10  C   UNL     1       2.070   4.709  19.890  0.00  0.00    +0.000 A 
BRANCH   5  11
ATOM     11  C   UNL     1       2.788   3.948  17.573  0.00  0.00    +0.000 C 
ATOM     12  O   UNL     1       1.957   3.416  16.865  0.00  0.00    +0.000 OA
BRANCH  11  14
ATOM     13  C   UNL     1       4.795   4.100  16.379  0.00  0.00    +0.000 C 
ATOM     14  O   UNL     1       4.121   3.701  17.576  0.00  0.00    +0.000 OA
ENDBRANCH  11  14
ENDBRANCH   5  11
ENDBRANCH   1   8
BRANCH   2  15
ATOM     15  C   UNL     1       0.361   9.624  22.742  0.00  0.00    +0.000 C 
BRANCH  15  16
ATOM     16  S   UNL     1      -0.681  11.015  22.233  0.00  0.00    +0.000 S 
BRANCH  16  17
ATOM     17  C   UNL     1       0.235  11.803  20.985  0.00  0.00    +0.000 A 
ATOM     18  N   UNL     1       1.402  12.374  21.178  0.00  0.00    +0.000 NA
ATOM     19  N   UNL     1       1.910  12.728  19.954  0.00  0.00    +0.000 NA
ATOM     20  C   UNL     1       1.040  12.355  19.044  0.00  0.00    +0.000 A 
ATOM     21  N   UNL     1      -0.067  11.781  19.628  0.00  0.00    +0.000 N 
BRANCH  21  22
ATOM     22  C   UNL     1      -1.233  11.391  18.927  0.00  0.00    +0.000 A 
ATOM     23  C   UNL     1      -1.253  10.261  18.109  0.00  0.00    +0.000 A 
ATOM     24  C   UNL     1      -2.455   9.842  17.548  0.00  0.00    +0.000 A 
ATOM     25  C   UNL     1      -3.598  10.569  17.814  0.00  0.00    +0.000 A 
ATOM     26  N   UNL     1      -3.614  11.684  18.574  0.00  0.00    +0.000 NA
ATOM     27  C   UNL     1      -2.435  12.073  19.114  0.00  0.00    +0.000 A 
ENDBRANCH  21  22
ENDBRANCH  16  17
ENDBRANCH  15  16
ENDBRANCH   2  15
TORSDOF 7
ENDMDL
MODEL 5
REMARK VINA RESULT:      -7.3      1.894      3.139
REMARK  Name = 
REMARK  8 active torsions:
REMARK  status: ('A' for Active; 'I' for Inactive)
REMARK    1  A    between atoms: C_1  and  O_2
REMARK    2  A    between atoms: O_2  and  C_3
REMARK    3  A    between atoms: C_3  and  C_5
REMARK    4  A    between atoms: C_8  and  N_9
REMARK    5  A    between atoms: C_10  and  C_12
REMARK    6  A    between atoms: C_12  and  S_13
REMARK    7  A    between atoms: S_13  and  C_14
REMARK    8  A    between atoms: N_18  and  C_19
REMARK                            x       y       z     vdW  Elec       q    Type
REMARK                         _______ _______ _______ _____ _____    ______ ____
ROOT
ATOM      1  N   UNL     1       2.796   6.110  19.928  0.00  0.00    +0.000 N 
ATOM      2  C   UNL     1       2.353   4.901  19.407  0.00  0.00    +0.000 C 
ATOM      3  O   UNL     1       1.387   4.752  18.661  0.00  0.00    +0.000 OA
ATOM      4  H   UNL     1       3.727   6.123  20.340  0.00  0.00    +0.000 HD
ENDROOT
BRANCH   1   8
ATOM      5  C   UNL     1       0.941   9.869  19.362  0.00  0.00    +0.000 A 
ATOM      6  C   UNL     1       1.632   9.270  18.307  0.00  0.00    +0.000 A 
ATOM      7  C   UNL     1       2.245   8.025  18.486  0.00  0.00    +0.000 A 
ATOM      8  C   UNL     1       2.180   7.362  19.714  0.00  0.00    +0.000 A 
ATOM      9  C   UNL     1       1.473   7.953  20.766  0.00  0.00    +0.000 A 
ATOM     10  C   UNL     1       0.870   9.206  20.594  0.00  0.00    +0.000 A 
BRANCH   5  11
ATOM     11  C   UNL     1       0.293  11.191  19.116  0.00  0.00    +0.000 C 
ATOM     12  O   UNL     1      -0.716  11.345  18.459  0.00  0.00    +0.000 OA
BRANCH  11  14
ATOM     13  C   UNL     1       0.208  13.250  20.227  0.00  0.00    +0.000 C 
ATOM     14  O   UNL     1       1.002  12.162  19.744  0.00  0.00    +0.000 OA
ENDBRANCH  11  14
ENDBRANCH   5  11
ENDBRANCH   1   8
BRANCH   2  15
ATOM     15  C   UNL     1       3.194   3.707  19.808  0.00  0.00    +0.000 C 
BRANCH  15  16
ATOM     16  S   UNL     1       4.398   3.252  18.534  0.00  0.00    +0.000 S 
BRANCH  16  17
ATOM     17  C   UNL     1       5.717   4.356  18.778  0.00  0.00    +0.000 A 
ATOM     18  N   UNL     1       6.066   4.837  19.948  0.00  0.00    +0.000 NA
ATOM     19  N   UNL     1       7.245   5.522  19.792  0.00  0.00    +0.000 NA
ATOM     20  C   UNL     1       7.587   5.433  18.527  0.00  0.00    +0.000 A 
ATOM     21  N   UNL     1       6.646   4.726  17.812  0.00  0.00    +0.000 N 
BRANCH  21  22
ATOM     22  C   UNL     1       6.662   4.562  16.406  0.00  0.00    +0.000 A 
ATOM     23  C   UNL     1       5.742   3.743  15.752  0.00  0.00    +0.000 A 
ATOM     24  C   UNL     1       5.712   3.718  14.363  0.00  0.00    +0.000 A 
ATOM     25  C   UNL     1       6.608   4.506  13.667  0.00  0.00    +0.000 A 
ATOM     26  N   UNL     1       7.532   5.288  14.263  0.00  0.00    +0.000 NA
ATOM     27  C   UNL     1       7.543   5.302  15.616  0.00  0.00    +0.000 A 
ENDBRANCH  21  22
ENDBRANCH  16  17
ENDBRANCH  15  16
ENDBRANCH   2  15
TORSDOF 7
ENDMDL
MODEL 6
REMARK VINA RESULT:      -7.2      3.303      4.394
REMARK  Name = 
REMARK  8 active torsions:
REMARK  status: ('A' for Active; 'I' for Inactive)
REMARK    1  A    between atoms: C_1  and  O_2
REMARK    2  A    between atoms: O_2  and  C_3
REMARK    3  A    between atoms: C_3  and  C_5
REMARK    4  A    between atoms: C_8  and  N_9
REMARK    5  A    between atoms: C_10  and  C_12
REMARK    6  A    between atoms: C_12  and  S_13
REMARK    7  A    between atoms: S_13  and  C_14
REMARK    8  A    between atoms: N_18  and  C_19
REMARK                            x       y       z     vdW  Elec       q    Type
REMARK                         _______ _______ _______ _____ _____    ______ ____
ROOT
ATOM      1  N   UNL     1       1.261   8.888  20.288  0.00  0.00    +0.000 N 
ATOM      2  C   UNL     1       1.433   8.925  18.909  0.00  0.00    +0.000 C 
ATOM      3  O   UNL     1       0.926   9.744  18.145  0.00  0.00    +0.000 OA
ATOM      4  H   UNL     1       1.909   8.309  20.819  0.00  0.00    +0.000 HD
ENDROOT
BRANCH   1   8
ATOM      5  C   UNL     1      -1.189  11.472  22.569  0.00  0.00    +0.000 A 
ATOM      6  C   UNL     1      -0.721  11.884  21.319  0.00  0.00    +0.000 A 
ATOM      7  C   UNL     1       0.088  11.033  20.558  0.00  0.00    +0.000 A 
ATOM      8  C   UNL     1       0.441   9.765  21.028  0.00  0.00    +0.000 A 
ATOM      9  C   UNL     1      -0.043   9.346  22.272  0.00  0.00    +0.000 A 
ATOM     10  C   UNL     1      -0.841  10.201  23.043  0.00  0.00    +0.000 A 
BRANCH   5  11
ATOM     11  C   UNL     1      -2.058  12.412  23.337  0.00  0.00    +0.000 C 
ATOM     12  O   UNL     1      -1.723  13.529  23.677  0.00  0.00    +0.000 OA
BRANCH  11  14
ATOM     13  C   UNL     1      -4.106  12.557  24.462  0.00  0.00    +0.000 C 
ATOM     14  O   UNL     1      -3.258  11.825  23.571  0.00  0.00    +0.000 OA
ENDBRANCH  11  14
ENDBRANCH   5  11
ENDBRANCH   1   8
BRANCH   2  15
ATOM     15  C   UNL     1       2.361   7.856  18.370  0.00  0.00    +0.000 C 
BRANCH  15  16
ATOM     16  S   UNL     1       2.503   6.439  19.488  0.00  0.00    +0.000 S 
BRANCH  16  17
ATOM     17  C   UNL     1       2.986   5.127  18.458  0.00  0.00    +0.000 A 
ATOM     18  N   UNL     1       2.184   4.162  18.071  0.00  0.00    +0.000 NA
ATOM     19  N   UNL     1       2.844   3.411  17.131  0.00  0.00    +0.000 NA
ATOM     20  C   UNL     1       4.032   3.946  16.964  0.00  0.00    +0.000 A 
ATOM     21  N   UNL     1       4.205   5.029  17.796  0.00  0.00    +0.000 N 
BRANCH  21  22
ATOM     22  C   UNL     1       5.419   5.742  17.944  0.00  0.00    +0.000 A 
ATOM     23  C   UNL     1       6.369   5.382  18.899  0.00  0.00    +0.000 A 
ATOM     24  C   UNL     1       7.601   6.027  18.918  0.00  0.00    +0.000 A 
ATOM     25  C   UNL     1       7.843   7.018  17.989  0.00  0.00    +0.000 A 
ATOM     26  N   UNL     1       6.939   7.416  17.069  0.00  0.00    +0.000 NA
ATOM     27  C   UNL     1       5.747   6.774  17.064  0.00  0.00    +0.000 A 
ENDBRANCH  21  22
ENDBRANCH  16  17
ENDBRANCH  15  16
ENDBRANCH   2  15
TORSDOF 7
ENDMDL
MODEL 7
REMARK VINA RESULT:      -7.2      4.187      7.974
REMARK  Name = 
REMARK  8 active torsions:
REMARK  status: ('A' for Active; 'I' for Inactive)
REMARK    1  A    between atoms: C_1  and  O_2
REMARK    2  A    between atoms: O_2  and  C_3
REMARK    3  A    between atoms: C_3  and  C_5
REMARK    4  A    between atoms: C_8  and  N_9
REMARK    5  A    between atoms: C_10  and  C_12
REMARK    6  A    between atoms: C_12  and  S_13
REMARK    7  A    between atoms: S_13  and  C_14
REMARK    8  A    between atoms: N_18  and  C_19
REMARK                            x       y       z     vdW  Elec       q    Type
REMARK                         _______ _______ _______ _____ _____    ______ ____
ROOT
ATOM      1  N   UNL     1       1.636   8.161  21.327  0.00  0.00    +0.000 N 
ATOM      2  C   UNL     1       0.375   8.521  21.787  0.00  0.00    +0.000 C 
ATOM      3  O   UNL     1      -0.680   7.961  21.497  0.00  0.00    +0.000 OA
ATOM      4  H   UNL     1       2.437   8.557  21.816  0.00  0.00    +0.000 HD
ENDROOT
BRANCH   1   8
ATOM      5  C   UNL     1       2.468   5.072  18.560  0.00  0.00    +0.000 A 
ATOM      6  C   UNL     1       2.017   4.752  19.843  0.00  0.00    +0.000 A 
ATOM      7  C   UNL     1       1.737   5.769  20.762  0.00  0.00    +0.000 A 
ATOM      8  C   UNL     1       1.902   7.114  20.420  0.00  0.00    +0.000 A 
ATOM      9  C   UNL     1       2.337   7.435  19.130  0.00  0.00    +0.000 A 
ATOM     10  C   UNL     1       2.632   6.419  18.211  0.00  0.00    +0.000 A 
BRANCH   5  11
ATOM     11  C   UNL     1       2.741   3.951  17.613  0.00  0.00    +0.000 C 
ATOM     12  O   UNL     1       1.888   3.389  16.956  0.00  0.00    +0.000 OA
BRANCH  11  14
ATOM     13  C   UNL     1       4.741   4.080  16.404  0.00  0.00    +0.000 C 
ATOM     14  O   UNL     1       4.070   3.684  17.604  0.00  0.00    +0.000 OA
ENDBRANCH  11  14
ENDBRANCH   5  11
ENDBRANCH   1   8
BRANCH   2  15
ATOM     15  C   UNL     1       0.376   9.693  22.746  0.00  0.00    +0.000 C 
BRANCH  15  16
ATOM     16  S   UNL     1      -0.696  11.042  22.188  0.00  0.00    +0.000 S 
BRANCH  16  17
ATOM     17  C   UNL     1       0.238  11.857  20.971  0.00  0.00    +0.000 A 
ATOM     18  N   UNL     1       1.347  12.516  21.215  0.00  0.00    +0.000 NA
ATOM     19  N   UNL     1       1.904  12.870  20.012  0.00  0.00    +0.000 NA
ATOM     20  C   UNL     1       1.120  12.409  19.064  0.00  0.00    +0.000 A 
ATOM     21  N   UNL     1       0.023  11.773  19.600  0.00  0.00    +0.000 N 
BRANCH  21  22
ATOM     22  C   UNL     1      -1.067  11.279  18.844  0.00  0.00    +0.000 A 
ATOM     23  C   UNL     1      -2.308  11.915  18.844  0.00  0.00    +0.000 A 
ATOM     24  C   UNL     1      -3.307  11.471  17.985  0.00  0.00    +0.000 A 
ATOM     25  C   UNL     1      -3.039  10.398  17.158  0.00  0.00    +0.000 A 
ATOM     26  N   UNL     1      -1.862   9.737  17.150  0.00  0.00    +0.000 NA
ATOM     27  C   UNL     1      -0.901  10.188  17.991  0.00  0.00    +0.000 A 
ENDBRANCH  21  22
ENDBRANCH  16  17
ENDBRANCH  15  16
ENDBRANCH   2  15
TORSDOF 7
ENDMDL
MODEL 8
REMARK VINA RESULT:      -7.2      3.127      3.987
REMARK  Name = 
REMARK  8 active torsions:
REMARK  status: ('A' for Active; 'I' for Inactive)
REMARK    1  A    between atoms: C_1  and  O_2
REMARK    2  A    between atoms: O_2  and  C_3
REMARK    3  A    between atoms: C_3  and  C_5
REMARK    4  A    between atoms: C_8  and  N_9
REMARK    5  A    between atoms: C_10  and  C_12
REMARK    6  A    between atoms: C_12  and  S_13
REMARK    7  A    between atoms: S_13  and  C_14
REMARK    8  A    between atoms: N_18  and  C_19
REMARK                            x       y       z     vdW  Elec       q    Type
REMARK                         _______ _______ _______ _____ _____    ______ ____
ROOT
ATOM      1  N   UNL     1       1.417   8.324  21.128  0.00  0.00    +0.000 N 
ATOM      2  C   UNL     1       1.783   8.110  19.804  0.00  0.00    +0.000 C 
ATOM      3  O   UNL     1       1.570   8.879  18.868  0.00  0.00    +0.000 OA
ATOM      4  H   UNL     1       1.848   7.725  21.829  0.00  0.00    +0.000 HD
ENDROOT
BRANCH   1   8
ATOM      5  C   UNL     1      -0.736  11.646  22.616  0.00  0.00    +0.000 A 
ATOM      6  C   UNL     1       0.118  11.806  21.522  0.00  0.00    +0.000 A 
ATOM      7  C   UNL     1       0.830  10.710  21.023  0.00  0.00    +0.000 A 
ATOM      8  C   UNL     1       0.705   9.446  21.603  0.00  0.00    +0.000 A 
ATOM      9  C   UNL     1      -0.163   9.282  22.688  0.00  0.00    +0.000 A 
ATOM     10  C   UNL     1      -0.868  10.380  23.199  0.00  0.00    +0.000 A 
BRANCH   5  11
ATOM     11  C   UNL     1      -1.483  12.844  23.103  0.00  0.00    +0.000 C 
ATOM     12  O   UNL     1      -1.000  13.713  23.800  0.00  0.00    +0.000 OA
BRANCH  11  14
ATOM     13  C   UNL     1      -3.756  12.982  23.642  0.00  0.00    +0.000 C 
ATOM     14  O   UNL     1      -2.755  12.800  22.636  0.00  0.00    +0.000 OA
ENDBRANCH  11  14
ENDBRANCH   5  11
ENDBRANCH   1   8
BRANCH   2  15
ATOM     15  C   UNL     1       2.530   6.814  19.568  0.00  0.00    +0.000 C 
BRANCH  15  16
ATOM     16  S   UNL     1       2.500   6.307  17.830  0.00  0.00    +0.000 S 
BRANCH  16  17
ATOM     17  C   UNL     1       2.443   4.572  17.891  0.00  0.00    +0.000 A 
ATOM     18  N   UNL     1       1.337   3.876  18.018  0.00  0.00    +0.000 NA
ATOM     19  N   UNL     1       1.645   2.551  17.847  0.00  0.00    +0.000 NA
ATOM     20  C   UNL     1       2.936   2.475  17.611  0.00  0.00    +0.000 A 
ATOM     21  N   UNL     1       3.517   3.722  17.649  0.00  0.00    +0.000 N 
BRANCH  21  22
ATOM     22  C   UNL     1       4.909   3.963  17.558  0.00  0.00    +0.000 A 
ATOM     23  C   UNL     1       5.561   4.041  16.327  0.00  0.00    +0.000 A 
ATOM     24  C   UNL     1       6.900   4.410  16.283  0.00  0.00    +0.000 A 
ATOM     25  C   UNL     1       7.551   4.683  17.470  0.00  0.00    +0.000 A 
ATOM     26  N   UNL     1       6.964   4.589  18.682  0.00  0.00    +0.000 NA
ATOM     27  C   UNL     1       5.658   4.232  18.704  0.00  0.00    +0.000 A 
ENDBRANCH  21  22
ENDBRANCH  16  17
ENDBRANCH  15  16
ENDBRANCH   2  15
TORSDOF 7
ENDMDL
MODEL 9
REMARK VINA RESULT:      -7.1      4.497      8.216
REMARK  Name = 
REMARK  8 active torsions:
REMARK  status: ('A' for Active; 'I' for Inactive)
REMARK    1  A    between atoms: C_1  and  O_2
REMARK    2  A    between atoms: O_2  and  C_3
REMARK    3  A    between atoms: C_3  and  C_5
REMARK    4  A    between atoms: C_8  and  N_9
REMARK    5  A    between atoms: C_10  and  C_12
REMARK    6  A    between atoms: C_12  and  S_13
REMARK    7  A    between atoms: S_13  and  C_14
REMARK    8  A    between atoms: N_18  and  C_19
REMARK                            x       y       z     vdW  Elec       q    Type
REMARK                         _______ _______ _______ _____ _____    ______ ____
ROOT
ATOM      1  N   UNL     1       1.723   8.126  21.419  0.00  0.00    +0.000 N 
ATOM      2  C   UNL     1       0.478   8.601  21.811  0.00  0.00    +0.000 C 
ATOM      3  O   UNL     1      -0.608   8.169  21.427  0.00  0.00    +0.000 OA
ATOM      4  H   UNL     1       2.525   8.415  21.977  0.00  0.00    +0.000 HD
ENDROOT
BRANCH   1   8
ATOM      5  C   UNL     1       2.411   5.078  18.568  0.00  0.00    +0.000 A 
ATOM      6  C   UNL     1       2.019   4.740  19.866  0.00  0.00    +0.000 A 
ATOM      7  C   UNL     1       1.787   5.743  20.813  0.00  0.00    +0.000 A 
ATOM      8  C   UNL     1       1.941   7.092  20.484  0.00  0.00    +0.000 A 
ATOM      9  C   UNL     1       2.316   7.432  19.180  0.00  0.00    +0.000 A 
ATOM     10  C   UNL     1       2.564   6.429  18.233  0.00  0.00    +0.000 A 
BRANCH   5  11
ATOM     11  C   UNL     1       2.634   3.971  17.592  0.00  0.00    +0.000 C 
ATOM     12  O   UNL     1       1.763   3.487  16.898  0.00  0.00    +0.000 OA
BRANCH  11  14
ATOM     13  C   UNL     1       4.677   4.038  16.452  0.00  0.00    +0.000 C 
ATOM     14  O   UNL     1       3.943   3.617  17.606  0.00  0.00    +0.000 OA
ENDBRANCH  11  14
ENDBRANCH   5  11
ENDBRANCH   1   8
BRANCH   2  15
ATOM     15  C   UNL     1       0.533   9.729  22.820  0.00  0.00    +0.000 C 
BRANCH  15  16
ATOM     16  S   UNL     1      -1.045  10.606  22.961  0.00  0.00    +0.000 S 
BRANCH  16  17
ATOM     17  C   UNL     1      -0.714  12.188  22.325  0.00  0.00    +0.000 A 
ATOM     18  N   UNL     1      -0.387  13.224  23.062  0.00  0.00    +0.000 NA
ATOM     19  N   UNL     1      -0.025  14.246  22.223  0.00  0.00    +0.000 NA
ATOM     20  C   UNL     1      -0.135  13.802  20.991  0.00  0.00    +0.000 A 
ATOM     21  N   UNL     1      -0.595  12.504  20.976  0.00  0.00    +0.000 N 
BRANCH  21  22
ATOM     22  C   UNL     1      -0.936  11.787  19.804  0.00  0.00    +0.000 A 
ATOM     23  C   UNL     1      -0.044  10.899  19.202  0.00  0.00    +0.000 A 
ATOM     24  C   UNL     1      -0.470  10.119  18.133  0.00  0.00    +0.000 A 
ATOM     25  C   UNL     1      -1.771  10.256  17.692  0.00  0.00    +0.000 A 
ATOM     26  N   UNL     1      -2.654  11.124  18.228  0.00  0.00    +0.000 NA
ATOM     27  C   UNL     1      -2.222  11.872  19.270  0.00  0.00    +0.000 A 
ENDBRANCH  21  22
ENDBRANCH  16  17
ENDBRANCH  15  16
ENDBRANCH   2  15
TORSDOF 7
ENDMDL
