MODEL 1
REMARK VINA RESULT:      -6.8      0.000      0.000
REMARK  Name = 
REMARK  5 active torsions:
REMARK  status: ('A' for Active; 'I' for Inactive)
REMARK    1  A    between atoms: C_2  and  C_3
REMARK    2  A    between atoms: C_3  and  O_4
REMARK    3  A    between atoms: O_4  and  C_5
REMARK    4  A    between atoms: C_16  and  C_17
REMARK    5  A    between atoms: C_19  and  C_20
REMARK                            x       y       z     vdW  Elec       q    Type
REMARK                         _______ _______ _______ _____ _____    ______ ____
ROOT
ATOM      1  O   UNL     1      -5.338  13.067  20.671  0.00  0.00    +0.000 OA
ATOM      2  C   UNL     1      -4.100  12.971  20.663  0.00  0.00    +0.000 C 
ATOM      3  N   UNL     1      -3.351  13.350  21.786  0.00  0.00    +0.000 N 
ATOM      4  C   UNL     1      -4.193  13.808  22.901  0.00  0.00    +0.000 C 
ATOM      5  C   UNL     1      -3.503  14.830  23.789  0.00  0.00    +0.000 C 
ATOM      6  C   UNL     1      -2.186  14.292  24.318  0.00  0.00    +0.000 C 
ATOM      7  C   UNL     1      -1.311  13.820  23.166  0.00  0.00    +0.000 C 
ATOM      8  C   UNL     1      -2.024  12.810  22.235  0.00  0.00    +0.000 C 
ENDROOT
BRANCH   8   9
ATOM      9  C   UNL     1      -1.029  12.415  21.168  0.00  0.00    +0.000 A 
ATOM     10  N   UNL     1      -0.699  11.182  20.845  0.00  0.00    +0.000 NA
ATOM     11  C   UNL     1       0.303  11.179  19.879  0.00  0.00    +0.000 A 
ATOM     12  C   UNL     1       0.660  12.432  19.423  0.00  0.00    +0.000 A 
ATOM     13  S   UNL     1      -0.275  13.638  20.202  0.00  0.00    +0.000 S 
BRANCH  11  14
ATOM     14  C   UNL     1       0.927   9.933  19.447  0.00  0.00    +0.000 A 
ATOM     15  C   UNL     1       1.211   8.944  20.397  0.00  0.00    +0.000 A 
ATOM     16  C   UNL     1       1.857   7.762  20.022  0.00  0.00    +0.000 A 
ATOM     17  C   UNL     1       2.238   7.569  18.699  0.00  0.00    +0.000 A 
ATOM     18 CL   UNL     1       3.056   6.128  18.240  0.00  0.00    +0.000 Cl
ATOM     19  C   UNL     1       1.965   8.543  17.741  0.00  0.00    +0.000 A 
ATOM     20  C   UNL     1       1.303   9.716  18.112  0.00  0.00    +0.000 A 
ENDBRANCH  11  14
ENDBRANCH   8   9
BRANCH   2  21
ATOM     21  C   UNL     1      -3.462  12.463  19.377  0.00  0.00    +0.000 C 
BRANCH  21  22
ATOM     22  O   UNL     1      -4.080  11.269  18.913  0.00  0.00    +0.000 OA
BRANCH  22  23
ATOM     23  C   UNL     1      -3.642  10.846  17.689  0.00  0.00    +0.000 A 
ATOM     24  C   UNL     1      -2.517  10.021  17.676  0.00  0.00    +0.000 A 
ATOM     25  C   UNL     1      -1.993   9.555  16.467  0.00  0.00    +0.000 A 
ATOM     26  C   UNL     1      -2.604   9.897  15.259  0.00  0.00    +0.000 A 
ATOM     27  C   UNL     1      -3.746  10.692  15.267  0.00  0.00    +0.000 A 
ATOM     28  C   UNL     1      -4.264  11.163  16.476  0.00  0.00    +0.000 A 
ENDBRANCH  22  23
ENDBRANCH  21  22
ENDBRANCH   2  21
TORSDOF 5
ENDMDL
MODEL 2
REMARK VINA RESULT:      -6.6      5.593      9.614
REMARK  Name = 
REMARK  5 active torsions:
REMARK  status: ('A' for Active; 'I' for Inactive)
REMARK    1  A    between atoms: C_2  and  C_3
REMARK    2  A    between atoms: C_3  and  O_4
REMARK    3  A    between atoms: O_4  and  C_5
REMARK    4  A    between atoms: C_16  and  C_17
REMARK    5  A    between atoms: C_19  and  C_20
REMARK                            x       y       z     vdW  Elec       q    Type
REMARK                         _______ _______ _______ _____ _____    ______ ____
ROOT
ATOM      1  O   UNL     1       5.793   3.781  19.342  0.00  0.00    +0.000 OA
ATOM      2  C   UNL     1       4.786   4.509  19.331  0.00  0.00    +0.000 C 
ATOM      3  N   UNL     1       3.508   3.953  19.487  0.00  0.00    +0.000 N 
ATOM      4  C   UNL     1       3.542   2.498  19.687  0.00  0.00    +0.000 C 
ATOM      5  C   UNL     1       2.296   1.795  19.172  0.00  0.00    +0.000 C 
ATOM      6  C   UNL     1       1.044   2.377  19.800  0.00  0.00    +0.000 C 
ATOM      7  C   UNL     1       1.004   3.885  19.593  0.00  0.00    +0.000 C 
ATOM      8  C   UNL     1       2.289   4.599  20.077  0.00  0.00    +0.000 C 
ENDROOT
BRANCH   8   9
ATOM      9  C   UNL     1       2.089   6.077  19.834  0.00  0.00    +0.000 A 
ATOM     10  N   UNL     1       1.639   6.947  20.715  0.00  0.00    +0.000 NA
ATOM     11  C   UNL     1       1.503   8.206  20.138  0.00  0.00    +0.000 A 
ATOM     12  C   UNL     1       1.938   8.284  18.830  0.00  0.00    +0.000 A 
ATOM     13  S   UNL     1       2.538   6.765  18.310  0.00  0.00    +0.000 S 
BRANCH  11  14
ATOM     14  C   UNL     1       0.903   9.311  20.877  0.00  0.00    +0.000 A 
ATOM     15  C   UNL     1       0.326   9.065  22.130  0.00  0.00    +0.000 A 
ATOM     16  C   UNL     1      -0.303  10.093  22.838  0.00  0.00    +0.000 A 
ATOM     17  C   UNL     1      -0.375  11.369  22.290  0.00  0.00    +0.000 A 
ATOM     18 CL   UNL     1      -1.172  12.629  23.147  0.00  0.00    +0.000 Cl
ATOM     19  C   UNL     1       0.191  11.632  21.045  0.00  0.00    +0.000 A 
ATOM     20  C   UNL     1       0.836  10.609  20.345  0.00  0.00    +0.000 A 
ENDBRANCH  11  14
ENDBRANCH   8   9
BRANCH   2  21
ATOM     21  C   UNL     1       5.020   5.997  19.107  0.00  0.00    +0.000 C 
BRANCH  21  22
ATOM     22  O   UNL     1       6.245   6.245  18.428  0.00  0.00    +0.000 OA
BRANCH  22  23
ATOM     23  C   UNL     1       6.269   5.807  17.133  0.00  0.00    +0.000 A 
ATOM     24  C   UNL     1       5.281   6.304  16.284  0.00  0.00    +0.000 A 
ATOM     25  C   UNL     1       5.223   5.897  14.948  0.00  0.00    +0.000 A 
ATOM     26  C   UNL     1       6.170   5.003  14.445  0.00  0.00    +0.000 A 
ATOM     27  C   UNL     1       7.179   4.529  15.278  0.00  0.00    +0.000 A 
ATOM     28  C   UNL     1       7.231   4.931  16.615  0.00  0.00    +0.000 A 
ENDBRANCH  22  23
ENDBRANCH  21  22
ENDBRANCH   2  21
TORSDOF 5
ENDMDL
MODEL 3
REMARK VINA RESULT:      -6.6      1.709      1.978
REMARK  Name = 
REMARK  5 active torsions:
REMARK  status: ('A' for Active; 'I' for Inactive)
REMARK    1  A    between atoms: C_2  and  C_3
REMARK    2  A    between atoms: C_3  and  O_4
REMARK    3  A    between atoms: O_4  and  C_5
REMARK    4  A    between atoms: C_16  and  C_17
REMARK    5  A    between atoms: C_19  and  C_20
REMARK                            x       y       z     vdW  Elec       q    Type
REMARK                         _______ _______ _______ _____ _____    ______ ____
ROOT
ATOM      1  O   UNL     1      -3.828  14.512  20.281  0.00  0.00    +0.000 OA
ATOM      2  C   UNL     1      -2.869  13.787  20.593  0.00  0.00    +0.000 C 
ATOM      3  N   UNL     1      -1.707  14.346  21.145  0.00  0.00    +0.000 N 
ATOM      4  C   UNL     1      -1.805  15.802  21.318  0.00  0.00    +0.000 C 
ATOM      5  C   UNL     1      -0.461  16.506  21.223  0.00  0.00    +0.000 C 
ATOM      6  C   UNL     1       0.527  15.929  22.219  0.00  0.00    +0.000 C 
ATOM      7  C   UNL     1       0.634  14.421  22.042  0.00  0.00    +0.000 C 
ATOM      8  C   UNL     1      -0.738  13.705  22.096  0.00  0.00    +0.000 C 
ENDROOT
BRANCH   8   9
ATOM      9  C   UNL     1      -0.470  12.227  21.935  0.00  0.00    +0.000 A 
ATOM     10  N   UNL     1       0.340  11.684  21.049  0.00  0.00    +0.000 NA
ATOM     11  C   UNL     1       0.291  10.296  21.124  0.00  0.00    +0.000 A 
ATOM     12  C   UNL     1      -0.507   9.807  22.139  0.00  0.00    +0.000 A 
ATOM     13  S   UNL     1      -1.203  11.098  23.025  0.00  0.00    +0.000 S 
BRANCH  11  14
ATOM     14  C   UNL     1       1.005   9.465  20.161  0.00  0.00    +0.000 A 
ATOM     15  C   UNL     1       1.498   8.217  20.563  0.00  0.00    +0.000 A 
ATOM     16  C   UNL     1       2.232   7.422  19.678  0.00  0.00    +0.000 A 
ATOM     17  C   UNL     1       2.491   7.877  18.390  0.00  0.00    +0.000 A 
ATOM     18 CL   UNL     1       3.415   6.913  17.306  0.00  0.00    +0.000 Cl
ATOM     19  C   UNL     1       2.010   9.116  17.972  0.00  0.00    +0.000 A 
ATOM     20  C   UNL     1       1.262   9.903  18.852  0.00  0.00    +0.000 A 
ENDBRANCH  11  14
ENDBRANCH   8   9
BRANCH   2  21
ATOM     21  C   UNL     1      -3.018  12.297  20.313  0.00  0.00    +0.000 C 
BRANCH  21  22
ATOM     22  O   UNL     1      -4.047  12.036  19.367  0.00  0.00    +0.000 OA
BRANCH  22  23
ATOM     23  C   UNL     1      -3.614  11.441  18.215  0.00  0.00    +0.000 A 
ATOM     24  C   UNL     1      -2.454  10.671  18.304  0.00  0.00    +0.000 A 
ATOM     25  C   UNL     1      -1.933  10.040  17.170  0.00  0.00    +0.000 A 
ATOM     26  C   UNL     1      -2.582  10.158  15.940  0.00  0.00    +0.000 A 
ATOM     27  C   UNL     1      -3.758  10.898  15.851  0.00  0.00    +0.000 A 
ATOM     28  C   UNL     1      -4.273  11.534  16.983  0.00  0.00    +0.000 A 
ENDBRANCH  22  23
ENDBRANCH  21  22
ENDBRANCH   2  21
TORSDOF 5
ENDMDL
MODEL 4
REMARK VINA RESULT:      -6.4      8.709     11.034
REMARK  Name = 
REMARK  5 active torsions:
REMARK  status: ('A' for Active; 'I' for Inactive)
REMARK    1  A    between atoms: C_2  and  C_3
REMARK    2  A    between atoms: C_3  and  O_4
REMARK    3  A    between atoms: O_4  and  C_5
REMARK    4  A    between atoms: C_16  and  C_17
REMARK    5  A    between atoms: C_19  and  C_20
REMARK                            x       y       z     vdW  Elec       q    Type
REMARK                         _______ _______ _______ _____ _____    ______ ____
ROOT
ATOM      1  O   UNL     1       3.127   4.816  17.095  0.00  0.00    +0.000 OA
ATOM      2  C   UNL     1       4.283   5.255  17.214  0.00  0.00    +0.000 C 
ATOM      3  N   UNL     1       5.226   5.057  16.195  0.00  0.00    +0.000 N 
ATOM      4  C   UNL     1       4.669   4.339  15.040  0.00  0.00    +0.000 C 
ATOM      5  C   UNL     1       5.707   3.515  14.293  0.00  0.00    +0.000 C 
ATOM      6  C   UNL     1       6.875   4.379  13.855  0.00  0.00    +0.000 C 
ATOM      7  C   UNL     1       7.456   5.123  15.050  0.00  0.00    +0.000 C 
ATOM      8  C   UNL     1       6.394   5.928  15.838  0.00  0.00    +0.000 C 
ENDROOT
BRANCH   8   9
ATOM      9  C   UNL     1       7.120   6.627  16.965  0.00  0.00    +0.000 A 
ATOM     10  N   UNL     1       7.331   7.924  17.054  0.00  0.00    +0.000 NA
ATOM     11  C   UNL     1       8.097   8.221  18.177  0.00  0.00    +0.000 A 
ATOM     12  C   UNL     1       8.387   7.131  18.974  0.00  0.00    +0.000 A 
ATOM     13  S   UNL     1       7.685   5.712  18.321  0.00  0.00    +0.000 S 
BRANCH  11  14
ATOM     14  C   UNL     1       8.571   9.577  18.427  0.00  0.00    +0.000 A 
ATOM     15  C   UNL     1       9.286   9.849  19.601  0.00  0.00    +0.000 A 
ATOM     16  C   UNL     1       9.708  11.149  19.893  0.00  0.00    +0.000 A 
ATOM     17  C   UNL     1       9.402  12.190  19.022  0.00  0.00    +0.000 A 
ATOM     18 CL   UNL     1       9.896  13.795  19.392  0.00  0.00    +0.000 Cl
ATOM     19  C   UNL     1       8.690  11.939  17.851  0.00  0.00    +0.000 A 
ATOM     20  C   UNL     1       8.285  10.636  17.551  0.00  0.00    +0.000 A 
ENDBRANCH  11  14
ENDBRANCH   8   9
BRANCH   2  21
ATOM     21  C   UNL     1       4.612   5.972  18.517  0.00  0.00    +0.000 C 
BRANCH  21  22
ATOM     22  O   UNL     1       4.679   5.072  19.616  0.00  0.00    +0.000 OA
BRANCH  22  23
ATOM     23  C   UNL     1       3.472   4.548  19.989  0.00  0.00    +0.000 A 
ATOM     24  C   UNL     1       3.413   3.164  20.153  0.00  0.00    +0.000 A 
ATOM     25  C   UNL     1       2.214   2.544  20.518  0.00  0.00    +0.000 A 
ATOM     26  C   UNL     1       1.068   3.309  20.743  0.00  0.00    +0.000 A 
ATOM     27  C   UNL     1       1.129   4.693  20.613  0.00  0.00    +0.000 A 
ATOM     28  C   UNL     1       2.325   5.310  20.240  0.00  0.00    +0.000 A 
ENDBRANCH  22  23
ENDBRANCH  21  22
ENDBRANCH   2  21
TORSDOF 5
ENDMDL
MODEL 5
REMARK VINA RESULT:      -6.4      5.641      9.725
REMARK  Name = 
REMARK  5 active torsions:
REMARK  status: ('A' for Active; 'I' for Inactive)
REMARK    1  A    between atoms: C_2  and  C_3
REMARK    2  A    between atoms: C_3  and  O_4
REMARK    3  A    between atoms: O_4  and  C_5
REMARK    4  A    between atoms: C_16  and  C_17
REMARK    5  A    between atoms: C_19  and  C_20
REMARK                            x       y       z     vdW  Elec       q    Type
REMARK                         _______ _______ _______ _____ _____    ______ ____
ROOT
ATOM      1  O   UNL     1       6.059   3.855  19.363  0.00  0.00    +0.000 OA
ATOM      2  C   UNL     1       5.024   4.538  19.283  0.00  0.00    +0.000 C 
ATOM      3  N   UNL     1       3.764   3.921  19.294  0.00  0.00    +0.000 N 
ATOM      4  C   UNL     1       3.849   2.461  19.442  0.00  0.00    +0.000 C 
ATOM      5  C   UNL     1       2.692   1.727  18.784  0.00  0.00    +0.000 C 
ATOM      6  C   UNL     1       1.360   2.226  19.310  0.00  0.00    +0.000 C 
ATOM      7  C   UNL     1       1.267   3.738  19.157  0.00  0.00    +0.000 C 
ATOM      8  C   UNL     1       2.466   4.487  19.789  0.00  0.00    +0.000 C 
ENDROOT
BRANCH   8   9
ATOM      9  C   UNL     1       2.219   5.964  19.584  0.00  0.00    +0.000 A 
ATOM     10  N   UNL     1       1.706   6.788  20.474  0.00  0.00    +0.000 NA
ATOM     11  C   UNL     1       1.544   8.059  19.931  0.00  0.00    +0.000 A 
ATOM     12  C   UNL     1       2.022   8.194  18.643  0.00  0.00    +0.000 A 
ATOM     13  S   UNL     1       2.696   6.716  18.099  0.00  0.00    +0.000 S 
BRANCH  11  14
ATOM     14  C   UNL     1       0.877   9.117  20.681  0.00  0.00    +0.000 A 
ATOM     15  C   UNL     1       0.808  10.406  20.135  0.00  0.00    +0.000 A 
ATOM     16  C   UNL     1       0.222  11.453  20.853  0.00  0.00    +0.000 A 
ATOM     17  C   UNL     1      -0.283  11.222  22.128  0.00  0.00    +0.000 A 
ATOM     18 CL   UNL     1      -0.980  12.514  23.025  0.00  0.00    +0.000 Cl
ATOM     19  C   UNL     1      -0.221   9.948  22.688  0.00  0.00    +0.000 A 
ATOM     20  C   UNL     1       0.349   8.898  21.963  0.00  0.00    +0.000 A 
ENDBRANCH  11  14
ENDBRANCH   8   9
BRANCH   2  21
ATOM     21  C   UNL     1       5.207   6.043  19.139  0.00  0.00    +0.000 C 
BRANCH  21  22
ATOM     22  O   UNL     1       6.337   6.366  18.339  0.00  0.00    +0.000 OA
BRANCH  22  23
ATOM     23  C   UNL     1       6.269   5.903  17.055  0.00  0.00    +0.000 A 
ATOM     24  C   UNL     1       7.253   4.997  16.661  0.00  0.00    +0.000 A 
ATOM     25  C   UNL     1       7.267   4.485  15.360  0.00  0.00    +0.000 A 
ATOM     26  C   UNL     1       6.279   4.861  14.448  0.00  0.00    +0.000 A 
ATOM     27  C   UNL     1       5.275   5.738  14.844  0.00  0.00    +0.000 A 
ATOM     28  C   UNL     1       5.267   6.255  16.142  0.00  0.00    +0.000 A 
ENDBRANCH  22  23
ENDBRANCH  21  22
ENDBRANCH   2  21
TORSDOF 5
ENDMDL
MODEL 6
REMARK VINA RESULT:      -6.2      2.919      5.498
REMARK  Name = 
REMARK  5 active torsions:
REMARK  status: ('A' for Active; 'I' for Inactive)
REMARK    1  A    between atoms: C_2  and  C_3
REMARK    2  A    between atoms: C_3  and  O_4
REMARK    3  A    between atoms: O_4  and  C_5
REMARK    4  A    between atoms: C_16  and  C_17
REMARK    5  A    between atoms: C_19  and  C_20
REMARK                            x       y       z     vdW  Elec       q    Type
REMARK                         _______ _______ _______ _____ _____    ______ ____
ROOT
ATOM      1  O   UNL     1      -0.390  14.955  23.892  0.00  0.00    +0.000 OA
ATOM      2  C   UNL     1      -1.475  14.631  23.382  0.00  0.00    +0.000 C 
ATOM      3  N   UNL     1      -2.586  15.481  23.478  0.00  0.00    +0.000 N 
ATOM      4  C   UNL     1      -2.284  16.733  24.187  0.00  0.00    +0.000 C 
ATOM      5  C   UNL     1      -3.488  17.315  24.909  0.00  0.00    +0.000 C 
ATOM      6  C   UNL     1      -4.647  17.526  23.953  0.00  0.00    +0.000 C 
ATOM      7  C   UNL     1      -4.965  16.232  23.218  0.00  0.00    +0.000 C 
ATOM      8  C   UNL     1      -3.732  15.613  22.517  0.00  0.00    +0.000 C 
ENDROOT
BRANCH   8   9
ATOM      9  C   UNL     1      -4.206  14.362  21.814  0.00  0.00    +0.000 A 
ATOM     10  N   UNL     1      -3.704  13.869  20.700  0.00  0.00    +0.000 NA
ATOM     11  C   UNL     1      -4.427  12.754  20.287  0.00  0.00    +0.000 A 
ATOM     12  C   UNL     1      -5.431  12.371  21.154  0.00  0.00    +0.000 A 
ATOM     13  S   UNL     1      -5.469  13.409  22.517  0.00  0.00    +0.000 S 
BRANCH  11  14
ATOM     14  C   UNL     1      -4.143  12.105  19.012  0.00  0.00    +0.000 A 
ATOM     15  C   UNL     1      -2.834  11.695  18.728  0.00  0.00    +0.000 A 
ATOM     16  C   UNL     1      -2.520  11.118  17.494  0.00  0.00    +0.000 A 
ATOM     17  C   UNL     1      -3.510  10.962  16.530  0.00  0.00    +0.000 A 
ATOM     18 CL   UNL     1      -3.123  10.277  15.001  0.00  0.00    +0.000 Cl
ATOM     19  C   UNL     1      -4.817  11.365  16.794  0.00  0.00    +0.000 A 
ATOM     20  C   UNL     1      -5.134  11.926  18.034  0.00  0.00    +0.000 A 
ENDBRANCH  11  14
ENDBRANCH   8   9
BRANCH   2  21
ATOM     21  C   UNL     1      -1.529  13.273  22.695  0.00  0.00    +0.000 C 
BRANCH  21  22
ATOM     22  O   UNL     1      -0.240  12.832  22.289  0.00  0.00    +0.000 OA
BRANCH  22  23
ATOM     23  C   UNL     1      -0.175  11.505  21.965  0.00  0.00    +0.000 A 
ATOM     24  C   UNL     1      -0.557  10.599  22.954  0.00  0.00    +0.000 A 
ATOM     25  C   UNL     1      -0.508   9.223  22.713  0.00  0.00    +0.000 A 
ATOM     26  C   UNL     1      -0.094   8.743  21.469  0.00  0.00    +0.000 A 
ATOM     27  C   UNL     1       0.257   9.642  20.467  0.00  0.00    +0.000 A 
ATOM     28  C   UNL     1       0.214  11.017  20.712  0.00  0.00    +0.000 A 
ENDBRANCH  22  23
ENDBRANCH  21  22
ENDBRANCH   2  21
TORSDOF 5
ENDMDL
MODEL 7
REMARK VINA RESULT:      -6.2      1.169      1.265
REMARK  Name = 
REMARK  5 active torsions:
REMARK  status: ('A' for Active; 'I' for Inactive)
REMARK    1  A    between atoms: C_2  and  C_3
REMARK    2  A    between atoms: C_3  and  O_4
REMARK    3  A    between atoms: O_4  and  C_5
REMARK    4  A    between atoms: C_16  and  C_17
REMARK    5  A    between atoms: C_19  and  C_20
REMARK                            x       y       z     vdW  Elec       q    Type
REMARK                         _______ _______ _______ _____ _____    ______ ____
ROOT
ATOM      1  O   UNL     1      -4.099  12.781  22.086  0.00  0.00    +0.000 OA
ATOM      2  C   UNL     1      -2.968  12.818  21.572  0.00  0.00    +0.000 C 
ATOM      3  N   UNL     1      -1.996  13.705  22.059  0.00  0.00    +0.000 N 
ATOM      4  C   UNL     1      -2.472  14.495  23.203  0.00  0.00    +0.000 C 
ATOM      5  C   UNL     1      -1.808  15.859  23.303  0.00  0.00    +0.000 C 
ATOM      6  C   UNL     1      -0.298  15.727  23.353  0.00  0.00    +0.000 C 
ATOM      7  C   UNL     1       0.199  14.912  22.168  0.00  0.00    +0.000 C 
ATOM      8  C   UNL     1      -0.505  13.539  22.038  0.00  0.00    +0.000 C 
ENDROOT
BRANCH   8   9
ATOM      9  C   UNL     1       0.108  12.841  20.846  0.00  0.00    +0.000 A 
ATOM     10  N   UNL     1       0.311  11.544  20.736  0.00  0.00    +0.000 NA
ATOM     11  C   UNL     1       0.965  11.249  19.544  0.00  0.00    +0.000 A 
ATOM     12  C   UNL     1       1.175  12.339  18.723  0.00  0.00    +0.000 A 
ATOM     13  S   UNL     1       0.538  13.758  19.441  0.00  0.00    +0.000 S 
BRANCH  11  14
ATOM     14  C   UNL     1       1.414   9.893  19.249  0.00  0.00    +0.000 A 
ATOM     15  C   UNL     1       1.413   8.933  20.269  0.00  0.00    +0.000 A 
ATOM     16  C   UNL     1       1.887   7.639  20.030  0.00  0.00    +0.000 A 
ATOM     17  C   UNL     1       2.381   7.303  18.775  0.00  0.00    +0.000 A 
ATOM     18 CL   UNL     1       2.990   5.720  18.485  0.00  0.00    +0.000 Cl
ATOM     19  C   UNL     1       2.392   8.245  17.748  0.00  0.00    +0.000 A 
ATOM     20  C   UNL     1       1.901   9.532  17.982  0.00  0.00    +0.000 A 
ENDBRANCH  11  14
ENDBRANCH   8   9
BRANCH   2  21
ATOM     21  C   UNL     1      -2.723  11.890  20.390  0.00  0.00    +0.000 C 
BRANCH  21  22
ATOM     22  O   UNL     1      -3.085  12.495  19.155  0.00  0.00    +0.000 OA
BRANCH  22  23
ATOM     23  C   UNL     1      -3.092  11.639  18.089  0.00  0.00    +0.000 A 
ATOM     24  C   UNL     1      -2.003  10.775  17.971  0.00  0.00    +0.000 A 
ATOM     25  C   UNL     1      -1.922   9.877  16.903  0.00  0.00    +0.000 A 
ATOM     26  C   UNL     1      -2.943   9.823  15.953  0.00  0.00    +0.000 A 
ATOM     27  C   UNL     1      -4.048  10.658  16.083  0.00  0.00    +0.000 A 
ATOM     28  C   UNL     1      -4.124  11.560  17.147  0.00  0.00    +0.000 A 
ENDBRANCH  22  23
ENDBRANCH  21  22
ENDBRANCH   2  21
TORSDOF 5
ENDMDL
MODEL 8
REMARK VINA RESULT:      -6.2      8.546     10.963
REMARK  Name = 
REMARK  5 active torsions:
REMARK  status: ('A' for Active; 'I' for Inactive)
REMARK    1  A    between atoms: C_2  and  C_3
REMARK    2  A    between atoms: C_3  and  O_4
REMARK    3  A    between atoms: O_4  and  C_5
REMARK    4  A    between atoms: C_16  and  C_17
REMARK    5  A    between atoms: C_19  and  C_20
REMARK                            x       y       z     vdW  Elec       q    Type
REMARK                         _______ _______ _______ _____ _____    ______ ____
ROOT
ATOM      1  O   UNL     1       7.881  14.455  17.650  0.00  0.00    +0.000 OA
ATOM      2  C   UNL     1       8.235  14.167  18.806  0.00  0.00    +0.000 C 
ATOM      3  N   UNL     1       9.366  13.366  19.022  0.00  0.00    +0.000 N 
ATOM      4  C   UNL     1      10.037  12.983  17.772  0.00  0.00    +0.000 C 
ATOM      5  C   UNL     1      10.755  11.646  17.866  0.00  0.00    +0.000 C 
ATOM      6  C   UNL     1      11.748  11.641  19.013  0.00  0.00    +0.000 C 
ATOM      7  C   UNL     1      11.057  12.036  20.310  0.00  0.00    +0.000 C 
ATOM      8  C   UNL     1      10.289  13.376  20.205  0.00  0.00    +0.000 C 
ENDROOT
BRANCH   8   9
ATOM      9  C   UNL     1       9.686  13.645  21.565  0.00  0.00    +0.000 A 
ATOM     10  N   UNL     1       9.087  12.756  22.330  0.00  0.00    +0.000 NA
ATOM     11  C   UNL     1       8.579  13.357  23.477  0.00  0.00    +0.000 A 
ATOM     12  C   UNL     1       8.881  14.699  23.600  0.00  0.00    +0.000 A 
ATOM     13  S   UNL     1       9.823  15.222  22.268  0.00  0.00    +0.000 S 
BRANCH  11  14
ATOM     14  C   UNL     1       7.763  12.604  24.422  0.00  0.00    +0.000 A 
ATOM     15  C   UNL     1       6.688  11.842  23.945  0.00  0.00    +0.000 A 
ATOM     16  C   UNL     1       5.856  11.151  24.830  0.00  0.00    +0.000 A 
ATOM     17  C   UNL     1       6.081  11.233  26.200  0.00  0.00    +0.000 A 
ATOM     18 CL   UNL     1       5.043  10.407  27.294  0.00  0.00    +0.000 Cl
ATOM     19  C   UNL     1       7.143  11.988  26.694  0.00  0.00    +0.000 A 
ATOM     20  C   UNL     1       7.986  12.663  25.807  0.00  0.00    +0.000 A 
ENDBRANCH  11  14
ENDBRANCH   8   9
BRANCH   2  21
ATOM     21  C   UNL     1       7.365  14.694  19.939  0.00  0.00    +0.000 C 
BRANCH  21  22
ATOM     22  O   UNL     1       6.311  15.520  19.459  0.00  0.00    +0.000 OA
BRANCH  22  23
ATOM     23  C   UNL     1       5.067  14.964  19.570  0.00  0.00    +0.000 A 
ATOM     24  C   UNL     1       4.401  14.676  18.378  0.00  0.00    +0.000 A 
ATOM     25  C   UNL     1       3.118  14.120  18.399  0.00  0.00    +0.000 A 
ATOM     26  C   UNL     1       2.499  13.830  19.616  0.00  0.00    +0.000 A 
ATOM     27  C   UNL     1       3.171  14.084  20.808  0.00  0.00    +0.000 A 
ATOM     28  C   UNL     1       4.450  14.646  20.785  0.00  0.00    +0.000 A 
ENDBRANCH  22  23
ENDBRANCH  21  22
ENDBRANCH   2  21
TORSDOF 5
ENDMDL
MODEL 9
REMARK VINA RESULT:      -6.2      3.492      6.723
REMARK  Name = 
REMARK  5 active torsions:
REMARK  status: ('A' for Active; 'I' for Inactive)
REMARK    1  A    between atoms: C_2  and  C_3
REMARK    2  A    between atoms: C_3  and  O_4
REMARK    3  A    between atoms: O_4  and  C_5
REMARK    4  A    between atoms: C_16  and  C_17
REMARK    5  A    between atoms: C_19  and  C_20
REMARK                            x       y       z     vdW  Elec       q    Type
REMARK                         _______ _______ _______ _____ _____    ______ ____
ROOT
ATOM      1  O   UNL     1       1.567  15.240  22.610  0.00  0.00    +0.000 OA
ATOM      2  C   UNL     1       1.152  14.462  21.736  0.00  0.00    +0.000 C 
ATOM      3  N   UNL     1       1.807  14.369  20.499  0.00  0.00    +0.000 N 
ATOM      4  C   UNL     1       2.990  15.239  20.418  0.00  0.00    +0.000 C 
ATOM      5  C   UNL     1       3.290  15.707  19.003  0.00  0.00    +0.000 C 
ATOM      6  C   UNL     1       3.444  14.528  18.061  0.00  0.00    +0.000 C 
ATOM      7  C   UNL     1       2.221  13.627  18.140  0.00  0.00    +0.000 C 
ATOM      8  C   UNL     1       1.887  13.182  19.585  0.00  0.00    +0.000 C 
ENDROOT
BRANCH   8   9
ATOM      9  C   UNL     1       0.678  12.279  19.499  0.00  0.00    +0.000 A 
ATOM     10  N   UNL     1      -0.494  12.609  18.999  0.00  0.00    +0.000 NA
ATOM     11  C   UNL     1      -1.404  11.567  19.149  0.00  0.00    +0.000 A 
ATOM     12  C   UNL     1      -0.870  10.417  19.697  0.00  0.00    +0.000 A 
ATOM     13  S   UNL     1       0.799  10.632  20.022  0.00  0.00    +0.000 S 
BRANCH  11  14
ATOM     14  C   UNL     1      -2.806  11.735  18.786  0.00  0.00    +0.000 A 
ATOM     15  C   UNL     1      -3.232  11.369  17.502  0.00  0.00    +0.000 A 
ATOM     16  C   UNL     1      -4.558  11.568  17.108  0.00  0.00    +0.000 A 
ATOM     17  C   UNL     1      -5.464  12.149  17.989  0.00  0.00    +0.000 A 
ATOM     18 CL   UNL     1      -7.090  12.420  17.498  0.00  0.00    +0.000 Cl
ATOM     19  C   UNL     1      -5.059  12.521  19.269  0.00  0.00    +0.000 A 
ATOM     20  C   UNL     1      -3.737  12.306  19.669  0.00  0.00    +0.000 A 
ENDBRANCH  11  14
ENDBRANCH   8   9
BRANCH   2  21
ATOM     21  C   UNL     1      -0.101  13.663  22.069  0.00  0.00    +0.000 C 
BRANCH  21  22
ATOM     22  O   UNL     1      -1.284  14.429  21.883  0.00  0.00    +0.000 OA
BRANCH  22  23
ATOM     23  C   UNL     1      -2.384  13.932  22.526  0.00  0.00    +0.000 A 
ATOM     24  C   UNL     1      -3.536  14.718  22.499  0.00  0.00    +0.000 A 
ATOM     25  C   UNL     1      -4.701  14.291  23.143  0.00  0.00    +0.000 A 
ATOM     26  C   UNL     1      -4.727  13.063  23.805  0.00  0.00    +0.000 A 
ATOM     27  C   UNL     1      -3.592  12.259  23.809  0.00  0.00    +0.000 A 
ATOM     28  C   UNL     1      -2.426  12.689  23.170  0.00  0.00    +0.000 A 
ENDBRANCH  22  23
ENDBRANCH  21  22
ENDBRANCH   2  21
TORSDOF 5
ENDMDL
