MODEL 1
REMARK VINA RESULT:      -9.4      0.000      0.000
REMARK  Name = 
REMARK  8 active torsions:
REMARK  status: ('A' for Active; 'I' for Inactive)
REMARK    1  A    between atoms: C_2  and  O_3
REMARK    2  A    between atoms: C_2  and  C_4
REMARK    3  A    between atoms: C_7  and  N_8
REMARK    4  A    between atoms: C_9  and  C_11
REMARK    5  A    between atoms: C_14  and  C_15
REMARK    6  A    between atoms: C_15  and  C_16
REMARK    7  A    between atoms: C_24  and  C_25
REMARK    8  A    between atoms: C_25  and  C_26
REMARK                            x       y       z     vdW  Elec       q    Type
REMARK                         _______ _______ _______ _____ _____    ______ ____
ROOT
ATOM      1  C   UNL     1       7.133   6.471  18.008  0.00  0.00    +0.000 A 
ATOM      2  C   UNL     1       7.002   5.669  19.146  0.00  0.00    +0.000 A 
ATOM      3  C   UNL     1       6.209   4.513  19.098  0.00  0.00    +0.000 A 
ATOM      4  C   UNL     1       5.530   4.175  17.923  0.00  0.00    +0.000 A 
ATOM      5  C   UNL     1       5.665   4.968  16.766  0.00  0.00    +0.000 A 
ATOM      6  C   UNL     1       6.463   6.124  16.829  0.00  0.00    +0.000 A 
ENDROOT
BRANCH   4   7
ATOM      7  N   UNL     1       4.702   3.037  17.888  0.00  0.00    +0.000 N 
ATOM      8  C   UNL     1       3.451   2.906  18.484  0.00  0.00    +0.000 C 
ATOM      9  O   UNL     1       3.007   1.776  18.716  0.00  0.00    +0.000 OA
ATOM     10  H   UNL     1       5.191   2.150  17.976  0.00  0.00    +0.000 HD
BRANCH   8  11
ATOM     11  C   UNL     1       2.678   4.110  18.928  0.00  0.00    +0.000 A 
ATOM     12  C   UNL     1       2.573   5.274  18.170  0.00  0.00    +0.000 A 
ATOM     13  C   UNL     1       2.136   6.467  18.739  0.00  0.00    +0.000 A 
ATOM     14  C   UNL     1       1.685   6.494  20.059  0.00  0.00    +0.000 A 
ATOM     15  C   UNL     1       1.594   5.276  20.752  0.00  0.00    +0.000 A 
ATOM     16  C   UNL     1       2.096   4.091  20.196  0.00  0.00    +0.000 A 
BRANCH  14  17
ATOM     17  C   UNL     1       1.482   7.797  20.790  0.00  0.00    +0.000 C 
BRANCH  17  18
ATOM     18  C   UNL     1       0.053   8.378  20.844  0.00  0.00    +0.000 C 
ATOM     19  C   UNL     1      -0.501   8.533  22.267  0.00  0.00    +0.000 C 
ATOM     20  C   UNL     1       0.060   9.717  23.055  0.00  0.00    +0.000 C 
ATOM     21  C   UNL     1       0.192  11.016  22.262  0.00  0.00    +0.000 C 
ATOM     22  C   UNL     1       0.727  10.834  20.847  0.00  0.00    +0.000 C 
ATOM     23  C   UNL     1      -0.003   9.723  20.103  0.00  0.00    +0.000 C 
ENDBRANCH  17  18
ENDBRANCH  14  17
ENDBRANCH   8  11
ENDBRANCH   4   7
BRANCH   1  25
ATOM     24  O   UNL     1       7.795   8.588  17.154  0.00  0.00    +0.000 OA
ATOM     25  C   UNL     1       7.916   7.732  18.013  0.00  0.00    +0.000 C 
BRANCH  25  26
ATOM     26  O   UNL     1       8.805   7.807  19.023  0.00  0.00    +0.000 OA
ATOM     27  H   UNL     1       9.722   7.990  18.749  0.00  0.00    +0.000 HD
ENDBRANCH  25  26
ENDBRANCH   1  25
BRANCH   5  28
ATOM     28  C   UNL     1       4.920   4.663  15.483  0.00  0.00    +0.000 C 
BRANCH  28  29
ATOM     29  C   UNL     1       5.795   4.442  14.283  0.00  0.00    +0.000 A 
ATOM     30  C   UNL     1       5.391   3.560  13.271  0.00  0.00    +0.000 A 
ATOM     31  C   UNL     1       6.171   3.391  12.126  0.00  0.00    +0.000 A 
ATOM     32  C   UNL     1       7.363   4.101  11.995  0.00  0.00    +0.000 A 
ATOM     33  C   UNL     1       7.777   4.973  13.002  0.00  0.00    +0.000 A 
ATOM     34  C   UNL     1       6.999   5.139  14.147  0.00  0.00    +0.000 A 
ENDBRANCH  28  29
ENDBRANCH   5  28
TORSDOF 8
ENDMDL
MODEL 2
REMARK VINA RESULT:      -9.3      1.624      8.813
REMARK  Name = 
REMARK  8 active torsions:
REMARK  status: ('A' for Active; 'I' for Inactive)
REMARK    1  A    between atoms: C_2  and  O_3
REMARK    2  A    between atoms: C_2  and  C_4
REMARK    3  A    between atoms: C_7  and  N_8
REMARK    4  A    between atoms: C_9  and  C_11
REMARK    5  A    between atoms: C_14  and  C_15
REMARK    6  A    between atoms: C_15  and  C_16
REMARK    7  A    between atoms: C_24  and  C_25
REMARK    8  A    between atoms: C_25  and  C_26
REMARK                            x       y       z     vdW  Elec       q    Type
REMARK                         _______ _______ _______ _____ _____    ______ ____
ROOT
ATOM      1  C   UNL     1       2.277   3.509  19.076  0.00  0.00    +0.000 A 
ATOM      2  C   UNL     1       3.473   2.993  19.588  0.00  0.00    +0.000 A 
ATOM      3  C   UNL     1       4.600   3.821  19.693  0.00  0.00    +0.000 A 
ATOM      4  C   UNL     1       4.537   5.151  19.266  0.00  0.00    +0.000 A 
ATOM      5  C   UNL     1       3.335   5.684  18.761  0.00  0.00    +0.000 A 
ATOM      6  C   UNL     1       2.213   4.843  18.661  0.00  0.00    +0.000 A 
ENDROOT
BRANCH   4   7
ATOM      7  N   UNL     1       5.682   5.970  19.334  0.00  0.00    +0.000 N 
ATOM      8  C   UNL     1       6.691   6.061  18.381  0.00  0.00    +0.000 C 
ATOM      9  O   UNL     1       7.800   6.494  18.714  0.00  0.00    +0.000 OA
ATOM     10  H   UNL     1       6.107   6.033  20.256  0.00  0.00    +0.000 HD
BRANCH   8  11
ATOM     11  C   UNL     1       6.483   5.559  16.985  0.00  0.00    +0.000 A 
ATOM     12  C   UNL     1       5.715   6.231  16.037  0.00  0.00    +0.000 A 
ATOM     13  C   UNL     1       5.276   5.593  14.880  0.00  0.00    +0.000 A 
ATOM     14  C   UNL     1       5.693   4.294  14.593  0.00  0.00    +0.000 A 
ATOM     15  C   UNL     1       6.636   3.697  15.445  0.00  0.00    +0.000 A 
ATOM     16  C   UNL     1       7.023   4.320  16.639  0.00  0.00    +0.000 A 
BRANCH  14  17
ATOM     17  C   UNL     1       5.021   3.476  13.518  0.00  0.00    +0.000 C 
BRANCH  17  18
ATOM     18  C   UNL     1       5.354   3.808  12.047  0.00  0.00    +0.000 C 
ATOM     19  C   UNL     1       6.851   4.015  11.780  0.00  0.00    +0.000 C 
ATOM     20  C   UNL     1       7.683   2.734  11.729  0.00  0.00    +0.000 C 
ATOM     21  C   UNL     1       7.040   1.576  10.967  0.00  0.00    +0.000 C 
ATOM     22  C   UNL     1       5.550   1.402  11.235  0.00  0.00    +0.000 C 
ATOM     23  C   UNL     1       4.795   2.719  11.117  0.00  0.00    +0.000 C 
ENDBRANCH  17  18
ENDBRANCH  14  17
ENDBRANCH   8  11
ENDBRANCH   4   7
BRANCH   1  25
ATOM     24  O   UNL     1       0.957   1.856  17.991  0.00  0.00    +0.000 OA
ATOM     25  C   UNL     1       1.067   2.668  18.893  0.00  0.00    +0.000 C 
BRANCH  25  26
ATOM     26  O   UNL     1       0.091   2.932  19.784  0.00  0.00    +0.000 OA
ATOM     27  H   UNL     1      -0.084   3.880  19.931  0.00  0.00    +0.000 HD
ENDBRANCH  25  26
ENDBRANCH   1  25
BRANCH   5  28
ATOM     28  C   UNL     1       3.231   7.107  18.250  0.00  0.00    +0.000 C 
BRANCH  28  29
ATOM     29  C   UNL     1       2.208   7.955  18.952  0.00  0.00    +0.000 A 
ATOM     30  C   UNL     1       1.896   7.711  20.296  0.00  0.00    +0.000 A 
ATOM     31  C   UNL     1       0.989   8.528  20.972  0.00  0.00    +0.000 A 
ATOM     32  C   UNL     1       0.387   9.590  20.300  0.00  0.00    +0.000 A 
ATOM     33  C   UNL     1       0.685   9.833  18.959  0.00  0.00    +0.000 A 
ATOM     34  C   UNL     1       1.589   9.015  18.283  0.00  0.00    +0.000 A 
ENDBRANCH  28  29
ENDBRANCH   5  28
TORSDOF 8
ENDMDL
MODEL 3
REMARK VINA RESULT:      -8.7      1.358      1.679
REMARK  Name = 
REMARK  8 active torsions:
REMARK  status: ('A' for Active; 'I' for Inactive)
REMARK    1  A    between atoms: C_2  and  O_3
REMARK    2  A    between atoms: C_2  and  C_4
REMARK    3  A    between atoms: C_7  and  N_8
REMARK    4  A    between atoms: C_9  and  C_11
REMARK    5  A    between atoms: C_14  and  C_15
REMARK    6  A    between atoms: C_15  and  C_16
REMARK    7  A    between atoms: C_24  and  C_25
REMARK    8  A    between atoms: C_25  and  C_26
REMARK                            x       y       z     vdW  Elec       q    Type
REMARK                         _______ _______ _______ _____ _____    ______ ____
ROOT
ATOM      1  C   UNL     1       7.261   6.468  18.102  0.00  0.00    +0.000 A 
ATOM      2  C   UNL     1       7.118   5.757  19.299  0.00  0.00    +0.000 A 
ATOM      3  C   UNL     1       6.274   4.638  19.348  0.00  0.00    +0.000 A 
ATOM      4  C   UNL     1       5.559   4.247  18.211  0.00  0.00    +0.000 A 
ATOM      5  C   UNL     1       5.705   4.948  16.998  0.00  0.00    +0.000 A 
ATOM      6  C   UNL     1       6.554   6.068  16.964  0.00  0.00    +0.000 A 
ENDROOT
BRANCH   4   7
ATOM      7  N   UNL     1       4.680   3.147  18.273  0.00  0.00    +0.000 N 
ATOM      8  C   UNL     1       3.373   3.159  18.749  0.00  0.00    +0.000 C 
ATOM      9  O   UNL     1       2.851   2.100  19.112  0.00  0.00    +0.000 OA
ATOM     10  H   UNL     1       5.113   2.271  18.553  0.00  0.00    +0.000 HD
BRANCH   8  11
ATOM     11  C   UNL     1       2.622   4.446  18.911  0.00  0.00    +0.000 A 
ATOM     12  C   UNL     1       2.120   5.179  17.837  0.00  0.00    +0.000 A 
ATOM     13  C   UNL     1       1.726   6.505  17.992  0.00  0.00    +0.000 A 
ATOM     14  C   UNL     1       1.721   7.094  19.257  0.00  0.00    +0.000 A 
ATOM     15  C   UNL     1       2.026   6.287  20.365  0.00  0.00    +0.000 A 
ATOM     16  C   UNL     1       2.483   4.973  20.194  0.00  0.00    +0.000 A 
BRANCH  14  17
ATOM     17  C   UNL     1       1.582   8.587  19.423  0.00  0.00    +0.000 C 
BRANCH  17  18
ATOM     18  C   UNL     1       1.233   9.422  18.172  0.00  0.00    +0.000 C 
ATOM     19  C   UNL     1      -0.272   9.648  17.976  0.00  0.00    +0.000 C 
ATOM     20  C   UNL     1      -0.897  10.690  18.904  0.00  0.00    +0.000 C 
ATOM     21  C   UNL     1      -0.068  11.958  19.102  0.00  0.00    +0.000 C 
ATOM     22  C   UNL     1       1.425  11.709  19.276  0.00  0.00    +0.000 C 
ATOM     23  C   UNL     1       1.972  10.769  18.210  0.00  0.00    +0.000 C 
ENDBRANCH  17  18
ENDBRANCH  14  17
ENDBRANCH   8  11
ENDBRANCH   4   7
BRANCH   1  25
ATOM     24  O   UNL     1       8.821   8.072  18.907  0.00  0.00    +0.000 OA
ATOM     25  C   UNL     1       8.099   7.690  18.002  0.00  0.00    +0.000 C 
BRANCH  25  26
ATOM     26  O   UNL     1       7.938   8.357  16.842  0.00  0.00    +0.000 OA
ATOM     27  H   UNL     1       7.874   9.325  16.932  0.00  0.00    +0.000 HD
ENDBRANCH  25  26
ENDBRANCH   1  25
BRANCH   5  28
ATOM     28  C   UNL     1       4.922   4.584  15.753  0.00  0.00    +0.000 C 
BRANCH  28  29
ATOM     29  C   UNL     1       5.753   4.411  14.514  0.00  0.00    +0.000 A 
ATOM     30  C   UNL     1       5.288   3.610  13.462  0.00  0.00    +0.000 A 
ATOM     31  C   UNL     1       6.026   3.489  12.284  0.00  0.00    +0.000 A 
ATOM     32  C   UNL     1       7.239   4.165  12.160  0.00  0.00    +0.000 A 
ATOM     33  C   UNL     1       7.713   4.957  13.206  0.00  0.00    +0.000 A 
ATOM     34  C   UNL     1       6.977   5.075  14.384  0.00  0.00    +0.000 A 
ENDBRANCH  28  29
ENDBRANCH   5  28
TORSDOF 8
ENDMDL
MODEL 4
REMARK VINA RESULT:      -8.5      0.764      1.354
REMARK  Name = 
REMARK  8 active torsions:
REMARK  status: ('A' for Active; 'I' for Inactive)
REMARK    1  A    between atoms: C_2  and  O_3
REMARK    2  A    between atoms: C_2  and  C_4
REMARK    3  A    between atoms: C_7  and  N_8
REMARK    4  A    between atoms: C_9  and  C_11
REMARK    5  A    between atoms: C_14  and  C_15
REMARK    6  A    between atoms: C_15  and  C_16
REMARK    7  A    between atoms: C_24  and  C_25
REMARK    8  A    between atoms: C_25  and  C_26
REMARK                            x       y       z     vdW  Elec       q    Type
REMARK                         _______ _______ _______ _____ _____    ______ ____
ROOT
ATOM      1  C   UNL     1       7.067   6.104  18.047  0.00  0.00    +0.000 A 
ATOM      2  C   UNL     1       6.659   5.608  19.289  0.00  0.00    +0.000 A 
ATOM      3  C   UNL     1       5.749   4.542  19.350  0.00  0.00    +0.000 A 
ATOM      4  C   UNL     1       5.233   3.991  18.172  0.00  0.00    +0.000 A 
ATOM      5  C   UNL     1       5.647   4.475  16.915  0.00  0.00    +0.000 A 
ATOM      6  C   UNL     1       6.558   5.544  16.870  0.00  0.00    +0.000 A 
ENDROOT
BRANCH   4   7
ATOM      7  N   UNL     1       4.289   2.948  18.234  0.00  0.00    +0.000 N 
ATOM      8  C   UNL     1       3.032   3.005  18.828  0.00  0.00    +0.000 C 
ATOM      9  O   UNL     1       2.471   1.955  19.160  0.00  0.00    +0.000 OA
ATOM     10  H   UNL     1       4.682   2.026  18.410  0.00  0.00    +0.000 HD
BRANCH   8  11
ATOM     11  C   UNL     1       2.389   4.319  19.151  0.00  0.00    +0.000 A 
ATOM     12  C   UNL     1       2.275   5.361  18.232  0.00  0.00    +0.000 A 
ATOM     13  C   UNL     1       1.979   6.657  18.646  0.00  0.00    +0.000 A 
ATOM     14  C   UNL     1       1.679   6.918  19.983  0.00  0.00    +0.000 A 
ATOM     15  C   UNL     1       1.589   5.829  20.865  0.00  0.00    +0.000 A 
ATOM     16  C   UNL     1       1.950   4.538  20.456  0.00  0.00    +0.000 A 
BRANCH  14  17
ATOM     17  C   UNL     1       1.641   8.329  20.515  0.00  0.00    +0.000 C 
BRANCH  17  18
ATOM     18  C   UNL     1       0.382   9.174  20.224  0.00  0.00    +0.000 C 
ATOM     19  C   UNL     1       0.120  10.276  21.260  0.00  0.00    +0.000 C 
ATOM     20  C   UNL     1       1.028  11.501  21.146  0.00  0.00    +0.000 C 
ATOM     21  C   UNL     1       1.272  11.992  19.720  0.00  0.00    +0.000 C 
ATOM     22  C   UNL     1       1.511  10.880  18.707  0.00  0.00    +0.000 C 
ATOM     23  C   UNL     1       0.463   9.780  18.814  0.00  0.00    +0.000 C 
ENDBRANCH  17  18
ENDBRANCH  14  17
ENDBRANCH   8  11
ENDBRANCH   4   7
BRANCH   1  25
ATOM     24  O   UNL     1       8.128   7.884  16.881  0.00  0.00    +0.000 OA
ATOM     25  C   UNL     1       7.986   7.264  17.920  0.00  0.00    +0.000 C 
BRANCH  25  26
ATOM     26  O   UNL     1       8.681   7.522  19.046  0.00  0.00    +0.000 OA
ATOM     27  H   UNL     1       8.231   7.266  19.872  0.00  0.00    +0.000 HD
ENDBRANCH  25  26
ENDBRANCH   1  25
BRANCH   5  28
ATOM     28  C   UNL     1       5.086   3.936  15.615  0.00  0.00    +0.000 C 
BRANCH  28  29
ATOM     29  C   UNL     1       5.930   4.209  14.403  0.00  0.00    +0.000 A 
ATOM     30  C   UNL     1       6.990   5.122  14.477  0.00  0.00    +0.000 A 
ATOM     31  C   UNL     1       7.815   5.340  13.372  0.00  0.00    +0.000 A 
ATOM     32  C   UNL     1       7.575   4.647  12.187  0.00  0.00    +0.000 A 
ATOM     33  C   UNL     1       6.515   3.743  12.103  0.00  0.00    +0.000 A 
ATOM     34  C   UNL     1       5.690   3.529  13.206  0.00  0.00    +0.000 A 
ENDBRANCH  28  29
ENDBRANCH   5  28
TORSDOF 8
ENDMDL
MODEL 5
REMARK VINA RESULT:      -8.3      0.776      1.516
REMARK  Name = 
REMARK  8 active torsions:
REMARK  status: ('A' for Active; 'I' for Inactive)
REMARK    1  A    between atoms: C_2  and  O_3
REMARK    2  A    between atoms: C_2  and  C_4
REMARK    3  A    between atoms: C_7  and  N_8
REMARK    4  A    between atoms: C_9  and  C_11
REMARK    5  A    between atoms: C_14  and  C_15
REMARK    6  A    between atoms: C_15  and  C_16
REMARK    7  A    between atoms: C_24  and  C_25
REMARK    8  A    between atoms: C_25  and  C_26
REMARK                            x       y       z     vdW  Elec       q    Type
REMARK                         _______ _______ _______ _____ _____    ______ ____
ROOT
ATOM      1  C   UNL     1       7.440   6.764  18.025  0.00  0.00    +0.000 A 
ATOM      2  C   UNL     1       7.425   5.800  19.039  0.00  0.00    +0.000 A 
ATOM      3  C   UNL     1       6.654   4.639  18.886  0.00  0.00    +0.000 A 
ATOM      4  C   UNL     1       5.882   4.455  17.733  0.00  0.00    +0.000 A 
ATOM      5  C   UNL     1       5.900   5.413  16.701  0.00  0.00    +0.000 A 
ATOM      6  C   UNL     1       6.678   6.572  16.868  0.00  0.00    +0.000 A 
ENDROOT
BRANCH   4   7
ATOM      7  N   UNL     1       5.076   3.308  17.599  0.00  0.00    +0.000 N 
ATOM      8  C   UNL     1       3.997   2.957  18.404  0.00  0.00    +0.000 C 
ATOM      9  O   UNL     1       3.626   1.778  18.439  0.00  0.00    +0.000 OA
ATOM     10  H   UNL     1       5.579   2.459  17.353  0.00  0.00    +0.000 HD
BRANCH   8  11
ATOM     11  C   UNL     1       3.337   3.965  19.295  0.00  0.00    +0.000 A 
ATOM     12  C   UNL     1       2.248   3.669  20.111  0.00  0.00    +0.000 A 
ATOM     13  C   UNL     1       1.466   4.678  20.665  0.00  0.00    +0.000 A 
ATOM     14  C   UNL     1       1.826   6.016  20.502  0.00  0.00    +0.000 A 
ATOM     15  C   UNL     1       3.041   6.301  19.857  0.00  0.00    +0.000 A 
ATOM     16  C   UNL     1       3.788   5.285  19.248  0.00  0.00    +0.000 A 
BRANCH  14  17
ATOM     17  C   UNL     1       0.864   7.131  20.831  0.00  0.00    +0.000 C 
BRANCH  17  18
ATOM     18  C   UNL     1       1.435   8.560  20.962  0.00  0.00    +0.000 C 
ATOM     19  C   UNL     1       0.892   9.543  19.916  0.00  0.00    +0.000 C 
ATOM     20  C   UNL     1      -0.532  10.038  20.170  0.00  0.00    +0.000 C 
ATOM     21  C   UNL     1      -0.842  10.394  21.623  0.00  0.00    +0.000 C 
ATOM     22  C   UNL     1      -0.278   9.413  22.642  0.00  0.00    +0.000 C 
ATOM     23  C   UNL     1       1.190   9.102  22.379  0.00  0.00    +0.000 C 
ENDBRANCH  17  18
ENDBRANCH  14  17
ENDBRANCH   8  11
ENDBRANCH   4   7
BRANCH   1  25
ATOM     24  O   UNL     1       8.939   8.272  19.088  0.00  0.00    +0.000 OA
ATOM     25  C   UNL     1       8.197   8.036  18.152  0.00  0.00    +0.000 C 
BRANCH  25  26
ATOM     26  O   UNL     1       7.937   8.914  17.163  0.00  0.00    +0.000 OA
ATOM     27  H   UNL     1       7.041   8.851  16.784  0.00  0.00    +0.000 HD
ENDBRANCH  25  26
ENDBRANCH   1  25
BRANCH   5  28
ATOM     28  C   UNL     1       5.051   5.275  15.453  0.00  0.00    +0.000 C 
BRANCH  28  29
ATOM     29  C   UNL     1       5.773   4.724  14.257  0.00  0.00    +0.000 A 
ATOM     30  C   UNL     1       5.157   3.761  13.446  0.00  0.00    +0.000 A 
ATOM     31  C   UNL     1       5.798   3.285  12.302  0.00  0.00    +0.000 A 
ATOM     32  C   UNL     1       7.063   3.767  11.969  0.00  0.00    +0.000 A 
ATOM     33  C   UNL     1       7.687   4.718  12.778  0.00  0.00    +0.000 A 
ATOM     34  C   UNL     1       7.048   5.191  13.923  0.00  0.00    +0.000 A 
ENDBRANCH  28  29
ENDBRANCH   5  28
TORSDOF 8
ENDMDL
MODEL 6
REMARK VINA RESULT:      -8.3      5.233      9.414
REMARK  Name = 
REMARK  8 active torsions:
REMARK  status: ('A' for Active; 'I' for Inactive)
REMARK    1  A    between atoms: C_2  and  O_3
REMARK    2  A    between atoms: C_2  and  C_4
REMARK    3  A    between atoms: C_7  and  N_8
REMARK    4  A    between atoms: C_9  and  C_11
REMARK    5  A    between atoms: C_14  and  C_15
REMARK    6  A    between atoms: C_15  and  C_16
REMARK    7  A    between atoms: C_24  and  C_25
REMARK    8  A    between atoms: C_25  and  C_26
REMARK                            x       y       z     vdW  Elec       q    Type
REMARK                         _______ _______ _______ _____ _____    ______ ____
ROOT
ATOM      1  C   UNL     1      -1.929  10.868  17.897  0.00  0.00    +0.000 A 
ATOM      2  C   UNL     1      -1.742  12.254  17.918  0.00  0.00    +0.000 A 
ATOM      3  C   UNL     1      -0.748  12.811  18.735  0.00  0.00    +0.000 A 
ATOM      4  C   UNL     1       0.039  11.986  19.546  0.00  0.00    +0.000 A 
ATOM      5  C   UNL     1      -0.132  10.588  19.523  0.00  0.00    +0.000 A 
ATOM      6  C   UNL     1      -1.133  10.044  18.699  0.00  0.00    +0.000 A 
ENDROOT
BRANCH   4   7
ATOM      7  N   UNL     1       1.010  12.550  20.397  0.00  0.00    +0.000 N 
ATOM      8  C   UNL     1       0.768  13.297  21.546  0.00  0.00    +0.000 C 
ATOM      9  O   UNL     1       1.650  14.048  21.976  0.00  0.00    +0.000 OA
ATOM     10  H   UNL     1       1.814  12.950  19.921  0.00  0.00    +0.000 HD
BRANCH   8  11
ATOM     11  C   UNL     1      -0.572  13.272  22.215  0.00  0.00    +0.000 A 
ATOM     12  C   UNL     1      -1.165  12.107  22.698  0.00  0.00    +0.000 A 
ATOM     13  C   UNL     1      -2.521  12.065  23.009  0.00  0.00    +0.000 A 
ATOM     14  C   UNL     1      -3.293  13.225  22.950  0.00  0.00    +0.000 A 
ATOM     15  C   UNL     1      -2.645  14.438  22.667  0.00  0.00    +0.000 A 
ATOM     16  C   UNL     1      -1.295  14.463  22.293  0.00  0.00    +0.000 A 
BRANCH  14  17
ATOM     17  C   UNL     1      -4.800  13.164  22.996  0.00  0.00    +0.000 C 
BRANCH  17  18
ATOM     18  C   UNL     1      -5.583  13.812  21.833  0.00  0.00    +0.000 C 
ATOM     19  C   UNL     1      -4.925  13.620  20.459  0.00  0.00    +0.000 C 
ATOM     20  C   UNL     1      -5.087  12.225  19.853  0.00  0.00    +0.000 C 
ATOM     21  C   UNL     1      -6.479  11.615  20.001  0.00  0.00    +0.000 C 
ATOM     22  C   UNL     1      -7.117  11.834  21.366  0.00  0.00    +0.000 C 
ATOM     23  C   UNL     1      -7.027  13.289  21.808  0.00  0.00    +0.000 C 
ENDBRANCH  17  18
ENDBRANCH  14  17
ENDBRANCH   8  11
ENDBRANCH   4   7
BRANCH   1  25
ATOM     24  O   UNL     1      -3.292  10.595  15.968  0.00  0.00    +0.000 OA
ATOM     25  C   UNL     1      -2.998  10.225  17.092  0.00  0.00    +0.000 C 
BRANCH  25  26
ATOM     26  O   UNL     1      -3.640   9.237  17.745  0.00  0.00    +0.000 OA
ATOM     27  H   UNL     1      -3.349   8.336  17.512  0.00  0.00    +0.000 HD
ENDBRANCH  25  26
ENDBRANCH   1  25
BRANCH   5  28
ATOM     28  C   UNL     1       0.670   9.659  20.412  0.00  0.00    +0.000 C 
BRANCH  28  29
ATOM     29  C   UNL     1       1.489   8.637  19.678  0.00  0.00    +0.000 A 
ATOM     30  C   UNL     1       1.972   8.914  18.392  0.00  0.00    +0.000 A 
ATOM     31  C   UNL     1       2.781   7.993  17.725  0.00  0.00    +0.000 A 
ATOM     32  C   UNL     1       3.103   6.786  18.343  0.00  0.00    +0.000 A 
ATOM     33  C   UNL     1       2.618   6.499  19.619  0.00  0.00    +0.000 A 
ATOM     34  C   UNL     1       1.807   7.417  20.284  0.00  0.00    +0.000 A 
ENDBRANCH  28  29
ENDBRANCH   5  28
TORSDOF 8
ENDMDL
MODEL 7
REMARK VINA RESULT:      -8.2      4.138      9.066
REMARK  Name = 
REMARK  8 active torsions:
REMARK  status: ('A' for Active; 'I' for Inactive)
REMARK    1  A    between atoms: C_2  and  O_3
REMARK    2  A    between atoms: C_2  and  C_4
REMARK    3  A    between atoms: C_7  and  N_8
REMARK    4  A    between atoms: C_9  and  C_11
REMARK    5  A    between atoms: C_14  and  C_15
REMARK    6  A    between atoms: C_15  and  C_16
REMARK    7  A    between atoms: C_24  and  C_25
REMARK    8  A    between atoms: C_25  and  C_26
REMARK                            x       y       z     vdW  Elec       q    Type
REMARK                         _______ _______ _______ _____ _____    ______ ____
ROOT
ATOM      1  C   UNL     1       1.015  13.756  19.364  0.00  0.00    +0.000 A 
ATOM      2  C   UNL     1       1.873  13.055  20.218  0.00  0.00    +0.000 A 
ATOM      3  C   UNL     1       1.403  11.926  20.906  0.00  0.00    +0.000 A 
ATOM      4  C   UNL     1       0.074  11.515  20.756  0.00  0.00    +0.000 A 
ATOM      5  C   UNL     1      -0.795  12.206  19.889  0.00  0.00    +0.000 A 
ATOM      6  C   UNL     1      -0.310  13.336  19.207  0.00  0.00    +0.000 A 
ENDROOT
BRANCH   4   7
ATOM      7  N   UNL     1      -0.408  10.406  21.478  0.00  0.00    +0.000 N 
ATOM      8  C   UNL     1      -0.161   9.066  21.197  0.00  0.00    +0.000 C 
ATOM      9  O   UNL     1      -0.927   8.203  21.640  0.00  0.00    +0.000 OA
ATOM     10  H   UNL     1      -1.369  10.491  21.800  0.00  0.00    +0.000 HD
BRANCH   8  11
ATOM     11  C   UNL     1       0.966   8.661  20.295  0.00  0.00    +0.000 A 
ATOM     12  C   UNL     1       1.208   9.258  19.060  0.00  0.00    +0.000 A 
ATOM     13  C   UNL     1       2.038   8.655  18.118  0.00  0.00    +0.000 A 
ATOM     14  C   UNL     1       2.735   7.490  18.439  0.00  0.00    +0.000 A 
ATOM     15  C   UNL     1       2.651   7.009  19.756  0.00  0.00    +0.000 A 
ATOM     16  C   UNL     1       1.765   7.584  20.677  0.00  0.00    +0.000 A 
BRANCH  14  17
ATOM     17  C   UNL     1       3.403   6.659  17.372  0.00  0.00    +0.000 C 
BRANCH  17  18
ATOM     18  C   UNL     1       4.299   5.487  17.827  0.00  0.00    +0.000 C 
ATOM     19  C   UNL     1       4.387   4.341  16.809  0.00  0.00    +0.000 C 
ATOM     20  C   UNL     1       5.280   4.616  15.600  0.00  0.00    +0.000 C 
ATOM     21  C   UNL     1       6.605   5.307  15.920  0.00  0.00    +0.000 C 
ATOM     22  C   UNL     1       6.495   6.428  16.945  0.00  0.00    +0.000 C 
ATOM     23  C   UNL     1       5.706   5.997  18.175  0.00  0.00    +0.000 C 
ENDBRANCH  17  18
ENDBRANCH  14  17
ENDBRANCH   8  11
ENDBRANCH   4   7
BRANCH   1  25
ATOM     24  O   UNL     1       0.726  15.968  18.543  0.00  0.00    +0.000 OA
ATOM     25  C   UNL     1       1.440  14.987  18.650  0.00  0.00    +0.000 C 
BRANCH  25  26
ATOM     26  O   UNL     1       2.663  14.888  18.093  0.00  0.00    +0.000 OA
ATOM     27  H   UNL     1       3.400  15.150  18.674  0.00  0.00    +0.000 HD
ENDBRANCH  25  26
ENDBRANCH   1  25
BRANCH   5  28
ATOM     28  C   UNL     1      -2.251  11.821  19.725  0.00  0.00    +0.000 C 
BRANCH  28  29
ATOM     29  C   UNL     1      -2.611  11.278  18.372  0.00  0.00    +0.000 A 
ATOM     30  C   UNL     1      -1.807  10.300  17.771  0.00  0.00    +0.000 A 
ATOM     31  C   UNL     1      -2.164   9.749  16.540  0.00  0.00    +0.000 A 
ATOM     32  C   UNL     1      -3.326  10.181  15.902  0.00  0.00    +0.000 A 
ATOM     33  C   UNL     1      -4.126  11.161  16.490  0.00  0.00    +0.000 A 
ATOM     34  C   UNL     1      -3.767  11.715  17.718  0.00  0.00    +0.000 A 
ENDBRANCH  28  29
ENDBRANCH   5  28
TORSDOF 8
ENDMDL
MODEL 8
REMARK VINA RESULT:      -8.2      1.155      1.934
REMARK  Name = 
REMARK  8 active torsions:
REMARK  status: ('A' for Active; 'I' for Inactive)
REMARK    1  A    between atoms: C_2  and  O_3
REMARK    2  A    between atoms: C_2  and  C_4
REMARK    3  A    between atoms: C_7  and  N_8
REMARK    4  A    between atoms: C_9  and  C_11
REMARK    5  A    between atoms: C_14  and  C_15
REMARK    6  A    between atoms: C_15  and  C_16
REMARK    7  A    between atoms: C_24  and  C_25
REMARK    8  A    between atoms: C_25  and  C_26
REMARK                            x       y       z     vdW  Elec       q    Type
REMARK                         _______ _______ _______ _____ _____    ______ ____
ROOT
ATOM      1  C   UNL     1       7.048   6.605  17.787  0.00  0.00    +0.000 A 
ATOM      2  C   UNL     1       7.175   5.593  18.744  0.00  0.00    +0.000 A 
ATOM      3  C   UNL     1       6.556   4.352  18.533  0.00  0.00    +0.000 A 
ATOM      4  C   UNL     1       5.794   4.134  17.380  0.00  0.00    +0.000 A 
ATOM      5  C   UNL     1       5.670   5.142  16.404  0.00  0.00    +0.000 A 
ATOM      6  C   UNL     1       6.296   6.381  16.629  0.00  0.00    +0.000 A 
ENDROOT
BRANCH   4   7
ATOM      7  N   UNL     1       5.139   2.902  17.188  0.00  0.00    +0.000 N 
ATOM      8  C   UNL     1       3.976   2.477  17.821  0.00  0.00    +0.000 C 
ATOM      9  O   UNL     1       3.722   1.268  17.872  0.00  0.00    +0.000 OA
ATOM     10  H   UNL     1       5.758   2.101  17.087  0.00  0.00    +0.000 HD
BRANCH   8  11
ATOM     11  C   UNL     1       3.076   3.451  18.519  0.00  0.00    +0.000 A 
ATOM     12  C   UNL     1       2.111   4.208  17.858  0.00  0.00    +0.000 A 
ATOM     13  C   UNL     1       1.529   5.319  18.462  0.00  0.00    +0.000 A 
ATOM     14  C   UNL     1       1.821   5.632  19.790  0.00  0.00    +0.000 A 
ATOM     15  C   UNL     1       2.632   4.744  20.516  0.00  0.00    +0.000 A 
ATOM     16  C   UNL     1       3.264   3.665  19.884  0.00  0.00    +0.000 A 
BRANCH  14  17
ATOM     17  C   UNL     1       1.446   6.968  20.380  0.00  0.00    +0.000 C 
BRANCH  17  18
ATOM     18  C   UNL     1       2.225   8.212  19.900  0.00  0.00    +0.000 C 
ATOM     19  C   UNL     1       2.327   8.331  18.373  0.00  0.00    +0.000 C 
ATOM     20  C   UNL     1       1.051   8.802  17.674  0.00  0.00    +0.000 C 
ATOM     21  C   UNL     1       0.320   9.949  18.369  0.00  0.00    +0.000 C 
ATOM     22  C   UNL     1       0.248   9.817  19.885  0.00  0.00    +0.000 C 
ATOM     23  C   UNL     1       1.606   9.488  20.492  0.00  0.00    +0.000 C 
ENDBRANCH  17  18
ENDBRANCH  14  17
ENDBRANCH   8  11
ENDBRANCH   4   7
BRANCH   1  25
ATOM     24  O   UNL     1       7.285   8.927  17.335  0.00  0.00    +0.000 OA
ATOM     25  C   UNL     1       7.637   7.955  17.979  0.00  0.00    +0.000 C 
BRANCH  25  26
ATOM     26  O   UNL     1       8.629   7.982  18.892  0.00  0.00    +0.000 OA
ATOM     27  H   UNL     1       9.236   7.220  18.858  0.00  0.00    +0.000 HD
ENDBRANCH  25  26
ENDBRANCH   1  25
BRANCH   5  28
ATOM     28  C   UNL     1       4.825   4.966  15.159  0.00  0.00    +0.000 C 
BRANCH  28  29
ATOM     29  C   UNL     1       5.580   4.512  13.943  0.00  0.00    +0.000 A 
ATOM     30  C   UNL     1       6.871   4.997  13.696  0.00  0.00    +0.000 A 
ATOM     31  C   UNL     1       7.602   4.538  12.599  0.00  0.00    +0.000 A 
ATOM     32  C   UNL     1       7.038   3.596  11.741  0.00  0.00    +0.000 A 
ATOM     33  C   UNL     1       5.749   3.116  11.975  0.00  0.00    +0.000 A 
ATOM     34  C   UNL     1       5.017   3.576  13.069  0.00  0.00    +0.000 A 
ENDBRANCH  28  29
ENDBRANCH   5  28
TORSDOF 8
ENDMDL
MODEL 9
REMARK VINA RESULT:      -8.2      0.795      1.451
REMARK  Name = 
REMARK  8 active torsions:
REMARK  status: ('A' for Active; 'I' for Inactive)
REMARK    1  A    between atoms: C_2  and  O_3
REMARK    2  A    between atoms: C_2  and  C_4
REMARK    3  A    between atoms: C_7  and  N_8
REMARK    4  A    between atoms: C_9  and  C_11
REMARK    5  A    between atoms: C_14  and  C_15
REMARK    6  A    between atoms: C_15  and  C_16
REMARK    7  A    between atoms: C_24  and  C_25
REMARK    8  A    between atoms: C_25  and  C_26
REMARK                            x       y       z     vdW  Elec       q    Type
REMARK                         _______ _______ _______ _____ _____    ______ ____
ROOT
ATOM      1  C   UNL     1       7.301   6.809  17.968  0.00  0.00    +0.000 A 
ATOM      2  C   UNL     1       7.286   5.862  18.998  0.00  0.00    +0.000 A 
ATOM      3  C   UNL     1       6.555   4.676  18.844  0.00  0.00    +0.000 A 
ATOM      4  C   UNL     1       5.823   4.449  17.673  0.00  0.00    +0.000 A 
ATOM      5  C   UNL     1       5.841   5.390  16.625  0.00  0.00    +0.000 A 
ATOM      6  C   UNL     1       6.578   6.575  16.794  0.00  0.00    +0.000 A 
ENDROOT
BRANCH   4   7
ATOM      7  N   UNL     1       5.056   3.276  17.536  0.00  0.00    +0.000 N 
ATOM      8  C   UNL     1       3.798   3.041  18.084  0.00  0.00    +0.000 C 
ATOM      9  O   UNL     1       3.408   1.877  18.226  0.00  0.00    +0.000 OA
ATOM     10  H   UNL     1       5.588   2.410  17.579  0.00  0.00    +0.000 HD
BRANCH   8  11
ATOM     11  C   UNL     1       2.952   4.171  18.586  0.00  0.00    +0.000 A 
ATOM     12  C   UNL     1       2.924   5.429  17.990  0.00  0.00    +0.000 A 
ATOM     13  C   UNL     1       2.395   6.531  18.656  0.00  0.00    +0.000 A 
ATOM     14  C   UNL     1       1.777   6.373  19.897  0.00  0.00    +0.000 A 
ATOM     15  C   UNL     1       1.620   5.070  20.397  0.00  0.00    +0.000 A 
ATOM     16  C   UNL     1       2.211   3.975  19.752  0.00  0.00    +0.000 A 
BRANCH  14  17
ATOM     17  C   UNL     1       1.457   7.561  20.768  0.00  0.00    +0.000 C 
BRANCH  17  18
ATOM     18  C   UNL     1       1.816   8.965  20.234  0.00  0.00    +0.000 C 
ATOM     19  C   UNL     1       1.381   9.206  18.781  0.00  0.00    +0.000 C 
ATOM     20  C   UNL     1      -0.113   9.462  18.587  0.00  0.00    +0.000 C 
ATOM     21  C   UNL     1      -0.748  10.392  19.621  0.00  0.00    +0.000 C 
ATOM     22  C   UNL     1      -0.287  10.144  21.051  0.00  0.00    +0.000 C 
ATOM     23  C   UNL     1       1.230  10.049  21.150  0.00  0.00    +0.000 C 
ENDBRANCH  17  18
ENDBRANCH  14  17
ENDBRANCH   8  11
ENDBRANCH   4   7
BRANCH   1  25
ATOM     24  O   UNL     1       8.822   8.332  18.979  0.00  0.00    +0.000 OA
ATOM     25  C   UNL     1       8.015   8.106  18.095  0.00  0.00    +0.000 C 
BRANCH  25  26
ATOM     26  O   UNL     1       7.641   9.015  17.173  0.00  0.00    +0.000 OA
ATOM     27  H   UNL     1       6.695   8.994  16.938  0.00  0.00    +0.000 HD
ENDBRANCH  25  26
ENDBRANCH   1  25
BRANCH   5  28
ATOM     28  C   UNL     1       5.033   5.205  15.357  0.00  0.00    +0.000 C 
BRANCH  28  29
ATOM     29  C   UNL     1       5.813   4.688  14.182  0.00  0.00    +0.000 A 
ATOM     30  C   UNL     1       5.257   3.712  13.344  0.00  0.00    +0.000 A 
ATOM     31  C   UNL     1       5.951   3.267  12.218  0.00  0.00    +0.000 A 
ATOM     32  C   UNL     1       7.210   3.793  11.933  0.00  0.00    +0.000 A 
ATOM     33  C   UNL     1       7.774   4.758  12.768  0.00  0.00    +0.000 A 
ATOM     34  C   UNL     1       7.082   5.201  13.894  0.00  0.00    +0.000 A 
ENDBRANCH  28  29
ENDBRANCH   5  28
TORSDOF 8
ENDMDL
