MODEL 1
REMARK VINA RESULT:      -8.1      0.000      0.000
REMARK  Name = 
REMARK  10 active torsions:
REMARK  status: ('A' for Active; 'I' for Inactive)
REMARK    1  A    between atoms: C_1  and  O_2
REMARK    2  A    between atoms: O_2  and  C_3
REMARK    3  A    between atoms: N_5  and  C_6
REMARK    4  A    between atoms: C_6  and  C_7
REMARK    5  A    between atoms: C_11  and  S_12
REMARK    6  A    between atoms: S_12  and  N_15
REMARK    7  A    between atoms: C_21  and  O_22
REMARK    8  A    between atoms: O_22  and  C_23
REMARK    9  A    between atoms: C_25  and  O_26
REMARK   10  A    between atoms: O_26  and  C_27
REMARK                            x       y       z     vdW  Elec       q    Type
REMARK                         _______ _______ _______ _____ _____    ______ ____
ROOT
ATOM      1  N   UNL     1       3.249   5.087  19.627  0.00  0.00    +0.000 N 
ATOM      2  C   UNL     1       2.750   6.378  19.497  0.00  0.00    +0.000 C 
ATOM      3  O   UNL     1       3.012   7.051  18.516  0.00  0.00    +0.000 OA
ATOM      4  N   UNL     1       2.037   6.793  20.581  0.00  0.00    +0.000 N 
ATOM      5  C   UNL     1       1.478   8.059  20.657  0.00  0.00    +0.000 A 
ATOM      6  N   UNL     1       1.364   8.790  19.554  0.00  0.00    +0.000 NA
ATOM      7  C   UNL     1       0.862  10.023  19.663  0.00  0.00    +0.000 A 
ATOM      8  C   UNL     1       0.457  10.556  20.852  0.00  0.00    +0.000 A 
ATOM      9  C   UNL     1       0.602   9.718  21.934  0.00  0.00    +0.000 A 
ATOM     10  N   UNL     1       1.091   8.462  21.867  0.00  0.00    +0.000 NA
ATOM     11  H   UNL     1       2.824   4.418  20.255  0.00  0.00    +0.000 HD
ATOM     12  H   UNL     1       2.036   6.270  21.437  0.00  0.00    +0.000 HD
ENDROOT
BRANCH   1  13
ATOM     13  S   UNL     1       4.181   4.370  18.438  0.00  0.00    +0.000 S 
ATOM     14  O   UNL     1       3.413   4.307  17.212  0.00  0.00    +0.000 OA
ATOM     15  O   UNL     1       4.689   3.154  19.036  0.00  0.00    +0.000 OA
BRANCH  13  20
ATOM     16  C   UNL     1       6.078   6.105  17.044  0.00  0.00    +0.000 A 
ATOM     17  C   UNL     1       7.372   6.688  17.287  0.00  0.00    +0.000 A 
ATOM     18  C   UNL     1       7.844   6.431  18.552  0.00  0.00    +0.000 A 
ATOM     19  S   UNL     1       6.719   5.548  19.476  0.00  0.00    +0.000 S 
ATOM     20  C   UNL     1       5.634   5.389  18.153  0.00  0.00    +0.000 A 
BRANCH  16  21
ATOM     21  C   UNL     1       5.334   6.285  15.760  0.00  0.00    +0.000 C 
BRANCH  21  24
ATOM     22  C   UNL     1       6.418   4.756  14.226  0.00  0.00    +0.000 C 
ATOM     23  O   UNL     1       7.366   5.497  14.012  0.00  0.00    +0.000 OA
ATOM     24  N   UNL     1       5.348   5.059  15.012  0.00  0.00    +0.000 N 
ATOM     25  H   UNL     1       4.700   4.309  15.210  0.00  0.00    +0.000 HD
BRANCH  22  27
ATOM     26  C   UNL     1       6.284   3.433  12.309  0.00  0.00    +0.000 C 
ATOM     27  O   UNL     1       6.282   3.498  13.738  0.00  0.00    +0.000 OA
ENDBRANCH  22  27
ENDBRANCH  21  24
ENDBRANCH  16  21
ENDBRANCH  13  20
ENDBRANCH   1  13
BRANCH   7  28
ATOM     28  O   UNL     1       0.757  10.796  18.526  0.00  0.00    +0.000 OA
ATOM     29  C   UNL     1      -0.393  11.651  18.556  0.00  0.00    +0.000 C 
ENDBRANCH   7  28
BRANCH   9  30
ATOM     30  O   UNL     1       0.223  10.233  23.160  0.00  0.00    +0.000 OA
ATOM     31  C   UNL     1      -1.053  10.867  23.126  0.00  0.00    +0.000 C 
ENDBRANCH   9  30
TORSDOF 7
ENDMDL
MODEL 2
REMARK VINA RESULT:      -7.6      2.149      3.178
REMARK  Name = 
REMARK  10 active torsions:
REMARK  status: ('A' for Active; 'I' for Inactive)
REMARK    1  A    between atoms: C_1  and  O_2
REMARK    2  A    between atoms: O_2  and  C_3
REMARK    3  A    between atoms: N_5  and  C_6
REMARK    4  A    between atoms: C_6  and  C_7
REMARK    5  A    between atoms: C_11  and  S_12
REMARK    6  A    between atoms: S_12  and  N_15
REMARK    7  A    between atoms: C_21  and  O_22
REMARK    8  A    between atoms: O_22  and  C_23
REMARK    9  A    between atoms: C_25  and  O_26
REMARK   10  A    between atoms: O_26  and  C_27
REMARK                            x       y       z     vdW  Elec       q    Type
REMARK                         _______ _______ _______ _____ _____    ______ ____
ROOT
ATOM      1  N   UNL     1       2.853   6.337  20.280  0.00  0.00    +0.000 N 
ATOM      2  C   UNL     1       2.120   7.492  20.030  0.00  0.00    +0.000 C 
ATOM      3  O   UNL     1       2.227   8.081  18.969  0.00  0.00    +0.000 OA
ATOM      4  N   UNL     1       1.371   7.896  21.094  0.00  0.00    +0.000 N 
ATOM      5  C   UNL     1       0.588   9.039  21.054  0.00  0.00    +0.000 A 
ATOM      6  N   UNL     1       0.312   9.602  19.883  0.00  0.00    +0.000 NA
ATOM      7  C   UNL     1      -0.407  10.727  19.877  0.00  0.00    +0.000 A 
ATOM      8  C   UNL     1      -0.873  11.315  21.017  0.00  0.00    +0.000 A 
ATOM      9  C   UNL     1      -0.548  10.651  22.177  0.00  0.00    +0.000 A 
ATOM     10  N   UNL     1       0.164   9.506  22.228  0.00  0.00    +0.000 NA
ATOM     11  H   UNL     1       2.576   5.681  20.998  0.00  0.00    +0.000 HD
ATOM     12  H   UNL     1       1.488   7.487  22.002  0.00  0.00    +0.000 HD
ENDROOT
BRANCH   1  13
ATOM     13  S   UNL     1       3.872   5.666  19.135  0.00  0.00    +0.000 S 
ATOM     14  O   UNL     1       5.182   5.482  19.721  0.00  0.00    +0.000 OA
ATOM     15  O   UNL     1       3.716   6.494  17.958  0.00  0.00    +0.000 OA
BRANCH  13  20
ATOM     16  C   UNL     1       3.508   3.206  17.596  0.00  0.00    +0.000 A 
ATOM     17  C   UNL     1       2.635   2.061  17.602  0.00  0.00    +0.000 A 
ATOM     18  C   UNL     1       1.761   2.061  18.662  0.00  0.00    +0.000 A 
ATOM     19  S   UNL     1       2.017   3.394  19.689  0.00  0.00    +0.000 S 
ATOM     20  C   UNL     1       3.224   4.058  18.661  0.00  0.00    +0.000 A 
BRANCH  16  21
ATOM     21  C   UNL     1       4.579   3.407  16.573  0.00  0.00    +0.000 C 
BRANCH  21  24
ATOM     22  C   UNL     1       6.750   4.469  16.410  0.00  0.00    +0.000 C 
ATOM     23  O   UNL     1       6.817   4.353  15.195  0.00  0.00    +0.000 OA
ATOM     24  N   UNL     1       5.736   3.995  17.187  0.00  0.00    +0.000 N 
ATOM     25  H   UNL     1       5.739   4.273  18.158  0.00  0.00    +0.000 HD
BRANCH  22  27
ATOM     26  C   UNL     1       7.398   6.503  17.348  0.00  0.00    +0.000 C 
ATOM     27  O   UNL     1       7.659   5.107  17.187  0.00  0.00    +0.000 OA
ENDBRANCH  22  27
ENDBRANCH  21  24
ENDBRANCH  16  21
ENDBRANCH  13  20
ENDBRANCH   1  13
BRANCH   7  28
ATOM     28  O   UNL     1      -0.683  11.328  18.667  0.00  0.00    +0.000 OA
ATOM     29  C   UNL     1      -1.965  11.969  18.660  0.00  0.00    +0.000 C 
ENDBRANCH   7  28
BRANCH   9  30
ATOM     30  O   UNL     1      -0.984  11.230  23.355  0.00  0.00    +0.000 OA
ATOM     31  C   UNL     1      -2.096  12.101  23.168  0.00  0.00    +0.000 C 
ENDBRANCH   9  30
TORSDOF 7
ENDMDL
MODEL 3
REMARK VINA RESULT:      -7.2      2.918      4.588
REMARK  Name = 
REMARK  10 active torsions:
REMARK  status: ('A' for Active; 'I' for Inactive)
REMARK    1  A    between atoms: C_1  and  O_2
REMARK    2  A    between atoms: O_2  and  C_3
REMARK    3  A    between atoms: N_5  and  C_6
REMARK    4  A    between atoms: C_6  and  C_7
REMARK    5  A    between atoms: C_11  and  S_12
REMARK    6  A    between atoms: S_12  and  N_15
REMARK    7  A    between atoms: C_21  and  O_22
REMARK    8  A    between atoms: O_22  and  C_23
REMARK    9  A    between atoms: C_25  and  O_26
REMARK   10  A    between atoms: O_26  and  C_27
REMARK                            x       y       z     vdW  Elec       q    Type
REMARK                         _______ _______ _______ _____ _____    ______ ____
ROOT
ATOM      1  N   UNL     1       2.556   7.559  18.216  0.00  0.00    +0.000 N 
ATOM      2  C   UNL     1       1.883   8.371  19.122  0.00  0.00    +0.000 C 
ATOM      3  O   UNL     1       1.488   7.923  20.184  0.00  0.00    +0.000 OA
ATOM      4  N   UNL     1       1.670   9.634  18.661  0.00  0.00    +0.000 N 
ATOM      5  C   UNL     1       0.994  10.588  19.406  0.00  0.00    +0.000 A 
ATOM      6  N   UNL     1       0.803  10.388  20.704  0.00  0.00    +0.000 NA
ATOM      7  C   UNL     1       0.111  11.302  21.389  0.00  0.00    +0.000 A 
ATOM      8  C   UNL     1      -0.400  12.430  20.813  0.00  0.00    +0.000 A 
ATOM      9  C   UNL     1      -0.138  12.554  19.468  0.00  0.00    +0.000 A 
ATOM     10  N   UNL     1       0.568  11.663  18.742  0.00  0.00    +0.000 NA
ATOM     11  H   UNL     1       3.141   7.952  17.489  0.00  0.00    +0.000 HD
ATOM     12  H   UNL     1       1.835   9.876  17.701  0.00  0.00    +0.000 HD
ENDROOT
BRANCH   1  13
ATOM     13  S   UNL     1       2.906   5.957  18.545  0.00  0.00    +0.000 S 
ATOM     14  O   UNL     1       1.696   5.174  18.411  0.00  0.00    +0.000 OA
ATOM     15  O   UNL     1       3.618   5.976  19.806  0.00  0.00    +0.000 OA
BRANCH  13  20
ATOM     16  C   UNL     1       4.567   4.097  17.018  0.00  0.00    +0.000 A 
ATOM     17  C   UNL     1       5.621   4.162  16.039  0.00  0.00    +0.000 A 
ATOM     18  C   UNL     1       5.896   5.446  15.635  0.00  0.00    +0.000 A 
ATOM     19  S   UNL     1       4.859   6.575  16.375  0.00  0.00    +0.000 S 
ATOM     20  C   UNL     1       4.105   5.371  17.343  0.00  0.00    +0.000 A 
BRANCH  16  21
ATOM     21  C   UNL     1       4.053   2.809  17.576  0.00  0.00    +0.000 C 
BRANCH  21  24
ATOM     22  C   UNL     1       2.831   2.378  19.622  0.00  0.00    +0.000 C 
ATOM     23  O   UNL     1       1.872   1.879  19.052  0.00  0.00    +0.000 OA
ATOM     24  N   UNL     1       3.919   2.913  19.002  0.00  0.00    +0.000 N 
ATOM     25  H   UNL     1       4.698   3.172  19.591  0.00  0.00    +0.000 HD
BRANCH  22  27
ATOM     26  C   UNL     1       1.779   2.779  21.665  0.00  0.00    +0.000 C 
ATOM     27  O   UNL     1       2.986   2.462  20.966  0.00  0.00    +0.000 OA
ENDBRANCH  22  27
ENDBRANCH  21  24
ENDBRANCH  16  21
ENDBRANCH  13  20
ENDBRANCH   1  13
BRANCH   7  28
ATOM     28  O   UNL     1      -0.109  11.094  22.734  0.00  0.00    +0.000 OA
ATOM     29  C   UNL     1      -0.234   9.702  23.053  0.00  0.00    +0.000 C 
ENDBRANCH   7  28
BRANCH   9  30
ATOM     30  O   UNL     1      -0.659  13.673  18.846  0.00  0.00    +0.000 OA
ATOM     31  C   UNL     1       0.004  14.877  19.221  0.00  0.00    +0.000 C 
ENDBRANCH   9  30
TORSDOF 7
ENDMDL
MODEL 4
REMARK VINA RESULT:      -7.2      5.104      7.193
REMARK  Name = 
REMARK  10 active torsions:
REMARK  status: ('A' for Active; 'I' for Inactive)
REMARK    1  A    between atoms: C_1  and  O_2
REMARK    2  A    between atoms: O_2  and  C_3
REMARK    3  A    between atoms: N_5  and  C_6
REMARK    4  A    between atoms: C_6  and  C_7
REMARK    5  A    between atoms: C_11  and  S_12
REMARK    6  A    between atoms: S_12  and  N_15
REMARK    7  A    between atoms: C_21  and  O_22
REMARK    8  A    between atoms: O_22  and  C_23
REMARK    9  A    between atoms: C_25  and  O_26
REMARK   10  A    between atoms: O_26  and  C_27
REMARK                            x       y       z     vdW  Elec       q    Type
REMARK                         _______ _______ _______ _____ _____    ______ ____
ROOT
ATOM      1  N   UNL     1       8.013   6.716  18.564  0.00  0.00    +0.000 N 
ATOM      2  C   UNL     1       8.137   8.059  18.228  0.00  0.00    +0.000 C 
ATOM      3  O   UNL     1       7.661   8.489  17.192  0.00  0.00    +0.000 OA
ATOM      4  N   UNL     1       8.882   8.772  19.118  0.00  0.00    +0.000 N 
ATOM      5  C   UNL     1       9.143  10.122  18.949  0.00  0.00    +0.000 A 
ATOM      6  N   UNL     1       8.425  10.823  18.079  0.00  0.00    +0.000 NA
ATOM      7  C   UNL     1       8.727  12.112  17.903  0.00  0.00    +0.000 A 
ATOM      8  C   UNL     1       9.732  12.737  18.582  0.00  0.00    +0.000 A 
ATOM      9  C   UNL     1      10.408  11.933  19.470  0.00  0.00    +0.000 A 
ATOM     10  N   UNL     1      10.128  10.631  19.688  0.00  0.00    +0.000 NA
ATOM     11  H   UNL     1       8.126   6.398  19.518  0.00  0.00    +0.000 HD
ATOM     12  H   UNL     1       9.417   8.317  19.835  0.00  0.00    +0.000 HD
ENDROOT
BRANCH   1  13
ATOM     13  S   UNL     1       7.170   5.634  17.607  0.00  0.00    +0.000 S 
ATOM     14  O   UNL     1       7.512   4.286  18.007  0.00  0.00    +0.000 OA
ATOM     15  O   UNL     1       7.408   6.067  16.246  0.00  0.00    +0.000 OA
BRANCH  13  20
ATOM     16  C   UNL     1       4.447   5.142  18.555  0.00  0.00    +0.000 A 
ATOM     17  C   UNL     1       3.138   5.716  18.388  0.00  0.00    +0.000 A 
ATOM     18  C   UNL     1       3.150   6.864  17.632  0.00  0.00    +0.000 A 
ATOM     19  S   UNL     1       4.730   7.296  17.169  0.00  0.00    +0.000 S 
ATOM     20  C   UNL     1       5.410   5.882  17.871  0.00  0.00    +0.000 A 
BRANCH  16  21
ATOM     21  C   UNL     1       4.701   3.920  19.377  0.00  0.00    +0.000 C 
BRANCH  21  24
ATOM     22  C   UNL     1       3.015   2.249  18.893  0.00  0.00    +0.000 C 
ATOM     23  O   UNL     1       3.548   1.879  17.857  0.00  0.00    +0.000 OA
ATOM     24  N   UNL     1       3.457   3.269  19.680  0.00  0.00    +0.000 N 
ATOM     25  H   UNL     1       3.001   3.385  20.574  0.00  0.00    +0.000 HD
BRANCH  22  27
ATOM     26  C   UNL     1       0.684   2.167  18.882  0.00  0.00    +0.000 C 
ATOM     27  O   UNL     1       1.910   1.693  19.446  0.00  0.00    +0.000 OA
ENDBRANCH  22  27
ENDBRANCH  21  24
ENDBRANCH  16  21
ENDBRANCH  13  20
ENDBRANCH   1  13
BRANCH   7  28
ATOM     28  O   UNL     1       7.998  12.842  16.988  0.00  0.00    +0.000 OA
ATOM     29  C   UNL     1       7.270  13.912  17.604  0.00  0.00    +0.000 C 
ENDBRANCH   7  28
BRANCH   9  30
ATOM     30  O   UNL     1      11.449  12.526  20.161  0.00  0.00    +0.000 OA
ATOM     31  C   UNL     1      11.802  13.806  19.642  0.00  0.00    +0.000 C 
ENDBRANCH   9  30
TORSDOF 7
ENDMDL
MODEL 5
REMARK VINA RESULT:      -7.1      3.358      9.215
REMARK  Name = 
REMARK  10 active torsions:
REMARK  status: ('A' for Active; 'I' for Inactive)
REMARK    1  A    between atoms: C_1  and  O_2
REMARK    2  A    between atoms: O_2  and  C_3
REMARK    3  A    between atoms: N_5  and  C_6
REMARK    4  A    between atoms: C_6  and  C_7
REMARK    5  A    between atoms: C_11  and  S_12
REMARK    6  A    between atoms: S_12  and  N_15
REMARK    7  A    between atoms: C_21  and  O_22
REMARK    8  A    between atoms: O_22  and  C_23
REMARK    9  A    between atoms: C_25  and  O_26
REMARK   10  A    between atoms: O_26  and  C_27
REMARK                            x       y       z     vdW  Elec       q    Type
REMARK                         _______ _______ _______ _____ _____    ______ ____
ROOT
ATOM      1  N   UNL     1       1.231   8.898  19.995  0.00  0.00    +0.000 N 
ATOM      2  C   UNL     1       1.995   8.114  19.138  0.00  0.00    +0.000 C 
ATOM      3  O   UNL     1       2.105   8.403  17.960  0.00  0.00    +0.000 OA
ATOM      4  N   UNL     1       2.510   7.004  19.738  0.00  0.00    +0.000 N 
ATOM      5  C   UNL     1       3.281   6.082  19.047  0.00  0.00    +0.000 A 
ATOM      6  N   UNL     1       3.788   6.410  17.864  0.00  0.00    +0.000 NA
ATOM      7  C   UNL     1       4.489   5.487  17.200  0.00  0.00    +0.000 A 
ATOM      8  C   UNL     1       4.711   4.231  17.688  0.00  0.00    +0.000 A 
ATOM      9  C   UNL     1       4.158   3.993  18.925  0.00  0.00    +0.000 A 
ATOM     10  N   UNL     1       3.455   4.899  19.635  0.00  0.00    +0.000 NA
ATOM     11  H   UNL     1       1.357   8.862  20.998  0.00  0.00    +0.000 HD
ATOM     12  H   UNL     1       2.211   6.717  20.651  0.00  0.00    +0.000 HD
ENDROOT
BRANCH   1  13
ATOM     13  S   UNL     1       0.470  10.295  19.479  0.00  0.00    +0.000 S 
ATOM     14  O   UNL     1      -0.405   9.974  18.371  0.00  0.00    +0.000 OA
ATOM     15  O   UNL     1       1.532  11.263  19.304  0.00  0.00    +0.000 OA
BRANCH  13  20
ATOM     16  C   UNL     1      -1.412  12.011  20.917  0.00  0.00    +0.000 A 
ATOM     17  C   UNL     1      -1.891  12.179  22.264  0.00  0.00    +0.000 A 
ATOM     18  C   UNL     1      -1.394  11.234  23.129  0.00  0.00    +0.000 A 
ATOM     19  S   UNL     1      -0.404  10.105  22.327  0.00  0.00    +0.000 S 
ATOM     20  C   UNL     1      -0.527  10.939  20.829  0.00  0.00    +0.000 A 
BRANCH  16  21
ATOM     21  C   UNL     1      -1.848  12.884  19.785  0.00  0.00    +0.000 C 
BRANCH  21  24
ATOM     22  C   UNL     1      -3.949  12.011  18.953  0.00  0.00    +0.000 C 
ATOM     23  O   UNL     1      -4.606  12.454  19.883  0.00  0.00    +0.000 OA
ATOM     24  N   UNL     1      -2.595  12.112  18.832  0.00  0.00    +0.000 N 
ATOM     25  H   UNL     1      -2.193  11.820  17.953  0.00  0.00    +0.000 HD
BRANCH  22  27
ATOM     26  C   UNL     1      -5.500  12.084  17.213  0.00  0.00    +0.000 C 
ATOM     27  O   UNL     1      -4.455  11.366  17.873  0.00  0.00    +0.000 OA
ENDBRANCH  22  27
ENDBRANCH  21  24
ENDBRANCH  16  21
ENDBRANCH  13  20
ENDBRANCH   1  13
BRANCH   7  28
ATOM     28  O   UNL     1       5.004   5.812  15.963  0.00  0.00    +0.000 OA
ATOM     29  C   UNL     1       5.655   4.699  15.338  0.00  0.00    +0.000 C 
ENDBRANCH   7  28
BRANCH   9  30
ATOM     30  O   UNL     1       4.343   2.723  19.441  0.00  0.00    +0.000 OA
ATOM     31  C   UNL     1       3.623   1.722  18.727  0.00  0.00    +0.000 C 
ENDBRANCH   9  30
TORSDOF 7
ENDMDL
MODEL 6
REMARK VINA RESULT:      -7.1      3.441      8.585
REMARK  Name = 
REMARK  10 active torsions:
REMARK  status: ('A' for Active; 'I' for Inactive)
REMARK    1  A    between atoms: C_1  and  O_2
REMARK    2  A    between atoms: O_2  and  C_3
REMARK    3  A    between atoms: N_5  and  C_6
REMARK    4  A    between atoms: C_6  and  C_7
REMARK    5  A    between atoms: C_11  and  S_12
REMARK    6  A    between atoms: S_12  and  N_15
REMARK    7  A    between atoms: C_21  and  O_22
REMARK    8  A    between atoms: O_22  and  C_23
REMARK    9  A    between atoms: C_25  and  O_26
REMARK   10  A    between atoms: O_26  and  C_27
REMARK                            x       y       z     vdW  Elec       q    Type
REMARK                         _______ _______ _______ _____ _____    ______ ____
ROOT
ATOM      1  N   UNL     1       1.530   9.454  19.096  0.00  0.00    +0.000 N 
ATOM      2  C   UNL     1       1.977   8.161  19.344  0.00  0.00    +0.000 C 
ATOM      3  O   UNL     1       1.748   7.617  20.409  0.00  0.00    +0.000 OA
ATOM      4  N   UNL     1       2.726   7.645  18.330  0.00  0.00    +0.000 N 
ATOM      5  C   UNL     1       3.284   6.378  18.395  0.00  0.00    +0.000 A 
ATOM      6  N   UNL     1       2.855   5.521  19.314  0.00  0.00    +0.000 NA
ATOM      7  C   UNL     1       3.441   4.323  19.384  0.00  0.00    +0.000 A 
ATOM      8  C   UNL     1       4.452   3.943  18.550  0.00  0.00    +0.000 A 
ATOM      9  C   UNL     1       4.817   4.893  17.624  0.00  0.00    +0.000 A 
ATOM     10  N   UNL     1       4.244   6.109  17.511  0.00  0.00    +0.000 NA
ATOM     11  H   UNL     1       1.442   9.810  18.153  0.00  0.00    +0.000 HD
ATOM     12  H   UNL     1       3.050   8.220  17.574  0.00  0.00    +0.000 HD
ENDROOT
BRANCH   1  13
ATOM     13  S   UNL     1       0.618  10.308  20.207  0.00  0.00    +0.000 S 
ATOM     14  O   UNL     1       1.334  10.360  21.464  0.00  0.00    +0.000 OA
ATOM     15  O   UNL     1      -0.701   9.715  20.151  0.00  0.00    +0.000 OA
BRANCH  13  20
ATOM     16  C   UNL     1      -0.624  12.601  18.881  0.00  0.00    +0.000 A 
ATOM     17  C   UNL     1      -0.279  13.958  18.549  0.00  0.00    +0.000 A 
ATOM     18  C   UNL     1       0.946  14.335  19.044  0.00  0.00    +0.000 A 
ATOM     19  S   UNL     1       1.664  13.093  19.960  0.00  0.00    +0.000 S 
ATOM     20  C   UNL     1       0.398  11.986  19.603  0.00  0.00    +0.000 A 
BRANCH  16  21
ATOM     21  C   UNL     1      -1.926  11.975  18.498  0.00  0.00    +0.000 C 
BRANCH  21  24
ATOM     22  C   UNL     1      -2.927  11.039  16.501  0.00  0.00    +0.000 C 
ATOM     23  O   UNL     1      -3.628  10.247  17.112  0.00  0.00    +0.000 OA
ATOM     24  N   UNL     1      -2.022  11.885  17.068  0.00  0.00    +0.000 N 
ATOM     25  H   UNL     1      -1.604  12.577  16.463  0.00  0.00    +0.000 HD
BRANCH  22  27
ATOM     26  C   UNL     1      -3.437  10.100  14.428  0.00  0.00    +0.000 C 
ATOM     27  O   UNL     1      -2.945  11.226  15.158  0.00  0.00    +0.000 OA
ENDBRANCH  22  27
ENDBRANCH  21  24
ENDBRANCH  16  21
ENDBRANCH  13  20
ENDBRANCH   1  13
BRANCH   7  28
ATOM     28  O   UNL     1       3.013   3.434  20.347  0.00  0.00    +0.000 OA
ATOM     29  C   UNL     1       2.088   4.032  21.264  0.00  0.00    +0.000 C 
ENDBRANCH   7  28
BRANCH   9  30
ATOM     30  O   UNL     1       5.855   4.552  16.776  0.00  0.00    +0.000 OA
ATOM     31  C   UNL     1       7.136   4.683  17.385  0.00  0.00    +0.000 C 
ENDBRANCH   9  30
TORSDOF 7
ENDMDL
MODEL 7
REMARK VINA RESULT:      -7.1      2.612      3.680
REMARK  Name = 
REMARK  10 active torsions:
REMARK  status: ('A' for Active; 'I' for Inactive)
REMARK    1  A    between atoms: C_1  and  O_2
REMARK    2  A    between atoms: O_2  and  C_3
REMARK    3  A    between atoms: N_5  and  C_6
REMARK    4  A    between atoms: C_6  and  C_7
REMARK    5  A    between atoms: C_11  and  S_12
REMARK    6  A    between atoms: S_12  and  N_15
REMARK    7  A    between atoms: C_21  and  O_22
REMARK    8  A    between atoms: O_22  and  C_23
REMARK    9  A    between atoms: C_25  and  O_26
REMARK   10  A    between atoms: O_26  and  C_27
REMARK                            x       y       z     vdW  Elec       q    Type
REMARK                         _______ _______ _______ _____ _____    ______ ____
ROOT
ATOM      1  N   UNL     1       2.248   7.147  20.027  0.00  0.00    +0.000 N 
ATOM      2  C   UNL     1       1.644   8.354  19.693  0.00  0.00    +0.000 C 
ATOM      3  O   UNL     1       1.649   8.756  18.543  0.00  0.00    +0.000 OA
ATOM      4  N   UNL     1       1.146   9.024  20.769  0.00  0.00    +0.000 N 
ATOM      5  C   UNL     1       0.527  10.258  20.648  0.00  0.00    +0.000 A 
ATOM      6  N   UNL     1       0.136  10.679  19.451  0.00  0.00    +0.000 NA
ATOM      7  C   UNL     1      -0.417  11.891  19.357  0.00  0.00    +0.000 A 
ATOM      8  C   UNL     1      -0.602  12.707  20.436  0.00  0.00    +0.000 A 
ATOM      9  C   UNL     1      -0.178  12.178  21.633  0.00  0.00    +0.000 A 
ATOM     10  N   UNL     1       0.373  10.955  21.774  0.00  0.00    +0.000 NA
ATOM     11  H   UNL     1       2.011   6.656  20.879  0.00  0.00    +0.000 HD
ATOM     12  H   UNL     1       1.358   8.740  21.707  0.00  0.00    +0.000 HD
ENDROOT
BRANCH   1  13
ATOM     13  S   UNL     1       2.961   6.162  18.878  0.00  0.00    +0.000 S 
ATOM     14  O   UNL     1       4.199   6.770  18.439  0.00  0.00    +0.000 OA
ATOM     15  O   UNL     1       1.914   5.880  17.919  0.00  0.00    +0.000 OA
BRANCH  13  20
ATOM     16  C   UNL     1       4.343   3.640  19.408  0.00  0.00    +0.000 A 
ATOM     17  C   UNL     1       4.151   2.465  20.218  0.00  0.00    +0.000 A 
ATOM     18  C   UNL     1       3.053   2.556  21.038  0.00  0.00    +0.000 A 
ATOM     19  S   UNL     1       2.281   4.066  20.892  0.00  0.00    +0.000 S 
ATOM     20  C   UNL     1       3.337   4.576  19.635  0.00  0.00    +0.000 A 
BRANCH  16  21
ATOM     21  C   UNL     1       5.497   3.801  18.471  0.00  0.00    +0.000 C 
BRANCH  21  24
ATOM     22  C   UNL     1       7.347   5.328  18.134  0.00  0.00    +0.000 C 
ATOM     23  O   UNL     1       7.625   4.891  17.027  0.00  0.00    +0.000 OA
ATOM     24  N   UNL     1       6.371   4.837  18.947  0.00  0.00    +0.000 N 
ATOM     25  H   UNL     1       6.158   5.371  19.778  0.00  0.00    +0.000 HD
BRANCH  22  27
ATOM     26  C   UNL     1       7.945   7.573  17.933  0.00  0.00    +0.000 C 
ATOM     27  O   UNL     1       7.946   6.387  18.731  0.00  0.00    +0.000 OA
ENDBRANCH  22  27
ENDBRANCH  21  24
ENDBRANCH  16  21
ENDBRANCH  13  20
ENDBRANCH   1  13
BRANCH   7  28
ATOM     28  O   UNL     1      -0.809  12.344  18.115  0.00  0.00    +0.000 OA
ATOM     29  C   UNL     1      -2.031  11.735  17.677  0.00  0.00    +0.000 C 
ENDBRANCH   7  28
BRANCH   9  30
ATOM     30  O   UNL     1      -0.329  12.986  22.745  0.00  0.00    +0.000 OA
ATOM     31  C   UNL     1      -1.675  13.046  23.209  0.00  0.00    +0.000 C 
ENDBRANCH   9  30
TORSDOF 7
ENDMDL
MODEL 8
REMARK VINA RESULT:      -7.1      3.160      8.395
REMARK  Name = 
REMARK  10 active torsions:
REMARK  status: ('A' for Active; 'I' for Inactive)
REMARK    1  A    between atoms: C_1  and  O_2
REMARK    2  A    between atoms: O_2  and  C_3
REMARK    3  A    between atoms: N_5  and  C_6
REMARK    4  A    between atoms: C_6  and  C_7
REMARK    5  A    between atoms: C_11  and  S_12
REMARK    6  A    between atoms: S_12  and  N_15
REMARK    7  A    between atoms: C_21  and  O_22
REMARK    8  A    between atoms: O_22  and  C_23
REMARK    9  A    between atoms: C_25  and  O_26
REMARK   10  A    between atoms: O_26  and  C_27
REMARK                            x       y       z     vdW  Elec       q    Type
REMARK                         _______ _______ _______ _____ _____    ______ ____
ROOT
ATOM      1  N   UNL     1       1.231   8.955  20.443  0.00  0.00    +0.000 N 
ATOM      2  C   UNL     1       1.682   7.676  20.138  0.00  0.00    +0.000 C 
ATOM      3  O   UNL     1       1.512   6.754  20.915  0.00  0.00    +0.000 OA
ATOM      4  N   UNL     1       2.366   7.612  18.961  0.00  0.00    +0.000 N 
ATOM      5  C   UNL     1       2.917   6.430  18.492  0.00  0.00    +0.000 A 
ATOM      6  N   UNL     1       2.536   5.275  19.023  0.00  0.00    +0.000 NA
ATOM      7  C   UNL     1       3.116   4.155  18.583  0.00  0.00    +0.000 A 
ATOM      8  C   UNL     1       4.074   4.150  17.610  0.00  0.00    +0.000 A 
ATOM      9  C   UNL     1       4.391   5.392  17.113  0.00  0.00    +0.000 A 
ATOM     10  N   UNL     1       3.821   6.546  17.519  0.00  0.00    +0.000 NA
ATOM     11  H   UNL     1       1.090   9.652  19.723  0.00  0.00    +0.000 HD
ATOM     12  H   UNL     1       2.649   8.442  18.475  0.00  0.00    +0.000 HD
ENDROOT
BRANCH   1  13
ATOM     13  S   UNL     1       0.392   9.290  21.851  0.00  0.00    +0.000 S 
ATOM     14  O   UNL     1       1.332   9.386  22.947  0.00  0.00    +0.000 OA
ATOM     15  O   UNL     1      -0.675   8.312  21.898  0.00  0.00    +0.000 OA
BRANCH  13  20
ATOM     16  C   UNL     1      -0.472  11.801  20.626  0.00  0.00    +0.000 A 
ATOM     17  C   UNL     1      -1.209  12.978  21.006  0.00  0.00    +0.000 A 
ATOM     18  C   UNL     1      -1.727  12.896  22.276  0.00  0.00    +0.000 A 
ATOM     19  S   UNL     1      -1.389  11.392  22.999  0.00  0.00    +0.000 S 
ATOM     20  C   UNL     1      -0.437  10.873  21.665  0.00  0.00    +0.000 A 
BRANCH  16  21
ATOM     21  C   UNL     1       0.145  11.629  19.275  0.00  0.00    +0.000 C 
BRANCH  21  24
ATOM     22  C   UNL     1      -0.724  10.088  17.621  0.00  0.00    +0.000 C 
ATOM     23  O   UNL     1       0.255   9.359  17.651  0.00  0.00    +0.000 OA
ATOM     24  N   UNL     1      -0.861  11.247  18.325  0.00  0.00    +0.000 N 
ATOM     25  H   UNL     1      -1.772  11.684  18.310  0.00  0.00    +0.000 HD
BRANCH  22  27
ATOM     26  C   UNL     1      -2.572  11.046  16.569  0.00  0.00    +0.000 C 
ATOM     27  O   UNL     1      -1.850   9.858  16.901  0.00  0.00    +0.000 OA
ENDBRANCH  22  27
ENDBRANCH  21  24
ENDBRANCH  16  21
ENDBRANCH  13  20
ENDBRANCH   1  13
BRANCH   7  28
ATOM     28  O   UNL     1       2.740   2.952  19.142  0.00  0.00    +0.000 OA
ATOM     29  C   UNL     1       1.377   2.621  18.847  0.00  0.00    +0.000 C 
ENDBRANCH   7  28
BRANCH   9  30
ATOM     30  O   UNL     1       5.374   5.429  16.141  0.00  0.00    +0.000 OA
ATOM     31  C   UNL     1       5.733   4.134  15.665  0.00  0.00    +0.000 C 
ENDBRANCH   9  30
TORSDOF 7
ENDMDL
MODEL 9
REMARK VINA RESULT:      -7.0      3.396      8.869
REMARK  Name = 
REMARK  10 active torsions:
REMARK  status: ('A' for Active; 'I' for Inactive)
REMARK    1  A    between atoms: C_1  and  O_2
REMARK    2  A    between atoms: O_2  and  C_3
REMARK    3  A    between atoms: N_5  and  C_6
REMARK    4  A    between atoms: C_6  and  C_7
REMARK    5  A    between atoms: C_11  and  S_12
REMARK    6  A    between atoms: S_12  and  N_15
REMARK    7  A    between atoms: C_21  and  O_22
REMARK    8  A    between atoms: O_22  and  C_23
REMARK    9  A    between atoms: C_25  and  O_26
REMARK   10  A    between atoms: O_26  and  C_27
REMARK                            x       y       z     vdW  Elec       q    Type
REMARK                         _______ _______ _______ _____ _____    ______ ____
ROOT
ATOM      1  N   UNL     1       1.259   9.076  19.726  0.00  0.00    +0.000 N 
ATOM      2  C   UNL     1       1.968   7.895  19.537  0.00  0.00    +0.000 C 
ATOM      3  O   UNL     1       2.034   7.060  20.421  0.00  0.00    +0.000 OA
ATOM      4  N   UNL     1       2.605   7.834  18.335  0.00  0.00    +0.000 N 
ATOM      5  C   UNL     1       3.384   6.749  17.966  0.00  0.00    +0.000 A 
ATOM      6  N   UNL     1       3.286   5.613  18.646  0.00  0.00    +0.000 NA
ATOM      7  C   UNL     1       4.081   4.598  18.297  0.00  0.00    +0.000 A 
ATOM      8  C   UNL     1       4.980   4.677  17.272  0.00  0.00    +0.000 A 
ATOM      9  C   UNL     1       4.997   5.889  16.621  0.00  0.00    +0.000 A 
ATOM     10  N   UNL     1       4.203   6.934  16.931  0.00  0.00    +0.000 NA
ATOM     11  H   UNL     1       0.942   9.632  18.943  0.00  0.00    +0.000 HD
ATOM     12  H   UNL     1       2.681   8.640  17.742  0.00  0.00    +0.000 HD
ENDROOT
BRANCH   1  13
ATOM     13  S   UNL     1       0.421   9.393  21.138  0.00  0.00    +0.000 S 
ATOM     14  O   UNL     1       1.369   9.676  22.195  0.00  0.00    +0.000 OA
ATOM     15  O   UNL     1      -0.513   8.297  21.279  0.00  0.00    +0.000 OA
BRANCH  13  20
ATOM     16  C   UNL     1      -1.349  11.295  19.795  0.00  0.00    +0.000 A 
ATOM     17  C   UNL     1      -1.924  12.588  20.057  0.00  0.00    +0.000 A 
ATOM     18  C   UNL     1      -1.636  13.056  21.316  0.00  0.00    +0.000 A 
ATOM     19  S   UNL     1      -0.729  11.929  22.214  0.00  0.00    +0.000 S 
ATOM     20  C   UNL     1      -0.605  10.847  20.884  0.00  0.00    +0.000 A 
BRANCH  16  21
ATOM     21  C   UNL     1      -1.562  10.555  18.514  0.00  0.00    +0.000 C 
BRANCH  21  24
ATOM     22  C   UNL     1      -2.983  10.666  16.556  0.00  0.00    +0.000 C 
ATOM     23  O   UNL     1      -2.520   9.656  16.049  0.00  0.00    +0.000 OA
ATOM     24  N   UNL     1      -2.554  11.225  17.722  0.00  0.00    +0.000 N 
ATOM     25  H   UNL     1      -3.109  11.983  18.095  0.00  0.00    +0.000 HD
BRANCH  22  27
ATOM     26  C   UNL     1      -4.970  11.785  17.046  0.00  0.00    +0.000 C 
ATOM     27  O   UNL     1      -4.016  11.390  16.057  0.00  0.00    +0.000 OA
ENDBRANCH  22  27
ENDBRANCH  21  24
ENDBRANCH  16  21
ENDBRANCH  13  20
ENDBRANCH   1  13
BRANCH   7  28
ATOM     28  O   UNL     1       3.999   3.420  19.009  0.00  0.00    +0.000 OA
ATOM     29  C   UNL     1       3.073   3.510  20.100  0.00  0.00    +0.000 C 
ENDBRANCH   7  28
BRANCH   9  30
ATOM     30  O   UNL     1       5.911   6.014  15.591  0.00  0.00    +0.000 OA
ATOM     31  C   UNL     1       6.017   4.837  14.795  0.00  0.00    +0.000 C 
ENDBRANCH   9  30
TORSDOF 7
ENDMDL
