MODEL 1
REMARK VINA RESULT:      -6.9      0.000      0.000
REMARK  Name = 
REMARK  7 active torsions:
REMARK  status: ('A' for Active; 'I' for Inactive)
REMARK    1  A    between atoms: C_1  and  O_2
REMARK    2  A    between atoms: O_2  and  C_3
REMARK    3  A    between atoms: C_3  and  C_4
REMARK    4  A    between atoms: N_12  and  C_13
REMARK    5  A    between atoms: C_13  and  C_14
REMARK    6  A    between atoms: C_21  and  O_22
REMARK    7  A    between atoms: O_22  and  C_23
REMARK                            x       y       z     vdW  Elec       q    Type
REMARK                         _______ _______ _______ _____ _____    ______ ____
ROOT
ATOM      1  C   UNL     1       2.114   6.158  20.013  0.00  0.00    +0.000 C 
ATOM      2  O   UNL     1       1.667   5.782  21.104  0.00  0.00    +0.000 OA
ATOM      3  N   UNL     1       2.172   7.498  19.653  0.00  0.00    +0.000 N 
ATOM      4  C   UNL     1       2.632   8.018  18.377  0.00  0.00    +0.000 C 
ATOM      5  C   UNL     1       1.452   8.603  17.611  0.00  0.00    +0.000 C 
ATOM      6  C   UNL     1       0.624   9.514  18.475  0.00  0.00    +0.000 A 
ATOM      7  N   UNL     1      -0.244  10.333  17.830  0.00  0.00    +0.000 NA
ATOM      8  C   UNL     1      -0.969  11.176  18.603  0.00  0.00    +0.000 A 
ATOM      9  N   UNL     1      -1.825  12.062  17.935  0.00  0.00    +0.000 N 
ATOM     10  C   UNL     1      -0.842  11.212  20.021  0.00  0.00    +0.000 A 
ATOM     11  N   UNL     1      -1.588  12.033  20.845  0.00  0.00    +0.000 N 
ATOM     12  C   UNL     1      -1.013  12.434  22.115  0.00  0.00    +0.000 C 
ATOM     13  C   UNL     1      -1.992  12.083  23.220  0.00  0.00    +0.000 C 
ATOM     14  C   UNL     1      -3.350  12.760  23.003  0.00  0.00    +0.000 C 
ATOM     15  C   UNL     1      -3.894  12.389  21.624  0.00  0.00    +0.000 C 
ATOM     16  C   UNL     1      -2.883  12.615  20.500  0.00  0.00    +0.000 C 
ATOM     17  N   UNL     1       0.019  10.355  20.633  0.00  0.00    +0.000 NA
ATOM     18  C   UNL     1       0.722   9.492  19.863  0.00  0.00    +0.000 A 
ATOM     19  C   UNL     1       1.632   8.508  20.568  0.00  0.00    +0.000 C 
ATOM     20  H   UNL     1      -1.421  12.993  17.924  0.00  0.00    +0.000 HD
ENDROOT
BRANCH   1  21
ATOM     21  C   UNL     1       2.629   5.120  18.999  0.00  0.00    +0.000 C 
BRANCH  21  23
ATOM     22  C   UNL     1       4.042   3.313  19.564  0.00  0.00    +0.000 C 
ATOM     23  O   UNL     1       3.966   4.679  19.174  0.00  0.00    +0.000 OA
ENDBRANCH  21  23
ENDBRANCH   1  21
BRANCH   9  24
ATOM     24  C   UNL     1      -2.429  11.587  16.697  0.00  0.00    +0.000 C 
BRANCH  24  25
ATOM     25  C   UNL     1      -3.861  11.063  16.882  0.00  0.00    +0.000 C 
ATOM     26  F   UNL     1      -4.395  10.718  15.679  0.00  0.00    +0.000 F 
ATOM     27  F   UNL     1      -3.830   9.916  17.617  0.00  0.00    +0.000 F 
ENDBRANCH  24  25
ENDBRANCH   9  24
BRANCH  14  28
ATOM     28  O   UNL     1      -3.267  14.197  23.075  0.00  0.00    +0.000 OA
BRANCH  28  29
ATOM     29  C   UNL     1      -4.456  14.878  22.995  0.00  0.00    +0.000 A 
ATOM     30  C   UNL     1      -5.543  14.644  23.839  0.00  0.00    +0.000 A 
ATOM     31  C   UNL     1      -6.694  15.424  23.748  0.00  0.00    +0.000 A 
ATOM     32  C   UNL     1      -6.769  16.422  22.791  0.00  0.00    +0.000 A 
ATOM     33  F   UNL     1      -7.883  17.160  22.704  0.00  0.00    +0.000 F 
ATOM     34  C   UNL     1      -5.713  16.663  21.924  0.00  0.00    +0.000 A 
ATOM     35  C   UNL     1      -4.554  15.896  22.037  0.00  0.00    +0.000 A 
ATOM     36  F   UNL     1      -3.538  16.138  21.198  0.00  0.00    +0.000 F 
ENDBRANCH  28  29
ENDBRANCH  14  28
TORSDOF 6
ENDMDL
MODEL 2
REMARK VINA RESULT:      -6.8      2.108      2.612
REMARK  Name = 
REMARK  7 active torsions:
REMARK  status: ('A' for Active; 'I' for Inactive)
REMARK    1  A    between atoms: C_1  and  O_2
REMARK    2  A    between atoms: O_2  and  C_3
REMARK    3  A    between atoms: C_3  and  C_4
REMARK    4  A    between atoms: N_12  and  C_13
REMARK    5  A    between atoms: C_13  and  C_14
REMARK    6  A    between atoms: C_21  and  O_22
REMARK    7  A    between atoms: O_22  and  C_23
REMARK                            x       y       z     vdW  Elec       q    Type
REMARK                         _______ _______ _______ _____ _____    ______ ____
ROOT
ATOM      1  C   UNL     1       2.125   6.166  20.073  0.00  0.00    +0.000 C 
ATOM      2  O   UNL     1       1.694   5.872  21.195  0.00  0.00    +0.000 OA
ATOM      3  N   UNL     1       2.209   7.478  19.626  0.00  0.00    +0.000 N 
ATOM      4  C   UNL     1       2.651   7.902  18.308  0.00  0.00    +0.000 C 
ATOM      5  C   UNL     1       1.469   8.469  17.532  0.00  0.00    +0.000 C 
ATOM      6  C   UNL     1       0.686   9.455  18.353  0.00  0.00    +0.000 A 
ATOM      7  N   UNL     1      -0.176  10.255  17.676  0.00  0.00    +0.000 NA
ATOM      8  C   UNL     1      -0.861  11.165  18.409  0.00  0.00    +0.000 A 
ATOM      9  N   UNL     1      -1.710  12.029  17.704  0.00  0.00    +0.000 N 
ATOM     10  C   UNL     1      -0.699  11.288  19.818  0.00  0.00    +0.000 A 
ATOM     11  N   UNL     1      -1.404  12.181  20.604  0.00  0.00    +0.000 N 
ATOM     12  C   UNL     1      -0.789  12.647  21.832  0.00  0.00    +0.000 C 
ATOM     13  C   UNL     1      -1.750  12.394  22.979  0.00  0.00    +0.000 C 
ATOM     14  C   UNL     1      -3.095  13.092  22.749  0.00  0.00    +0.000 C 
ATOM     15  C   UNL     1      -3.681  12.648  21.409  0.00  0.00    +0.000 C 
ATOM     16  C   UNL     1      -2.692  12.774  20.250  0.00  0.00    +0.000 C 
ATOM     17  N   UNL     1       0.154  10.449  20.465  0.00  0.00    +0.000 NA
ATOM     18  C   UNL     1       0.815   9.520  19.738  0.00  0.00    +0.000 A 
ATOM     19  C   UNL     1       1.716   8.559  20.484  0.00  0.00    +0.000 C 
ATOM     20  H   UNL     1      -1.282  12.946  17.624  0.00  0.00    +0.000 HD
ENDROOT
BRANCH   1  21
ATOM     21  C   UNL     1       2.589   5.051  19.117  0.00  0.00    +0.000 C 
BRANCH  21  23
ATOM     22  C   UNL     1       1.593   3.124  18.180  0.00  0.00    +0.000 C 
ATOM     23  O   UNL     1       1.613   4.546  18.218  0.00  0.00    +0.000 OA
ENDBRANCH  21  23
ENDBRANCH   1  21
BRANCH   9  24
ATOM     24  C   UNL     1      -2.355  11.493  16.513  0.00  0.00    +0.000 C 
BRANCH  24  25
ATOM     25  C   UNL     1      -3.695  10.802  16.807  0.00  0.00    +0.000 C 
ATOM     26  F   UNL     1      -4.408  10.649  15.658  0.00  0.00    +0.000 F 
ATOM     27  F   UNL     1      -3.461   9.543  17.270  0.00  0.00    +0.000 F 
ENDBRANCH  24  25
ENDBRANCH   9  24
BRANCH  14  28
ATOM     28  O   UNL     1      -2.973  14.528  22.726  0.00  0.00    +0.000 OA
BRANCH  28  29
ATOM     29  C   UNL     1      -2.328  15.098  23.795  0.00  0.00    +0.000 A 
ATOM     30  C   UNL     1      -2.712  14.910  25.124  0.00  0.00    +0.000 A 
ATOM     31  C   UNL     1      -1.965  15.461  26.163  0.00  0.00    +0.000 A 
ATOM     32  C   UNL     1      -0.848  16.226  25.872  0.00  0.00    +0.000 A 
ATOM     33  F   UNL     1      -0.143  16.760  26.877  0.00  0.00    +0.000 F 
ATOM     34  C   UNL     1      -0.455  16.448  24.560  0.00  0.00    +0.000 A 
ATOM     35  C   UNL     1      -1.191  15.872  23.525  0.00  0.00    +0.000 A 
ATOM     36  F   UNL     1      -0.803  16.089  22.261  0.00  0.00    +0.000 F 
ENDBRANCH  28  29
ENDBRANCH  14  28
TORSDOF 6
ENDMDL
MODEL 3
REMARK VINA RESULT:      -6.8      1.160      1.421
REMARK  Name = 
REMARK  7 active torsions:
REMARK  status: ('A' for Active; 'I' for Inactive)
REMARK    1  A    between atoms: C_1  and  O_2
REMARK    2  A    between atoms: O_2  and  C_3
REMARK    3  A    between atoms: C_3  and  C_4
REMARK    4  A    between atoms: N_12  and  C_13
REMARK    5  A    between atoms: C_13  and  C_14
REMARK    6  A    between atoms: C_21  and  O_22
REMARK    7  A    between atoms: O_22  and  C_23
REMARK                            x       y       z     vdW  Elec       q    Type
REMARK                         _______ _______ _______ _____ _____    ______ ____
ROOT
ATOM      1  C   UNL     1       2.109   6.002  20.029  0.00  0.00    +0.000 C 
ATOM      2  O   UNL     1       1.698   5.708  21.159  0.00  0.00    +0.000 OA
ATOM      3  N   UNL     1       2.228   7.316  19.598  0.00  0.00    +0.000 N 
ATOM      4  C   UNL     1       2.650   7.743  18.275  0.00  0.00    +0.000 C 
ATOM      5  C   UNL     1       1.469   8.362  17.538  0.00  0.00    +0.000 C 
ATOM      6  C   UNL     1       0.743   9.364  18.393  0.00  0.00    +0.000 A 
ATOM      7  N   UNL     1      -0.108  10.202  17.750  0.00  0.00    +0.000 NA
ATOM      8  C   UNL     1      -0.740  11.125  18.512  0.00  0.00    +0.000 A 
ATOM      9  N   UNL     1      -1.576  12.028  17.842  0.00  0.00    +0.000 N 
ATOM     10  C   UNL     1      -0.538  11.223  19.918  0.00  0.00    +0.000 A 
ATOM     11  N   UNL     1      -1.190  12.128  20.734  0.00  0.00    +0.000 N 
ATOM     12  C   UNL     1      -0.526  12.555  21.951  0.00  0.00    +0.000 C 
ATOM     13  C   UNL     1      -1.466  12.320  23.120  0.00  0.00    +0.000 C 
ATOM     14  C   UNL     1      -2.791  13.068  22.935  0.00  0.00    +0.000 C 
ATOM     15  C   UNL     1      -3.427  12.664  21.605  0.00  0.00    +0.000 C 
ATOM     16  C   UNL     1      -2.464  12.771  20.423  0.00  0.00    +0.000 C 
ATOM     17  N   UNL     1       0.302  10.345  20.531  0.00  0.00    +0.000 NA
ATOM     18  C   UNL     1       0.911   9.404  19.774  0.00  0.00    +0.000 A 
ATOM     19  C   UNL     1       1.797   8.401  20.484  0.00  0.00    +0.000 C 
ATOM     20  H   UNL     1      -1.119  12.931  17.762  0.00  0.00    +0.000 HD
ENDROOT
BRANCH   1  21
ATOM     21  C   UNL     1       2.508   4.885  19.047  0.00  0.00    +0.000 C 
BRANCH  21  23
ATOM     22  C   UNL     1       1.129   2.970  18.935  0.00  0.00    +0.000 C 
ATOM     23  O   UNL     1       1.445   4.235  18.367  0.00  0.00    +0.000 OA
ENDBRANCH  21  23
ENDBRANCH   1  21
BRANCH   9  24
ATOM     24  C   UNL     1      -2.271  11.532  16.661  0.00  0.00    +0.000 C 
BRANCH  24  25
ATOM     25  C   UNL     1      -3.605  10.845  16.986  0.00  0.00    +0.000 C 
ATOM     26  F   UNL     1      -3.387   9.570  17.409  0.00  0.00    +0.000 F 
ATOM     27  F   UNL     1      -4.200  11.486  18.030  0.00  0.00    +0.000 F 
ENDBRANCH  24  25
ENDBRANCH   9  24
BRANCH  14  28
ATOM     28  O   UNL     1      -2.619  14.498  22.928  0.00  0.00    +0.000 OA
BRANCH  28  29
ATOM     29  C   UNL     1      -3.766  15.247  23.021  0.00  0.00    +0.000 A 
ATOM     30  C   UNL     1      -4.530  15.638  21.920  0.00  0.00    +0.000 A 
ATOM     31  C   UNL     1      -5.724  16.335  22.096  0.00  0.00    +0.000 A 
ATOM     32  C   UNL     1      -6.139  16.668  23.374  0.00  0.00    +0.000 A 
ATOM     33  F   UNL     1      -7.282  17.347  23.532  0.00  0.00    +0.000 F 
ATOM     34  C   UNL     1      -5.389  16.312  24.486  0.00  0.00    +0.000 A 
ATOM     35  C   UNL     1      -4.209  15.591  24.306  0.00  0.00    +0.000 A 
ATOM     36  F   UNL     1      -3.493  15.249  25.385  0.00  0.00    +0.000 F 
ENDBRANCH  28  29
ENDBRANCH  14  28
TORSDOF 6
ENDMDL
MODEL 4
REMARK VINA RESULT:      -6.7      3.632      6.216
REMARK  Name = 
REMARK  7 active torsions:
REMARK  status: ('A' for Active; 'I' for Inactive)
REMARK    1  A    between atoms: C_1  and  O_2
REMARK    2  A    between atoms: O_2  and  C_3
REMARK    3  A    between atoms: C_3  and  C_4
REMARK    4  A    between atoms: N_12  and  C_13
REMARK    5  A    between atoms: C_13  and  C_14
REMARK    6  A    between atoms: C_21  and  O_22
REMARK    7  A    between atoms: O_22  and  C_23
REMARK                            x       y       z     vdW  Elec       q    Type
REMARK                         _______ _______ _______ _____ _____    ______ ____
ROOT
ATOM      1  C   UNL     1       6.910   6.253  16.217  0.00  0.00    +0.000 C 
ATOM      2  O   UNL     1       7.370   7.371  16.481  0.00  0.00    +0.000 OA
ATOM      3  N   UNL     1       5.552   5.970  16.288  0.00  0.00    +0.000 N 
ATOM      4  C   UNL     1       4.939   4.675  16.047  0.00  0.00    +0.000 C 
ATOM      5  C   UNL     1       4.393   4.119  17.356  0.00  0.00    +0.000 C 
ATOM      6  C   UNL     1       3.583   5.144  18.101  0.00  0.00    +0.000 A 
ATOM      7  N   UNL     1       2.790   4.678  19.098  0.00  0.00    +0.000 NA
ATOM      8  C   UNL     1       2.037   5.595  19.751  0.00  0.00    +0.000 A 
ATOM      9  N   UNL     1       1.175   5.108  20.743  0.00  0.00    +0.000 N 
ATOM     10  C   UNL     1       2.065   6.979  19.424  0.00  0.00    +0.000 A 
ATOM     11  N   UNL     1       1.338   7.948  20.089  0.00  0.00    +0.000 N 
ATOM     12  C   UNL     1       0.966   9.147  19.360  0.00  0.00    +0.000 C 
ATOM     13  C   UNL     1       1.436  10.356  20.149  0.00  0.00    +0.000 C 
ATOM     14  C   UNL     1       0.838  10.372  21.560  0.00  0.00    +0.000 C 
ATOM     15  C   UNL     1       1.173   9.064  22.275  0.00  0.00    +0.000 C 
ATOM     16  C   UNL     1       0.824   7.824  21.451  0.00  0.00    +0.000 C 
ATOM     17  N   UNL     1       2.895   7.412  18.436  0.00  0.00    +0.000 NA
ATOM     18  C   UNL     1       3.670   6.501  17.804  0.00  0.00    +0.000 A 
ATOM     19  C   UNL     1       4.628   7.010  16.747  0.00  0.00    +0.000 C 
ATOM     20  H   UNL     1       0.220   5.096  20.399  0.00  0.00    +0.000 HD
ENDROOT
BRANCH   1  21
ATOM     21  C   UNL     1       7.860   5.117  15.795  0.00  0.00    +0.000 C 
BRANCH  21  23
ATOM     22  C   UNL     1       7.934   4.641  18.108  0.00  0.00    +0.000 C 
ATOM     23  O   UNL     1       8.174   4.157  16.792  0.00  0.00    +0.000 OA
ENDBRANCH  21  23
ENDBRANCH   1  21
BRANCH   9  24
ATOM     24  C   UNL     1       1.624   3.940  21.492  0.00  0.00    +0.000 C 
BRANCH  24  25
ATOM     25  C   UNL     1       1.095   2.616  20.923  0.00  0.00    +0.000 C 
ATOM     26  F   UNL     1       0.267   2.853  19.870  0.00  0.00    +0.000 F 
ATOM     27  F   UNL     1       2.136   1.892  20.423  0.00  0.00    +0.000 F 
ENDBRANCH  24  25
ENDBRANCH   9  24
BRANCH  14  28
ATOM     28  O   UNL     1      -0.595  10.518  21.549  0.00  0.00    +0.000 OA
BRANCH  28  29
ATOM     29  C   UNL     1      -1.074  11.800  21.660  0.00  0.00    +0.000 A 
ATOM     30  C   UNL     1      -0.930  12.586  22.805  0.00  0.00    +0.000 A 
ATOM     31  C   UNL     1      -1.378  13.906  22.821  0.00  0.00    +0.000 A 
ATOM     32  C   UNL     1      -1.998  14.431  21.699  0.00  0.00    +0.000 A 
ATOM     33  F   UNL     1      -2.433  15.697  21.727  0.00  0.00    +0.000 F 
ATOM     34  C   UNL     1      -2.174  13.667  20.555  0.00  0.00    +0.000 A 
ATOM     35  C   UNL     1      -1.700  12.355  20.536  0.00  0.00    +0.000 A 
ATOM     36  F   UNL     1      -1.872  11.625  19.426  0.00  0.00    +0.000 F 
ENDBRANCH  28  29
ENDBRANCH  14  28
TORSDOF 6
ENDMDL
MODEL 5
REMARK VINA RESULT:      -6.7      2.972     10.007
REMARK  Name = 
REMARK  7 active torsions:
REMARK  status: ('A' for Active; 'I' for Inactive)
REMARK    1  A    between atoms: C_1  and  O_2
REMARK    2  A    between atoms: O_2  and  C_3
REMARK    3  A    between atoms: C_3  and  C_4
REMARK    4  A    between atoms: N_12  and  C_13
REMARK    5  A    between atoms: C_13  and  C_14
REMARK    6  A    between atoms: C_21  and  O_22
REMARK    7  A    between atoms: O_22  and  C_23
REMARK                            x       y       z     vdW  Elec       q    Type
REMARK                         _______ _______ _______ _____ _____    ______ ____
ROOT
ATOM      1  C   UNL     1      -1.268  15.142  23.291  0.00  0.00    +0.000 C 
ATOM      2  O   UNL     1      -0.075  15.118  23.618  0.00  0.00    +0.000 OA
ATOM      3  N   UNL     1      -1.938  14.015  22.833  0.00  0.00    +0.000 N 
ATOM      4  C   UNL     1      -3.319  13.970  22.380  0.00  0.00    +0.000 C 
ATOM      5  C   UNL     1      -3.353  13.722  20.877  0.00  0.00    +0.000 C 
ATOM      6  C   UNL     1      -2.454  12.584  20.480  0.00  0.00    +0.000 A 
ATOM      7  N   UNL     1      -2.647  12.067  19.240  0.00  0.00    +0.000 NA
ATOM      8  C   UNL     1      -1.858  11.023  18.891  0.00  0.00    +0.000 A 
ATOM      9  N   UNL     1      -2.094  10.451  17.633  0.00  0.00    +0.000 N 
ATOM     10  C   UNL     1      -0.873  10.484  19.765  0.00  0.00    +0.000 A 
ATOM     11  N   UNL     1      -0.028   9.442  19.432  0.00  0.00    +0.000 N 
ATOM     12  C   UNL     1       0.481   8.604  20.501  0.00  0.00    +0.000 C 
ATOM     13  C   UNL     1       1.995   8.564  20.404  0.00  0.00    +0.000 C 
ATOM     14  C   UNL     1       2.456   8.040  19.039  0.00  0.00    +0.000 C 
ATOM     15  C   UNL     1       1.839   8.889  17.928  0.00  0.00    +0.000 C 
ATOM     16  C   UNL     1       0.325   9.051  18.069  0.00  0.00    +0.000 C 
ATOM     17  N   UNL     1      -0.690  11.049  20.989  0.00  0.00    +0.000 NA
ATOM     18  C   UNL     1      -1.456  12.111  21.327  0.00  0.00    +0.000 A 
ATOM     19  C   UNL     1      -1.199  12.760  22.671  0.00  0.00    +0.000 C 
ATOM     20  H   UNL     1      -2.596   9.575  17.738  0.00  0.00    +0.000 HD
ENDROOT
BRANCH   1  21
ATOM     21  C   UNL     1      -2.060  16.459  23.384  0.00  0.00    +0.000 C 
BRANCH  21  23
ATOM     22  C   UNL     1      -3.193  17.730  21.745  0.00  0.00    +0.000 C 
ATOM     23  O   UNL     1      -1.933  17.349  22.285  0.00  0.00    +0.000 OA
ENDBRANCH  21  23
ENDBRANCH   1  21
BRANCH   9  24
ATOM     24  C   UNL     1      -2.541  11.348  16.575  0.00  0.00    +0.000 C 
BRANCH  24  25
ATOM     25  C   UNL     1      -3.835  10.882  15.891  0.00  0.00    +0.000 C 
ATOM     26  F   UNL     1      -4.849  11.748  16.163  0.00  0.00    +0.000 F 
ATOM     27  F   UNL     1      -3.669  10.917  14.540  0.00  0.00    +0.000 F 
ENDBRANCH  24  25
ENDBRANCH   9  24
BRANCH  14  28
ATOM     28  O   UNL     1       2.072   6.670  18.817  0.00  0.00    +0.000 OA
BRANCH  28  29
ATOM     29  C   UNL     1       2.960   5.898  18.111  0.00  0.00    +0.000 A 
ATOM     30  C   UNL     1       4.250   6.312  17.771  0.00  0.00    +0.000 A 
ATOM     31  C   UNL     1       5.124   5.446  17.116  0.00  0.00    +0.000 A 
ATOM     32  C   UNL     1       4.698   4.174  16.775  0.00  0.00    +0.000 A 
ATOM     33  F   UNL     1       5.542   3.353  16.137  0.00  0.00    +0.000 F 
ATOM     34  C   UNL     1       3.416   3.742  17.080  0.00  0.00    +0.000 A 
ATOM     35  C   UNL     1       2.554   4.603  17.759  0.00  0.00    +0.000 A 
ATOM     36  F   UNL     1       1.318   4.177  18.052  0.00  0.00    +0.000 F 
ENDBRANCH  28  29
ENDBRANCH  14  28
TORSDOF 6
ENDMDL
MODEL 6
REMARK VINA RESULT:      -6.6      3.048      9.927
REMARK  Name = 
REMARK  7 active torsions:
REMARK  status: ('A' for Active; 'I' for Inactive)
REMARK    1  A    between atoms: C_1  and  O_2
REMARK    2  A    between atoms: O_2  and  C_3
REMARK    3  A    between atoms: C_3  and  C_4
REMARK    4  A    between atoms: N_12  and  C_13
REMARK    5  A    between atoms: C_13  and  C_14
REMARK    6  A    between atoms: C_21  and  O_22
REMARK    7  A    between atoms: O_22  and  C_23
REMARK                            x       y       z     vdW  Elec       q    Type
REMARK                         _______ _______ _______ _____ _____    ______ ____
ROOT
ATOM      1  C   UNL     1      -3.144  16.086  22.679  0.00  0.00    +0.000 C 
ATOM      2  O   UNL     1      -1.963  16.313  22.968  0.00  0.00    +0.000 OA
ATOM      3  N   UNL     1      -3.608  14.811  22.386  0.00  0.00    +0.000 N 
ATOM      4  C   UNL     1      -4.963  14.468  21.987  0.00  0.00    +0.000 C 
ATOM      5  C   UNL     1      -4.968  14.029  20.528  0.00  0.00    +0.000 C 
ATOM      6  C   UNL     1      -3.885  13.024  20.245  0.00  0.00    +0.000 A 
ATOM      7  N   UNL     1      -3.996  12.329  19.086  0.00  0.00    +0.000 NA
ATOM      8  C   UNL     1      -3.038  11.402  18.842  0.00  0.00    +0.000 A 
ATOM      9  N   UNL     1      -3.181  10.643  17.673  0.00  0.00    +0.000 N 
ATOM     10  C   UNL     1      -1.963  11.160  19.743  0.00  0.00    +0.000 A 
ATOM     11  N   UNL     1      -0.950  10.248  19.514  0.00  0.00    +0.000 N 
ATOM     12  C   UNL     1      -0.290   9.654  20.661  0.00  0.00    +0.000 C 
ATOM     13  C   UNL     1       1.207   9.868  20.520  0.00  0.00    +0.000 C 
ATOM     14  C   UNL     1       1.739   9.264  19.216  0.00  0.00    +0.000 C 
ATOM     15  C   UNL     1       0.969   9.843  18.030  0.00  0.00    +0.000 C 
ATOM     16  C   UNL     1      -0.547   9.755  18.199  0.00  0.00    +0.000 C 
ATOM     17  N   UNL     1      -1.872  11.899  20.882  0.00  0.00    +0.000 NA
ATOM     18  C   UNL     1      -2.811  12.845  21.112  0.00  0.00    +0.000 A 
ATOM     19  C   UNL     1      -2.659  13.694  22.356  0.00  0.00    +0.000 C 
ATOM     20  H   UNL     1      -3.518   9.713  17.901  0.00  0.00    +0.000 HD
ENDROOT
BRANCH   1  21
ATOM     21  C   UNL     1      -4.156  17.246  22.635  0.00  0.00    +0.000 C 
BRANCH  21  23
ATOM     22  C   UNL     1      -4.884  17.116  24.879  0.00  0.00    +0.000 C 
ATOM     23  O   UNL     1      -4.362  17.949  23.850  0.00  0.00    +0.000 OA
ENDBRANCH  21  23
ENDBRANCH   1  21
BRANCH   9  24
ATOM     24  C   UNL     1      -3.792  11.306  16.527  0.00  0.00    +0.000 C 
BRANCH  24  25
ATOM     25  C   UNL     1      -3.296  10.765  15.178  0.00  0.00    +0.000 C 
ATOM     26  F   UNL     1      -2.312   9.846  15.372  0.00  0.00    +0.000 F 
ATOM     27  F   UNL     1      -4.310  10.099  14.559  0.00  0.00    +0.000 F 
ENDBRANCH  24  25
ENDBRANCH   9  24
BRANCH  14  28
ATOM     28  O   UNL     1       1.602   7.830  19.177  0.00  0.00    +0.000 OA
BRANCH  28  29
ATOM     29  C   UNL     1       2.698   7.128  18.742  0.00  0.00    +0.000 A 
ATOM     30  C   UNL     1       3.466   7.493  17.635  0.00  0.00    +0.000 A 
ATOM     31  C   UNL     1       4.610   6.774  17.295  0.00  0.00    +0.000 A 
ATOM     32  C   UNL     1       4.972   5.670  18.047  0.00  0.00    +0.000 A 
ATOM     33  F   UNL     1       6.067   4.979  17.707  0.00  0.00    +0.000 F 
ATOM     34  C   UNL     1       4.217   5.270  19.141  0.00  0.00    +0.000 A 
ATOM     35  C   UNL     1       3.088   6.009  19.492  0.00  0.00    +0.000 A 
ATOM     36  F   UNL     1       2.366   5.618  20.551  0.00  0.00    +0.000 F 
ENDBRANCH  28  29
ENDBRANCH  14  28
TORSDOF 6
ENDMDL
MODEL 7
REMARK VINA RESULT:      -6.6      3.736      6.305
REMARK  Name = 
REMARK  7 active torsions:
REMARK  status: ('A' for Active; 'I' for Inactive)
REMARK    1  A    between atoms: C_1  and  O_2
REMARK    2  A    between atoms: O_2  and  C_3
REMARK    3  A    between atoms: C_3  and  C_4
REMARK    4  A    between atoms: N_12  and  C_13
REMARK    5  A    between atoms: C_13  and  C_14
REMARK    6  A    between atoms: C_21  and  O_22
REMARK    7  A    between atoms: O_22  and  C_23
REMARK                            x       y       z     vdW  Elec       q    Type
REMARK                         _______ _______ _______ _____ _____    ______ ____
ROOT
ATOM      1  C   UNL     1       6.849   6.054  16.077  0.00  0.00    +0.000 C 
ATOM      2  O   UNL     1       7.289   7.204  16.202  0.00  0.00    +0.000 OA
ATOM      3  N   UNL     1       5.502   5.750  16.229  0.00  0.00    +0.000 N 
ATOM      4  C   UNL     1       4.914   4.423  16.151  0.00  0.00    +0.000 C 
ATOM      5  C   UNL     1       4.430   4.000  17.532  0.00  0.00    +0.000 C 
ATOM      6  C   UNL     1       3.620   5.081  18.194  0.00  0.00    +0.000 A 
ATOM      7  N   UNL     1       2.875   4.708  19.264  0.00  0.00    +0.000 NA
ATOM      8  C   UNL     1       2.122   5.674  19.843  0.00  0.00    +0.000 A 
ATOM      9  N   UNL     1       1.308   5.278  20.914  0.00  0.00    +0.000 N 
ATOM     10  C   UNL     1       2.102   7.015  19.368  0.00  0.00    +0.000 A 
ATOM     11  N   UNL     1       1.374   8.034  19.953  0.00  0.00    +0.000 N 
ATOM     12  C   UNL     1       0.945   9.138  19.115  0.00  0.00    +0.000 C 
ATOM     13  C   UNL     1       1.411  10.435  19.751  0.00  0.00    +0.000 C 
ATOM     14  C   UNL     1       0.863  10.591  21.174  0.00  0.00    +0.000 C 
ATOM     15  C   UNL     1       1.257   9.375  22.012  0.00  0.00    +0.000 C 
ATOM     16  C   UNL     1       0.912   8.046  21.339  0.00  0.00    +0.000 C 
ATOM     17  N   UNL     1       2.886   7.357  18.310  0.00  0.00    +0.000 NA
ATOM     18  C   UNL     1       3.661   6.400  17.749  0.00  0.00    +0.000 A 
ATOM     19  C   UNL     1       4.568   6.813  16.609  0.00  0.00    +0.000 C 
ATOM     20  H   UNL     1       0.343   5.207  20.609  0.00  0.00    +0.000 HD
ENDROOT
BRANCH   1  21
ATOM     21  C   UNL     1       7.812   4.900  15.744  0.00  0.00    +0.000 C 
BRANCH  21  23
ATOM     22  C   UNL     1       7.908   4.681  18.094  0.00  0.00    +0.000 C 
ATOM     23  O   UNL     1       8.245   4.106  16.837  0.00  0.00    +0.000 OA
ENDBRANCH  21  23
ENDBRANCH   1  21
BRANCH   9  24
ATOM     24  C   UNL     1       1.813   4.208  21.765  0.00  0.00    +0.000 C 
BRANCH  24  25
ATOM     25  C   UNL     1       1.347   2.812  21.327  0.00  0.00    +0.000 C 
ATOM     26  F   UNL     1       0.774   2.158  22.373  0.00  0.00    +0.000 F 
ATOM     27  F   UNL     1       0.369   2.938  20.386  0.00  0.00    +0.000 F 
ENDBRANCH  24  25
ENDBRANCH   9  24
BRANCH  14  28
ATOM     28  O   UNL     1      -0.573  10.703  21.202  0.00  0.00    +0.000 OA
BRANCH  28  29
ATOM     29  C   UNL     1      -1.079  11.885  21.683  0.00  0.00    +0.000 A 
ATOM     30  C   UNL     1      -1.010  13.097  20.994  0.00  0.00    +0.000 A 
ATOM     31  C   UNL     1      -1.612  14.243  21.511  0.00  0.00    +0.000 A 
ATOM     32  C   UNL     1      -2.258  14.183  22.735  0.00  0.00    +0.000 A 
ATOM     33  F   UNL     1      -2.824  15.291  23.228  0.00  0.00    +0.000 F 
ATOM     34  C   UNL     1      -2.324  12.997  23.452  0.00  0.00    +0.000 A 
ATOM     35  C   UNL     1      -1.743  11.848  22.917  0.00  0.00    +0.000 A 
ATOM     36  F   UNL     1      -1.814  10.706  23.615  0.00  0.00    +0.000 F 
ENDBRANCH  28  29
ENDBRANCH  14  28
TORSDOF 6
ENDMDL
MODEL 8
REMARK VINA RESULT:      -6.6      1.586      1.664
REMARK  Name = 
REMARK  7 active torsions:
REMARK  status: ('A' for Active; 'I' for Inactive)
REMARK    1  A    between atoms: C_1  and  O_2
REMARK    2  A    between atoms: O_2  and  C_3
REMARK    3  A    between atoms: C_3  and  C_4
REMARK    4  A    between atoms: N_12  and  C_13
REMARK    5  A    between atoms: C_13  and  C_14
REMARK    6  A    between atoms: C_21  and  O_22
REMARK    7  A    between atoms: O_22  and  C_23
REMARK                            x       y       z     vdW  Elec       q    Type
REMARK                         _______ _______ _______ _____ _____    ______ ____
ROOT
ATOM      1  C   UNL     1       2.069   6.005  20.084  0.00  0.00    +0.000 C 
ATOM      2  O   UNL     1       1.708   5.788  21.247  0.00  0.00    +0.000 OA
ATOM      3  N   UNL     1       2.198   7.288  19.570  0.00  0.00    +0.000 N 
ATOM      4  C   UNL     1       2.564   7.627  18.205  0.00  0.00    +0.000 C 
ATOM      5  C   UNL     1       1.362   8.234  17.492  0.00  0.00    +0.000 C 
ATOM      6  C   UNL     1       0.705   9.303  18.320  0.00  0.00    +0.000 A 
ATOM      7  N   UNL     1      -0.156  10.125  17.671  0.00  0.00    +0.000 NA
ATOM      8  C   UNL     1      -0.727  11.108  18.408  0.00  0.00    +0.000 A 
ATOM      9  N   UNL     1      -1.573  11.994  17.726  0.00  0.00    +0.000 N 
ATOM     10  C   UNL     1      -0.451  11.281  19.793  0.00  0.00    +0.000 A 
ATOM     11  N   UNL     1      -1.039  12.250  20.585  0.00  0.00    +0.000 N 
ATOM     12  C   UNL     1      -0.305  12.728  21.741  0.00  0.00    +0.000 C 
ATOM     13  C   UNL     1      -1.190  12.587  22.967  0.00  0.00    +0.000 C 
ATOM     14  C   UNL     1      -2.504  13.359  22.802  0.00  0.00    +0.000 C 
ATOM     15  C   UNL     1      -3.216  12.896  21.532  0.00  0.00    +0.000 C 
ATOM     16  C   UNL     1      -2.312  12.908  20.299  0.00  0.00    +0.000 C 
ATOM     17  N   UNL     1       0.396  10.418  20.415  0.00  0.00    +0.000 NA
ATOM     18  C   UNL     1       0.943   9.418  19.687  0.00  0.00    +0.000 A 
ATOM     19  C   UNL     1       1.839   8.434  20.410  0.00  0.00    +0.000 C 
ATOM     20  H   UNL     1      -1.098  12.877  17.571  0.00  0.00    +0.000 HD
ENDROOT
BRANCH   1  21
ATOM     21  C   UNL     1       2.391   4.822  19.151  0.00  0.00    +0.000 C 
BRANCH  21  23
ATOM     22  C   UNL     1       1.827   2.711  18.253  0.00  0.00    +0.000 C 
ATOM     23  O   UNL     1       1.417   3.792  19.082  0.00  0.00    +0.000 OA
ENDBRANCH  21  23
ENDBRANCH   1  21
BRANCH   9  24
ATOM     24  C   UNL     1      -2.339  11.448  16.612  0.00  0.00    +0.000 C 
BRANCH  24  25
ATOM     25  C   UNL     1      -3.664  10.803  17.044  0.00  0.00    +0.000 C 
ATOM     26  F   UNL     1      -4.544  10.795  16.006  0.00  0.00    +0.000 F 
ATOM     27  F   UNL     1      -3.447   9.496  17.358  0.00  0.00    +0.000 F 
ENDBRANCH  24  25
ENDBRANCH   9  24
BRANCH  14  28
ATOM     28  O   UNL     1      -2.298  14.781  22.702  0.00  0.00    +0.000 OA
BRANCH  28  29
ATOM     29  C   UNL     1      -3.140  15.569  23.446  0.00  0.00    +0.000 A 
ATOM     30  C   UNL     1      -4.530  15.437  23.447  0.00  0.00    +0.000 A 
ATOM     31  C   UNL     1      -5.318  16.224  24.284  0.00  0.00    +0.000 A 
ATOM     32  C   UNL     1      -4.717  17.166  25.102  0.00  0.00    +0.000 A 
ATOM     33  F   UNL     1      -5.484  17.924  25.895  0.00  0.00    +0.000 F 
ATOM     34  C   UNL     1      -3.340  17.335  25.107  0.00  0.00    +0.000 A 
ATOM     35  C   UNL     1      -2.554  16.526  24.287  0.00  0.00    +0.000 A 
ATOM     36  F   UNL     1      -1.225  16.695  24.300  0.00  0.00    +0.000 F 
ENDBRANCH  28  29
ENDBRANCH  14  28
TORSDOF 6
ENDMDL
MODEL 9
REMARK VINA RESULT:      -6.5      2.201      2.816
REMARK  Name = 
REMARK  7 active torsions:
REMARK  status: ('A' for Active; 'I' for Inactive)
REMARK    1  A    between atoms: C_1  and  O_2
REMARK    2  A    between atoms: O_2  and  C_3
REMARK    3  A    between atoms: C_3  and  C_4
REMARK    4  A    between atoms: N_12  and  C_13
REMARK    5  A    between atoms: C_13  and  C_14
REMARK    6  A    between atoms: C_21  and  O_22
REMARK    7  A    between atoms: O_22  and  C_23
REMARK                            x       y       z     vdW  Elec       q    Type
REMARK                         _______ _______ _______ _____ _____    ______ ____
ROOT
ATOM      1  C   UNL     1       2.200   5.931  20.080  0.00  0.00    +0.000 C 
ATOM      2  O   UNL     1       1.819   5.686  21.231  0.00  0.00    +0.000 OA
ATOM      3  N   UNL     1       2.306   7.225  19.589  0.00  0.00    +0.000 N 
ATOM      4  C   UNL     1       2.694   7.595  18.238  0.00  0.00    +0.000 C 
ATOM      5  C   UNL     1       1.493   8.182  17.507  0.00  0.00    +0.000 C 
ATOM      6  C   UNL     1       0.789   9.220  18.337  0.00  0.00    +0.000 A 
ATOM      7  N   UNL     1      -0.078  10.030  17.681  0.00  0.00    +0.000 NA
ATOM      8  C   UNL     1      -0.691  10.986  18.420  0.00  0.00    +0.000 A 
ATOM      9  N   UNL     1      -1.545  11.860  17.733  0.00  0.00    +0.000 N 
ATOM     10  C   UNL     1      -0.451  11.144  19.814  0.00  0.00    +0.000 A 
ATOM     11  N   UNL     1      -1.082  12.084  20.607  0.00  0.00    +0.000 N 
ATOM     12  C   UNL     1      -0.387  12.562  21.787  0.00  0.00    +0.000 C 
ATOM     13  C   UNL     1      -1.295  12.378  22.990  0.00  0.00    +0.000 C 
ATOM     14  C   UNL     1      -2.625  13.119  22.807  0.00  0.00    +0.000 C 
ATOM     15  C   UNL     1      -3.296  12.658  21.513  0.00  0.00    +0.000 C 
ATOM     16  C   UNL     1      -2.365  12.714  20.302  0.00  0.00    +0.000 C 
ATOM     17  N   UNL     1       0.404  10.293  20.442  0.00  0.00    +0.000 NA
ATOM     18  C   UNL     1       0.994   9.319  19.710  0.00  0.00    +0.000 A 
ATOM     19  C   UNL     1       1.898   8.348  20.439  0.00  0.00    +0.000 C 
ATOM     20  H   UNL     1      -1.090  12.758  17.603  0.00  0.00    +0.000 HD
ENDROOT
BRANCH   1  21
ATOM     21  C   UNL     1       2.573   4.772  19.137  0.00  0.00    +0.000 C 
BRANCH  21  23
ATOM     22  C   UNL     1       3.419   2.640  19.704  0.00  0.00    +0.000 C 
ATOM     23  O   UNL     1       3.720   4.015  19.493  0.00  0.00    +0.000 OA
ENDBRANCH  21  23
ENDBRANCH   1  21
BRANCH   9  24
ATOM     24  C   UNL     1      -2.270  11.313  16.594  0.00  0.00    +0.000 C 
BRANCH  24  25
ATOM     25  C   UNL     1      -3.605  10.661  16.980  0.00  0.00    +0.000 C 
ATOM     26  F   UNL     1      -4.491  10.756  15.952  0.00  0.00    +0.000 F 
ATOM     27  F   UNL     1      -3.414   9.328  17.185  0.00  0.00    +0.000 F 
ENDBRANCH  24  25
ENDBRANCH   9  24
BRANCH  14  28
ATOM     28  O   UNL     1      -2.454  14.547  22.734  0.00  0.00    +0.000 OA
BRANCH  28  29
ATOM     29  C   UNL     1      -1.834  15.139  23.806  0.00  0.00    +0.000 A 
ATOM     30  C   UNL     1      -0.597  15.782  23.730  0.00  0.00    +0.000 A 
ATOM     31  C   UNL     1      -0.061  16.425  24.844  0.00  0.00    +0.000 A 
ATOM     32  C   UNL     1      -0.751  16.400  26.045  0.00  0.00    +0.000 A 
ATOM     33  F   UNL     1      -0.223  17.012  27.112  0.00  0.00    +0.000 F 
ATOM     34  C   UNL     1      -1.972  15.751  26.156  0.00  0.00    +0.000 A 
ATOM     35  C   UNL     1      -2.515  15.131  25.031  0.00  0.00    +0.000 A 
ATOM     36  F   UNL     1      -3.696  14.508  25.147  0.00  0.00    +0.000 F 
ENDBRANCH  28  29
ENDBRANCH  14  28
TORSDOF 6
ENDMDL
