MODEL 1
REMARK VINA RESULT:      -8.4      0.000      0.000
REMARK  Name = 
REMARK  6 active torsions:
REMARK  status: ('A' for Active; 'I' for Inactive)
REMARK    1  A    between atoms: C_1  and  N_2
REMARK    2  A    between atoms: C_3  and  C_5
REMARK    3  A    between atoms: C_9  and  N_10
REMARK    4  A    between atoms: N_10  and  C_11
REMARK    5  A    between atoms: C_18  and  O_19
REMARK    6  A    between atoms: O_19  and  C_20
REMARK                            x       y       z     vdW  Elec       q    Type
REMARK                         _______ _______ _______ _____ _____    ______ ____
ROOT
ATOM      1  C   UNL     1       2.929   5.619  18.783  0.00  0.00    +0.000 A 
ATOM      2  C   UNL     1       2.605   5.186  20.064  0.00  0.00    +0.000 A 
ATOM      3  C   UNL     1       1.970   6.066  20.919  0.00  0.00    +0.000 A 
ATOM      4  N   UNL     1       1.644   7.332  20.588  0.00  0.00    +0.000 NA
ATOM      5  C   UNL     1       1.939   7.752  19.339  0.00  0.00    +0.000 A 
ATOM      6  N   UNL     1       1.610   9.070  18.939  0.00  0.00    +0.000 N 
ATOM      7  C   UNL     1       0.978  10.026  19.804  0.00  0.00    +0.000 C 
ATOM      8  C   UNL     1      -0.076  10.296  18.731  0.00  0.00    +0.000 C 
ATOM      9  C   UNL     1       0.719   9.334  17.840  0.00  0.00    +0.000 C 
ATOM     10  C   UNL     1       2.581   6.921  18.422  0.00  0.00    +0.000 A 
ENDROOT
BRANCH   1  11
ATOM     11  N   UNL     1       3.557   4.787  17.836  0.00  0.00    +0.000 N 
ATOM     12  H   UNL     1       2.908   4.390  17.163  0.00  0.00    +0.000 HD
BRANCH  11  17
ATOM     13  C   UNL     1       6.609   4.668  15.717  0.00  0.00    +0.000 A 
ATOM     14  C   UNL     1       7.615   4.725  16.690  0.00  0.00    +0.000 A 
ATOM     15  C   UNL     1       7.277   4.757  18.039  0.00  0.00    +0.000 A 
ATOM     16  C   UNL     1       5.936   4.754  18.414  0.00  0.00    +0.000 A 
ATOM     17  C   UNL     1       4.911   4.739  17.458  0.00  0.00    +0.000 A 
ATOM     18  C   UNL     1       5.261   4.693  16.105  0.00  0.00    +0.000 A 
BRANCH  13  21
ATOM     19  C   UNL     1       6.499   3.454  12.141  0.00  0.00    +0.000 C 
ATOM     20  N   UNL     1       6.289   3.612  13.556  0.00  0.00    +0.000 N 
ATOM     21  C   UNL     1       6.936   4.601  14.271  0.00  0.00    +0.000 C 
ATOM     22  O   UNL     1       7.713   5.407  13.769  0.00  0.00    +0.000 OA
ATOM     23  H   UNL     1       5.537   3.092  13.988  0.00  0.00    +0.000 HD
ENDBRANCH  13  21
ENDBRANCH  11  17
ENDBRANCH   1  11
BRANCH   8  24
ATOM     24  O   UNL     1      -1.436   9.916  19.072  0.00  0.00    +0.000 OA
BRANCH  24  25
ATOM     25  C   UNL     1      -2.462  10.568  18.435  0.00  0.00    +0.000 A 
ATOM     26  C   UNL     1      -2.812  10.084  17.171  0.00  0.00    +0.000 A 
ATOM     27  C   UNL     1      -3.850  10.686  16.456  0.00  0.00    +0.000 A 
ATOM     28  C   UNL     1      -4.536  11.757  17.017  0.00  0.00    +0.000 A 
ATOM     29  F   UNL     1      -5.529  12.339  16.334  0.00  0.00    +0.000 F 
ATOM     30  C   UNL     1      -4.211  12.230  18.282  0.00  0.00    +0.000 A 
ATOM     31  C   UNL     1      -3.172  11.632  18.995  0.00  0.00    +0.000 A 
ENDBRANCH  24  25
ENDBRANCH   8  24
TORSDOF 5
ENDMDL
MODEL 2
REMARK VINA RESULT:      -8.2      1.534      2.048
REMARK  Name = 
REMARK  6 active torsions:
REMARK  status: ('A' for Active; 'I' for Inactive)
REMARK    1  A    between atoms: C_1  and  N_2
REMARK    2  A    between atoms: C_3  and  C_5
REMARK    3  A    between atoms: C_9  and  N_10
REMARK    4  A    between atoms: N_10  and  C_11
REMARK    5  A    between atoms: C_18  and  O_19
REMARK    6  A    between atoms: O_19  and  C_20
REMARK                            x       y       z     vdW  Elec       q    Type
REMARK                         _______ _______ _______ _____ _____    ______ ____
ROOT
ATOM      1  C   UNL     1       2.854   4.106  18.901  0.00  0.00    +0.000 A 
ATOM      2  C   UNL     1       1.809   3.415  19.504  0.00  0.00    +0.000 A 
ATOM      3  C   UNL     1       0.935   4.113  20.316  0.00  0.00    +0.000 A 
ATOM      4  N   UNL     1       1.034   5.434  20.565  0.00  0.00    +0.000 NA
ATOM      5  C   UNL     1       2.035   6.115  19.966  0.00  0.00    +0.000 A 
ATOM      6  N   UNL     1       2.178   7.506  20.188  0.00  0.00    +0.000 N 
ATOM      7  C   UNL     1       1.312   8.264  21.047  0.00  0.00    +0.000 C 
ATOM      8  C   UNL     1       1.093   9.278  19.925  0.00  0.00    +0.000 C 
ATOM      9  C   UNL     1       2.106   8.461  19.114  0.00  0.00    +0.000 C 
ATOM     10  C   UNL     1       2.956   5.478  19.136  0.00  0.00    +0.000 A 
ENDROOT
BRANCH   1  11
ATOM     11  N   UNL     1       3.780   3.484  18.041  0.00  0.00    +0.000 N 
ATOM     12  H   UNL     1       3.369   2.745  17.480  0.00  0.00    +0.000 HD
BRANCH  11  17
ATOM     13  C   UNL     1       6.518   4.490  15.737  0.00  0.00    +0.000 A 
ATOM     14  C   UNL     1       7.462   4.993  16.642  0.00  0.00    +0.000 A 
ATOM     15  C   UNL     1       7.204   4.955  18.009  0.00  0.00    +0.000 A 
ATOM     16  C   UNL     1       5.997   4.434  18.468  0.00  0.00    +0.000 A 
ATOM     17  C   UNL     1       5.019   3.963  17.580  0.00  0.00    +0.000 A 
ATOM     18  C   UNL     1       5.294   3.993  16.208  0.00  0.00    +0.000 A 
BRANCH  13  21
ATOM     19  C   UNL     1       6.361   3.337  12.142  0.00  0.00    +0.000 C 
ATOM     20  N   UNL     1       6.207   3.445  13.569  0.00  0.00    +0.000 N 
ATOM     21  C   UNL     1       6.775   4.487  14.275  0.00  0.00    +0.000 C 
ATOM     22  O   UNL     1       7.429   5.386  13.755  0.00  0.00    +0.000 OA
ATOM     23  H   UNL     1       5.542   2.834  14.026  0.00  0.00    +0.000 HD
ENDBRANCH  13  21
ENDBRANCH  11  17
ENDBRANCH   1  11
BRANCH   8  24
ATOM     24  O   UNL     1      -0.260   9.364  19.406  0.00  0.00    +0.000 OA
BRANCH  24  25
ATOM     25  C   UNL     1      -0.983  10.496  19.684  0.00  0.00    +0.000 A 
ATOM     26  C   UNL     1      -1.952  10.859  18.743  0.00  0.00    +0.000 A 
ATOM     27  C   UNL     1      -2.737  11.995  18.952  0.00  0.00    +0.000 A 
ATOM     28  C   UNL     1      -2.554  12.751  20.104  0.00  0.00    +0.000 A 
ATOM     29  F   UNL     1      -3.303  13.842  20.306  0.00  0.00    +0.000 F 
ATOM     30  C   UNL     1      -1.611  12.386  21.056  0.00  0.00    +0.000 A 
ATOM     31  C   UNL     1      -0.824  11.253  20.847  0.00  0.00    +0.000 A 
ENDBRANCH  24  25
ENDBRANCH   8  24
TORSDOF 5
ENDMDL
MODEL 3
REMARK VINA RESULT:      -8.2      1.001      1.095
REMARK  Name = 
REMARK  6 active torsions:
REMARK  status: ('A' for Active; 'I' for Inactive)
REMARK    1  A    between atoms: C_1  and  N_2
REMARK    2  A    between atoms: C_3  and  C_5
REMARK    3  A    between atoms: C_9  and  N_10
REMARK    4  A    between atoms: N_10  and  C_11
REMARK    5  A    between atoms: C_18  and  O_19
REMARK    6  A    between atoms: O_19  and  C_20
REMARK                            x       y       z     vdW  Elec       q    Type
REMARK                         _______ _______ _______ _____ _____    ______ ____
ROOT
ATOM      1  C   UNL     1       2.754   5.327  18.801  0.00  0.00    +0.000 A 
ATOM      2  C   UNL     1       2.232   4.747  19.952  0.00  0.00    +0.000 A 
ATOM      3  C   UNL     1       1.587   5.557  20.868  0.00  0.00    +0.000 A 
ATOM      4  N   UNL     1       1.433   6.888  20.715  0.00  0.00    +0.000 NA
ATOM      5  C   UNL     1       1.921   7.454  19.591  0.00  0.00    +0.000 A 
ATOM      6  N   UNL     1       1.778   8.847  19.380  0.00  0.00    +0.000 N 
ATOM      7  C   UNL     1       1.142   9.729  20.318  0.00  0.00    +0.000 C 
ATOM      8  C   UNL     1       0.262  10.281  19.197  0.00  0.00    +0.000 C 
ATOM      9  C   UNL     1       1.060   9.377  18.250  0.00  0.00    +0.000 C 
ATOM     10  C   UNL     1       2.585   6.701  18.624  0.00  0.00    +0.000 A 
ENDROOT
BRANCH   1  11
ATOM     11  N   UNL     1       3.408   4.580  17.802  0.00  0.00    +0.000 N 
ATOM     12  H   UNL     1       2.774   4.223  17.093  0.00  0.00    +0.000 HD
BRANCH  11  17
ATOM     13  C   UNL     1       6.486   4.601  15.718  0.00  0.00    +0.000 A 
ATOM     14  C   UNL     1       7.479   4.672  16.704  0.00  0.00    +0.000 A 
ATOM     15  C   UNL     1       7.125   4.668  18.050  0.00  0.00    +0.000 A 
ATOM     16  C   UNL     1       5.780   4.613  18.409  0.00  0.00    +0.000 A 
ATOM     17  C   UNL     1       4.766   4.584  17.440  0.00  0.00    +0.000 A 
ATOM     18  C   UNL     1       5.133   4.574  16.090  0.00  0.00    +0.000 A 
BRANCH  13  21
ATOM     19  C   UNL     1       8.202   5.569  12.494  0.00  0.00    +0.000 C 
ATOM     20  N   UNL     1       7.763   5.505  13.864  0.00  0.00    +0.000 N 
ATOM     21  C   UNL     1       6.831   4.572  14.275  0.00  0.00    +0.000 C 
ATOM     22  O   UNL     1       6.324   3.741  13.529  0.00  0.00    +0.000 OA
ATOM     23  H   UNL     1       8.267   6.047  14.553  0.00  0.00    +0.000 HD
ENDBRANCH  13  21
ENDBRANCH  11  17
ENDBRANCH   1  11
BRANCH   8  24
ATOM     24  O   UNL     1      -1.161  10.017  19.325  0.00  0.00    +0.000 OA
BRANCH  24  25
ATOM     25  C   UNL     1      -1.973  10.360  18.273  0.00  0.00    +0.000 A 
ATOM     26  C   UNL     1      -1.767   9.662  17.079  0.00  0.00    +0.000 A 
ATOM     27  C   UNL     1      -2.554   9.944  15.960  0.00  0.00    +0.000 A 
ATOM     28  C   UNL     1      -3.547  10.912  16.049  0.00  0.00    +0.000 A 
ATOM     29  F   UNL     1      -4.302  11.188  14.978  0.00  0.00    +0.000 F 
ATOM     30  C   UNL     1      -3.776  11.595  17.237  0.00  0.00    +0.000 A 
ATOM     31  C   UNL     1      -2.987  11.316  18.354  0.00  0.00    +0.000 A 
ENDBRANCH  24  25
ENDBRANCH   8  24
TORSDOF 5
ENDMDL
MODEL 4
REMARK VINA RESULT:      -8.1      1.271      1.638
REMARK  Name = 
REMARK  6 active torsions:
REMARK  status: ('A' for Active; 'I' for Inactive)
REMARK    1  A    between atoms: C_1  and  N_2
REMARK    2  A    between atoms: C_3  and  C_5
REMARK    3  A    between atoms: C_9  and  N_10
REMARK    4  A    between atoms: N_10  and  C_11
REMARK    5  A    between atoms: C_18  and  O_19
REMARK    6  A    between atoms: O_19  and  C_20
REMARK                            x       y       z     vdW  Elec       q    Type
REMARK                         _______ _______ _______ _____ _____    ______ ____
ROOT
ATOM      1  C   UNL     1       2.634   4.780  18.753  0.00  0.00    +0.000 A 
ATOM      2  C   UNL     1       1.858   3.984  19.589  0.00  0.00    +0.000 A 
ATOM      3  C   UNL     1       1.175   4.585  20.628  0.00  0.00    +0.000 A 
ATOM      4  N   UNL     1       1.216   5.908  20.888  0.00  0.00    +0.000 NA
ATOM      5  C   UNL     1       1.952   6.688  20.069  0.00  0.00    +0.000 A 
ATOM      6  N   UNL     1       2.021   8.085  20.294  0.00  0.00    +0.000 N 
ATOM      7  C   UNL     1       1.353   8.746  21.379  0.00  0.00    +0.000 C 
ATOM      8  C   UNL     1       0.748   9.745  20.394  0.00  0.00    +0.000 C 
ATOM      9  C   UNL     1       1.576   9.039  19.313  0.00  0.00    +0.000 C 
ATOM     10  C   UNL     1       2.670   6.153  19.001  0.00  0.00    +0.000 A 
ENDROOT
BRANCH   1  11
ATOM     11  N   UNL     1       3.348   4.260  17.656  0.00  0.00    +0.000 N 
ATOM     12  H   UNL     1       2.751   4.016  16.872  0.00  0.00    +0.000 HD
BRANCH  11  17
ATOM     13  C   UNL     1       6.491   4.557  15.693  0.00  0.00    +0.000 A 
ATOM     14  C   UNL     1       7.433   4.726  16.715  0.00  0.00    +0.000 A 
ATOM     15  C   UNL     1       7.028   4.697  18.046  0.00  0.00    +0.000 A 
ATOM     16  C   UNL     1       5.681   4.518  18.353  0.00  0.00    +0.000 A 
ATOM     17  C   UNL     1       4.714   4.388  17.346  0.00  0.00    +0.000 A 
ATOM     18  C   UNL     1       5.133   4.406  16.012  0.00  0.00    +0.000 A 
BRANCH  13  21
ATOM     19  C   UNL     1       6.590   3.482  12.072  0.00  0.00    +0.000 C 
ATOM     20  N   UNL     1       6.303   3.582  13.479  0.00  0.00    +0.000 N 
ATOM     21  C   UNL     1       6.893   4.552  14.264  0.00  0.00    +0.000 C 
ATOM     22  O   UNL     1       7.680   5.390  13.835  0.00  0.00    +0.000 OA
ATOM     23  H   UNL     1       5.540   3.032  13.851  0.00  0.00    +0.000 HD
ENDBRANCH  13  21
ENDBRANCH  11  17
ENDBRANCH   1  11
BRANCH   8  24
ATOM     24  O   UNL     1      -0.697   9.703  20.258  0.00  0.00    +0.000 OA
BRANCH  24  25
ATOM     25  C   UNL     1      -1.246  10.176  19.092  0.00  0.00    +0.000 A 
ATOM     26  C   UNL     1      -1.189  11.559  18.899  0.00  0.00    +0.000 A 
ATOM     27  C   UNL     1      -1.719  12.124  17.736  0.00  0.00    +0.000 A 
ATOM     28  C   UNL     1      -2.289  11.299  16.773  0.00  0.00    +0.000 A 
ATOM     29  F   UNL     1      -2.801  11.836  15.659  0.00  0.00    +0.000 F 
ATOM     30  C   UNL     1      -2.329   9.921  16.945  0.00  0.00    +0.000 A 
ATOM     31  C   UNL     1      -1.803   9.357  18.108  0.00  0.00    +0.000 A 
ENDBRANCH  24  25
ENDBRANCH   8  24
TORSDOF 5
ENDMDL
MODEL 5
REMARK VINA RESULT:      -8.0      1.215      1.546
REMARK  Name = 
REMARK  6 active torsions:
REMARK  status: ('A' for Active; 'I' for Inactive)
REMARK    1  A    between atoms: C_1  and  N_2
REMARK    2  A    between atoms: C_3  and  C_5
REMARK    3  A    between atoms: C_9  and  N_10
REMARK    4  A    between atoms: N_10  and  C_11
REMARK    5  A    between atoms: C_18  and  O_19
REMARK    6  A    between atoms: O_19  and  C_20
REMARK                            x       y       z     vdW  Elec       q    Type
REMARK                         _______ _______ _______ _____ _____    ______ ____
ROOT
ATOM      1  C   UNL     1       2.835   5.263  18.862  0.00  0.00    +0.000 A 
ATOM      2  C   UNL     1       2.226   4.745  20.000  0.00  0.00    +0.000 A 
ATOM      3  C   UNL     1       1.541   5.608  20.834  0.00  0.00    +0.000 A 
ATOM      4  N   UNL     1       1.427   6.933  20.615  0.00  0.00    +0.000 NA
ATOM      5  C   UNL     1       1.999   7.439  19.501  0.00  0.00    +0.000 A 
ATOM      6  N   UNL     1       1.902   8.823  19.221  0.00  0.00    +0.000 N 
ATOM      7  C   UNL     1       1.226   9.759  20.075  0.00  0.00    +0.000 C 
ATOM      8  C   UNL     1       0.433  10.277  18.876  0.00  0.00    +0.000 C 
ATOM      9  C   UNL     1       1.271   9.316  18.024  0.00  0.00    +0.000 C 
ATOM     10  C   UNL     1       2.708   6.631  18.614  0.00  0.00    +0.000 A 
ENDROOT
BRANCH   1  11
ATOM     11  N   UNL     1       3.536   4.459  17.942  0.00  0.00    +0.000 N 
ATOM     12  H   UNL     1       2.926   3.980  17.287  0.00  0.00    +0.000 HD
BRANCH  11  17
ATOM     13  C   UNL     1       6.582   4.587  15.815  0.00  0.00    +0.000 A 
ATOM     14  C   UNL     1       7.582   4.730  16.784  0.00  0.00    +0.000 A 
ATOM     15  C   UNL     1       7.246   4.738  18.135  0.00  0.00    +0.000 A 
ATOM     16  C   UNL     1       5.911   4.625  18.514  0.00  0.00    +0.000 A 
ATOM     17  C   UNL     1       4.888   4.523  17.560  0.00  0.00    +0.000 A 
ATOM     18  C   UNL     1       5.237   4.501  16.206  0.00  0.00    +0.000 A 
BRANCH  13  21
ATOM     19  C   UNL     1       6.453   3.448  12.214  0.00  0.00    +0.000 C 
ATOM     20  N   UNL     1       6.243   3.582  13.632  0.00  0.00    +0.000 N 
ATOM     21  C   UNL     1       6.909   4.543  14.368  0.00  0.00    +0.000 C 
ATOM     22  O   UNL     1       7.702   5.344  13.883  0.00  0.00    +0.000 OA
ATOM     23  H   UNL     1       5.481   3.068  14.053  0.00  0.00    +0.000 HD
ENDBRANCH  13  21
ENDBRANCH  11  17
ENDBRANCH   1  11
BRANCH   8  24
ATOM     24  O   UNL     1      -1.000  10.047  18.920  0.00  0.00    +0.000 OA
BRANCH  24  25
ATOM     25  C   UNL     1      -1.798  11.061  19.388  0.00  0.00    +0.000 A 
ATOM     26  C   UNL     1      -3.002  11.265  18.707  0.00  0.00    +0.000 A 
ATOM     27  C   UNL     1      -3.876  12.273  19.121  0.00  0.00    +0.000 A 
ATOM     28  C   UNL     1      -3.543  13.059  20.219  0.00  0.00    +0.000 A 
ATOM     29  F   UNL     1      -4.376  14.028  20.617  0.00  0.00    +0.000 F 
ATOM     30  C   UNL     1      -2.360  12.849  20.916  0.00  0.00    +0.000 A 
ATOM     31  C   UNL     1      -1.485  11.844  20.501  0.00  0.00    +0.000 A 
ENDBRANCH  24  25
ENDBRANCH   8  24
TORSDOF 5
ENDMDL
MODEL 6
REMARK VINA RESULT:      -8.0      2.311      3.989
REMARK  Name = 
REMARK  6 active torsions:
REMARK  status: ('A' for Active; 'I' for Inactive)
REMARK    1  A    between atoms: C_1  and  N_2
REMARK    2  A    between atoms: C_3  and  C_5
REMARK    3  A    between atoms: C_9  and  N_10
REMARK    4  A    between atoms: N_10  and  C_11
REMARK    5  A    between atoms: C_18  and  O_19
REMARK    6  A    between atoms: O_19  and  C_20
REMARK                            x       y       z     vdW  Elec       q    Type
REMARK                         _______ _______ _______ _____ _____    ______ ____
ROOT
ATOM      1  C   UNL     1       1.455   8.416  20.632  0.00  0.00    +0.000 A 
ATOM      2  C   UNL     1       0.998   8.682  21.918  0.00  0.00    +0.000 A 
ATOM      3  C   UNL     1       0.051   9.674  22.092  0.00  0.00    +0.000 A 
ATOM      4  N   UNL     1      -0.461  10.408  21.084  0.00  0.00    +0.000 NA
ATOM      5  C   UNL     1      -0.036  10.140  19.831  0.00  0.00    +0.000 A 
ATOM      6  N   UNL     1      -0.549  10.877  18.736  0.00  0.00    +0.000 N 
ATOM      7  C   UNL     1      -1.511  11.935  18.874  0.00  0.00    +0.000 C 
ATOM      8  C   UNL     1      -2.384  11.276  17.807  0.00  0.00    +0.000 C 
ATOM      9  C   UNL     1      -1.260  10.244  17.656  0.00  0.00    +0.000 C 
ATOM     10  C   UNL     1       0.919   9.156  19.578  0.00  0.00    +0.000 A 
ENDROOT
BRANCH   1  11
ATOM     11  N   UNL     1       2.402   7.410  20.355  0.00  0.00    +0.000 N 
ATOM     12  H   UNL     1       3.323   7.617  20.728  0.00  0.00    +0.000 HD
BRANCH  11  17
ATOM     13  C   UNL     1       2.827   4.091  18.736  0.00  0.00    +0.000 A 
ATOM     14  C   UNL     1       1.819   3.352  19.367  0.00  0.00    +0.000 A 
ATOM     15  C   UNL     1       0.979   3.967  20.290  0.00  0.00    +0.000 A 
ATOM     16  C   UNL     1       1.159   5.314  20.596  0.00  0.00    +0.000 A 
ATOM     17  C   UNL     1       2.188   6.064  20.008  0.00  0.00    +0.000 A 
ATOM     18  C   UNL     1       3.018   5.440  19.072  0.00  0.00    +0.000 A 
BRANCH  13  21
ATOM     19  C   UNL     1       5.430   3.880  16.005  0.00  0.00    +0.000 C 
ATOM     20  N   UNL     1       4.504   4.351  17.002  0.00  0.00    +0.000 N 
ATOM     21  C   UNL     1       3.720   3.474  17.724  0.00  0.00    +0.000 C 
ATOM     22  O   UNL     1       3.756   2.255  17.585  0.00  0.00    +0.000 OA
ATOM     23  H   UNL     1       4.553   5.323  17.278  0.00  0.00    +0.000 HD
ENDBRANCH  13  21
ENDBRANCH  11  17
ENDBRANCH   1  11
BRANCH   8  24
ATOM     24  O   UNL     1      -3.676  10.791  18.259  0.00  0.00    +0.000 OA
BRANCH  24  25
ATOM     25  C   UNL     1      -4.715  11.685  18.309  0.00  0.00    +0.000 A 
ATOM     26  C   UNL     1      -5.328  11.991  17.090  0.00  0.00    +0.000 A 
ATOM     27  C   UNL     1      -6.398  12.888  17.052  0.00  0.00    +0.000 A 
ATOM     28  C   UNL     1      -6.852  13.461  18.234  0.00  0.00    +0.000 A 
ATOM     29  F   UNL     1      -7.876  14.324  18.202  0.00  0.00    +0.000 F 
ATOM     30  C   UNL     1      -6.266  13.146  19.454  0.00  0.00    +0.000 A 
ATOM     31  C   UNL     1      -5.195  12.252  19.492  0.00  0.00    +0.000 A 
ENDBRANCH  24  25
ENDBRANCH   8  24
TORSDOF 5
ENDMDL
MODEL 7
REMARK VINA RESULT:      -7.9      1.659      2.246
REMARK  Name = 
REMARK  6 active torsions:
REMARK  status: ('A' for Active; 'I' for Inactive)
REMARK    1  A    between atoms: C_1  and  N_2
REMARK    2  A    between atoms: C_3  and  C_5
REMARK    3  A    between atoms: C_9  and  N_10
REMARK    4  A    between atoms: N_10  and  C_11
REMARK    5  A    between atoms: C_18  and  O_19
REMARK    6  A    between atoms: O_19  and  C_20
REMARK                            x       y       z     vdW  Elec       q    Type
REMARK                         _______ _______ _______ _____ _____    ______ ____
ROOT
ATOM      1  C   UNL     1       3.740   4.052  18.078  0.00  0.00    +0.000 A 
ATOM      2  C   UNL     1       2.616   3.342  18.486  0.00  0.00    +0.000 A 
ATOM      3  C   UNL     1       1.565   4.035  19.055  0.00  0.00    +0.000 A 
ATOM      4  N   UNL     1       1.562   5.370  19.246  0.00  0.00    +0.000 NA
ATOM      5  C   UNL     1       2.642   6.068  18.834  0.00  0.00    +0.000 A 
ATOM      6  N   UNL     1       2.685   7.473  19.004  0.00  0.00    +0.000 N 
ATOM      7  C   UNL     1       1.630   8.229  19.618  0.00  0.00    +0.000 C 
ATOM      8  C   UNL     1       1.618   9.179  18.421  0.00  0.00    +0.000 C 
ATOM      9  C   UNL     1       2.809   8.373  17.888  0.00  0.00    +0.000 C 
ATOM     10  C   UNL     1       3.741   5.437  18.253  0.00  0.00    +0.000 A 
ENDROOT
BRANCH   1  11
ATOM     11  N   UNL     1       4.849   3.435  17.468  0.00  0.00    +0.000 N 
ATOM     12  H   UNL     1       4.883   2.432  17.624  0.00  0.00    +0.000 HD
BRANCH  11  17
ATOM     13  C   UNL     1       6.165   3.976  14.034  0.00  0.00    +0.000 A 
ATOM     14  C   UNL     1       7.197   4.889  14.281  0.00  0.00    +0.000 A 
ATOM     15  C   UNL     1       7.479   5.285  15.585  0.00  0.00    +0.000 A 
ATOM     16  C   UNL     1       6.716   4.784  16.638  0.00  0.00    +0.000 A 
ATOM     17  C   UNL     1       5.651   3.901  16.411  0.00  0.00    +0.000 A 
ATOM     18  C   UNL     1       5.385   3.498  15.098  0.00  0.00    +0.000 A 
BRANCH  13  21
ATOM     19  C   UNL     1       4.091   3.085  11.004  0.00  0.00    +0.000 C 
ATOM     20  N   UNL     1       4.522   3.495  12.315  0.00  0.00    +0.000 N 
ATOM     21  C   UNL     1       5.859   3.509  12.659  0.00  0.00    +0.000 C 
ATOM     22  O   UNL     1       6.763   3.193  11.892  0.00  0.00    +0.000 OA
ATOM     23  H   UNL     1       3.842   3.925  12.928  0.00  0.00    +0.000 HD
ENDBRANCH  13  21
ENDBRANCH  11  17
ENDBRANCH   1  11
BRANCH   8  24
ATOM     24  O   UNL     1       0.404   9.177  17.624  0.00  0.00    +0.000 OA
BRANCH  24  25
ATOM     25  C   UNL     1      -0.613  10.015  18.005  0.00  0.00    +0.000 A 
ATOM     26  C   UNL     1      -1.843   9.826  17.367  0.00  0.00    +0.000 A 
ATOM     27  C   UNL     1      -2.934  10.633  17.698  0.00  0.00    +0.000 A 
ATOM     28  C   UNL     1      -2.788  11.613  18.673  0.00  0.00    +0.000 A 
ATOM     29  F   UNL     1      -3.830  12.391  18.992  0.00  0.00    +0.000 F 
ATOM     30  C   UNL     1      -1.577  11.794  19.330  0.00  0.00    +0.000 A 
ATOM     31  C   UNL     1      -0.486  10.990  18.997  0.00  0.00    +0.000 A 
ENDBRANCH  24  25
ENDBRANCH   8  24
TORSDOF 5
ENDMDL
MODEL 8
REMARK VINA RESULT:      -7.8      2.316      3.332
REMARK  Name = 
REMARK  6 active torsions:
REMARK  status: ('A' for Active; 'I' for Inactive)
REMARK    1  A    between atoms: C_1  and  N_2
REMARK    2  A    between atoms: C_3  and  C_5
REMARK    3  A    between atoms: C_9  and  N_10
REMARK    4  A    between atoms: N_10  and  C_11
REMARK    5  A    between atoms: C_18  and  O_19
REMARK    6  A    between atoms: O_19  and  C_20
REMARK                            x       y       z     vdW  Elec       q    Type
REMARK                         _______ _______ _______ _____ _____    ______ ____
ROOT
ATOM      1  C   UNL     1       2.862   4.104  18.645  0.00  0.00    +0.000 A 
ATOM      2  C   UNL     1       1.878   3.366  19.294  0.00  0.00    +0.000 A 
ATOM      3  C   UNL     1       1.054   4.012  20.196  0.00  0.00    +0.000 A 
ATOM      4  N   UNL     1       1.145   5.325  20.490  0.00  0.00    +0.000 NA
ATOM      5  C   UNL     1       2.085   6.051  19.848  0.00  0.00    +0.000 A 
ATOM      6  N   UNL     1       2.217   7.435  20.116  0.00  0.00    +0.000 N 
ATOM      7  C   UNL     1       1.402   8.139  21.066  0.00  0.00    +0.000 C 
ATOM      8  C   UNL     1       1.081   9.191  20.006  0.00  0.00    +0.000 C 
ATOM      9  C   UNL     1       2.046   8.430  19.090  0.00  0.00    +0.000 C 
ATOM     10  C   UNL     1       2.954   5.468  18.927  0.00  0.00    +0.000 A 
ENDROOT
BRANCH   1  11
ATOM     11  N   UNL     1       3.733   3.538  17.694  0.00  0.00    +0.000 N 
ATOM     12  H   UNL     1       3.333   2.739  17.213  0.00  0.00    +0.000 HD
BRANCH  11  17
ATOM     13  C   UNL     1       6.741   5.646  17.119  0.00  0.00    +0.000 A 
ATOM     14  C   UNL     1       7.136   5.212  15.848  0.00  0.00    +0.000 A 
ATOM     15  C   UNL     1       6.380   4.258  15.172  0.00  0.00    +0.000 A 
ATOM     16  C   UNL     1       5.244   3.725  15.776  0.00  0.00    +0.000 A 
ATOM     17  C   UNL     1       4.852   4.113  17.065  0.00  0.00    +0.000 A 
ATOM     18  C   UNL     1       5.610   5.082  17.730  0.00  0.00    +0.000 A 
BRANCH  13  21
ATOM     19  C   UNL     1       8.182   9.047  17.915  0.00  0.00    +0.000 C 
ATOM     20  N   UNL     1       7.497   7.945  17.291  0.00  0.00    +0.000 N 
ATOM     21  C   UNL     1       7.506   6.684  17.854  0.00  0.00    +0.000 C 
ATOM     22  O   UNL     1       8.075   6.412  18.906  0.00  0.00    +0.000 OA
ATOM     23  H   UNL     1       6.874   8.145  16.520  0.00  0.00    +0.000 HD
ENDBRANCH  13  21
ENDBRANCH  11  17
ENDBRANCH   1  11
BRANCH   8  24
ATOM     24  O   UNL     1      -0.309   9.266  19.591  0.00  0.00    +0.000 OA
BRANCH  24  25
ATOM     25  C   UNL     1      -0.961  10.464  19.748  0.00  0.00    +0.000 A 
ATOM     26  C   UNL     1      -0.674  11.176  20.916  0.00  0.00    +0.000 A 
ATOM     27  C   UNL     1      -1.290  12.408  21.152  0.00  0.00    +0.000 A 
ATOM     28  C   UNL     1      -2.177  12.920  20.213  0.00  0.00    +0.000 A 
ATOM     29  F   UNL     1      -2.771  14.098  20.436  0.00  0.00    +0.000 F 
ATOM     30  C   UNL     1      -2.451  12.231  19.038  0.00  0.00    +0.000 A 
ATOM     31  C   UNL     1      -1.839  10.999  18.803  0.00  0.00    +0.000 A 
ENDBRANCH  24  25
ENDBRANCH   8  24
TORSDOF 5
ENDMDL
MODEL 9
REMARK VINA RESULT:      -7.7      2.120      3.929
REMARK  Name = 
REMARK  6 active torsions:
REMARK  status: ('A' for Active; 'I' for Inactive)
REMARK    1  A    between atoms: C_1  and  N_2
REMARK    2  A    between atoms: C_3  and  C_5
REMARK    3  A    between atoms: C_9  and  N_10
REMARK    4  A    between atoms: N_10  and  C_11
REMARK    5  A    between atoms: C_18  and  O_19
REMARK    6  A    between atoms: O_19  and  C_20
REMARK                            x       y       z     vdW  Elec       q    Type
REMARK                         _______ _______ _______ _____ _____    ______ ____
ROOT
ATOM      1  C   UNL     1       1.117   8.654  21.172  0.00  0.00    +0.000 A 
ATOM      2  C   UNL     1       0.559   9.098  22.365  0.00  0.00    +0.000 A 
ATOM      3  C   UNL     1      -0.376  10.115  22.321  0.00  0.00    +0.000 A 
ATOM      4  N   UNL     1      -0.783  10.712  21.182  0.00  0.00    +0.000 NA
ATOM      5  C   UNL     1      -0.258  10.272  20.018  0.00  0.00    +0.000 A 
ATOM      6  N   UNL     1      -0.658  10.860  18.794  0.00  0.00    +0.000 N 
ATOM      7  C   UNL     1      -1.602  11.938  18.704  0.00  0.00    +0.000 C 
ATOM      8  C   UNL     1      -2.396  11.152  17.662  0.00  0.00    +0.000 C 
ATOM      9  C   UNL     1      -1.288  10.095  17.750  0.00  0.00    +0.000 C 
ATOM     10  C   UNL     1       0.691   9.251  19.985  0.00  0.00    +0.000 A 
ENDROOT
BRANCH   1  11
ATOM     11  N   UNL     1       2.060   7.609  21.116  0.00  0.00    +0.000 N 
ATOM     12  H   UNL     1       2.581   7.497  21.980  0.00  0.00    +0.000 HD
BRANCH  11  17
ATOM     13  C   UNL     1       3.115   5.386  18.330  0.00  0.00    +0.000 A 
ATOM     14  C   UNL     1       2.279   4.281  18.535  0.00  0.00    +0.000 A 
ATOM     15  C   UNL     1       1.344   4.297  19.566  0.00  0.00    +0.000 A 
ATOM     16  C   UNL     1       1.258   5.409  20.401  0.00  0.00    +0.000 A 
ATOM     17  C   UNL     1       2.112   6.509  20.241  0.00  0.00    +0.000 A 
ATOM     18  C   UNL     1       3.040   6.489  19.195  0.00  0.00    +0.000 A 
BRANCH  13  21
ATOM     19  C   UNL     1       5.509   4.066  15.722  0.00  0.00    +0.000 C 
ATOM     20  N   UNL     1       4.566   4.181  16.804  0.00  0.00    +0.000 N 
ATOM     21  C   UNL     1       4.102   5.413  17.222  0.00  0.00    +0.000 C 
ATOM     22  O   UNL     1       4.439   6.477  16.713  0.00  0.00    +0.000 OA
ATOM     23  H   UNL     1       4.125   3.337  17.146  0.00  0.00    +0.000 HD
ENDBRANCH  13  21
ENDBRANCH  11  17
ENDBRANCH   1  11
BRANCH   8  24
ATOM     24  O   UNL     1      -3.733  10.747  18.059  0.00  0.00    +0.000 OA
BRANCH  24  25
ATOM     25  C   UNL     1      -4.688  11.725  18.185  0.00  0.00    +0.000 A 
ATOM     26  C   UNL     1      -5.380  12.068  17.020  0.00  0.00    +0.000 A 
ATOM     27  C   UNL     1      -6.372  13.050  17.060  0.00  0.00    +0.000 A 
ATOM     28  C   UNL     1      -6.672  13.670  18.268  0.00  0.00    +0.000 A 
ATOM     29  F   UNL     1      -7.620  14.614  18.310  0.00  0.00    +0.000 F 
ATOM     30  C   UNL     1      -6.007  13.320  19.436  0.00  0.00    +0.000 A 
ATOM     31  C   UNL     1      -5.012  12.341  19.395  0.00  0.00    +0.000 A 
ENDBRANCH  24  25
ENDBRANCH   8  24
TORSDOF 5
ENDMDL
