MODEL 1
REMARK VINA RESULT:      -7.2      0.000      0.000
REMARK  Name = 
REMARK  3 active torsions:
REMARK  status: ('A' for Active; 'I' for Inactive)
REMARK    1  A    between atoms: S_2  and  C_4
REMARK    2  A    between atoms: S_2  and  C_11
REMARK    3  A    between atoms: C_4  and  C_5
REMARK                            x       y       z     vdW  Elec       q    Type
REMARK                         _______ _______ _______ _____ _____    ______ ____
ROOT
ATOM      1  O   UNL     1       6.641   5.415  19.733  0.00  0.00    +0.000 OA
ATOM      2  S   UNL     1       5.481   4.734  19.185  0.00  0.00    +0.000 S 
ATOM      3  O   UNL     1       5.253   3.321  19.441  0.00  0.00    +0.000 OA
ENDROOT
BRANCH   2   4
ATOM      4  C   UNL     1       5.587   4.920  17.411  0.00  0.00    +0.000 A 
ATOM      5  C   UNL     1       5.180   6.122  16.825  0.00  0.00    +0.000 A 
ATOM      6  C   UNL     1       5.258   6.275  15.440  0.00  0.00    +0.000 A 
ATOM      7  C   UNL     1       5.752   5.236  14.651  0.00  0.00    +0.000 A 
ATOM      8  C   UNL     1       6.189   4.049  15.245  0.00  0.00    +0.000 A 
ATOM      9  C   UNL     1       6.116   3.889  16.630  0.00  0.00    +0.000 A 
ENDBRANCH   2   4
BRANCH   2  10
ATOM     10  C   UNL     1       3.993   5.654  19.585  0.00  0.00    +0.000 C 
BRANCH  10  11
ATOM     11  C   UNL     1       2.812   4.719  19.581  0.00  0.00    +0.000 A 
ATOM     12  C   UNL     1       2.276   4.249  20.790  0.00  0.00    +0.000 A 
ATOM     13  C   UNL     1       1.214   3.342  20.794  0.00  0.00    +0.000 A 
ATOM     14  C   UNL     1       0.673   2.898  19.590  0.00  0.00    +0.000 A 
ATOM     15  C   UNL     1       1.184   3.367  18.383  0.00  0.00    +0.000 A 
ATOM     16  C   UNL     1       2.246   4.275  18.376  0.00  0.00    +0.000 A 
ENDBRANCH  10  11
ENDBRANCH   2  10
TORSDOF 3
ENDMDL
MODEL 2
REMARK VINA RESULT:      -7.1      0.426      1.696
REMARK  Name = 
REMARK  3 active torsions:
REMARK  status: ('A' for Active; 'I' for Inactive)
REMARK    1  A    between atoms: S_2  and  C_4
REMARK    2  A    between atoms: S_2  and  C_11
REMARK    3  A    between atoms: C_4  and  C_5
REMARK                            x       y       z     vdW  Elec       q    Type
REMARK                         _______ _______ _______ _____ _____    ______ ____
ROOT
ATOM      1  O   UNL     1       6.642   5.459  19.841  0.00  0.00    +0.000 OA
ATOM      2  S   UNL     1       5.551   4.773  19.170  0.00  0.00    +0.000 S 
ATOM      3  O   UNL     1       5.310   3.357  19.390  0.00  0.00    +0.000 OA
ENDROOT
BRANCH   2   4
ATOM      4  C   UNL     1       5.839   4.976  17.418  0.00  0.00    +0.000 A 
ATOM      5  C   UNL     1       6.918   4.317  16.822  0.00  0.00    +0.000 A 
ATOM      6  C   UNL     1       7.151   4.472  15.455  0.00  0.00    +0.000 A 
ATOM      7  C   UNL     1       6.301   5.270  14.690  0.00  0.00    +0.000 A 
ATOM      8  C   UNL     1       5.204   5.901  15.283  0.00  0.00    +0.000 A 
ATOM      9  C   UNL     1       4.963   5.750  16.650  0.00  0.00    +0.000 A 
ENDBRANCH   2   4
BRANCH   2  10
ATOM     10  C   UNL     1       4.021   5.678  19.420  0.00  0.00    +0.000 C 
BRANCH  10  11
ATOM     11  C   UNL     1       2.877   4.704  19.531  0.00  0.00    +0.000 A 
ATOM     12  C   UNL     1       2.280   4.177  18.376  0.00  0.00    +0.000 A 
ATOM     13  C   UNL     1       1.185   3.313  18.470  0.00  0.00    +0.000 A 
ATOM     14  C   UNL     1       0.679   2.964  19.719  0.00  0.00    +0.000 A 
ATOM     15  C   UNL     1       1.271   3.467  20.875  0.00  0.00    +0.000 A 
ATOM     16  C   UNL     1       2.366   4.330  20.784  0.00  0.00    +0.000 A 
ENDBRANCH  10  11
ENDBRANCH   2  10
TORSDOF 3
ENDMDL
MODEL 3
REMARK VINA RESULT:      -7.1      0.870      1.045
REMARK  Name = 
REMARK  3 active torsions:
REMARK  status: ('A' for Active; 'I' for Inactive)
REMARK    1  A    between atoms: S_2  and  C_4
REMARK    2  A    between atoms: S_2  and  C_11
REMARK    3  A    between atoms: C_4  and  C_5
REMARK                            x       y       z     vdW  Elec       q    Type
REMARK                         _______ _______ _______ _____ _____    ______ ____
ROOT
ATOM      1  O   UNL     1       6.614   5.344  19.766  0.00  0.00    +0.000 OA
ATOM      2  S   UNL     1       5.530   4.639  19.104  0.00  0.00    +0.000 S 
ATOM      3  O   UNL     1       5.194   3.273  19.470  0.00  0.00    +0.000 OA
ENDROOT
BRANCH   2   4
ATOM      4  C   UNL     1       5.942   4.615  17.365  0.00  0.00    +0.000 A 
ATOM      5  C   UNL     1       5.048   4.035  16.459  0.00  0.00    +0.000 A 
ATOM      6  C   UNL     1       5.363   4.010  15.100  0.00  0.00    +0.000 A 
ATOM      7  C   UNL     1       6.557   4.574  14.651  0.00  0.00    +0.000 A 
ATOM      8  C   UNL     1       7.432   5.182  15.556  0.00  0.00    +0.000 A 
ATOM      9  C   UNL     1       7.124   5.212  16.917  0.00  0.00    +0.000 A 
ENDBRANCH   2   4
BRANCH   2  10
ATOM     10  C   UNL     1       4.043   5.642  19.138  0.00  0.00    +0.000 C 
BRANCH  10  11
ATOM     11  C   UNL     1       2.848   4.756  19.375  0.00  0.00    +0.000 A 
ATOM     12  C   UNL     1       2.395   4.510  20.680  0.00  0.00    +0.000 A 
ATOM     13  C   UNL     1       1.319   3.649  20.910  0.00  0.00    +0.000 A 
ATOM     14  C   UNL     1       0.683   3.027  19.840  0.00  0.00    +0.000 A 
ATOM     15  C   UNL     1       1.111   3.274  18.538  0.00  0.00    +0.000 A 
ATOM     16  C   UNL     1       2.186   4.135  18.304  0.00  0.00    +0.000 A 
ENDBRANCH  10  11
ENDBRANCH   2  10
TORSDOF 3
ENDMDL
MODEL 4
REMARK VINA RESULT:      -7.1      0.114      1.212
REMARK  Name = 
REMARK  3 active torsions:
REMARK  status: ('A' for Active; 'I' for Inactive)
REMARK    1  A    between atoms: S_2  and  C_4
REMARK    2  A    between atoms: S_2  and  C_11
REMARK    3  A    between atoms: C_4  and  C_5
REMARK                            x       y       z     vdW  Elec       q    Type
REMARK                         _______ _______ _______ _____ _____    ______ ____
ROOT
ATOM      1  O   UNL     1       6.584   5.592  19.677  0.00  0.00    +0.000 OA
ATOM      2  S   UNL     1       5.470   4.812  19.166  0.00  0.00    +0.000 S 
ATOM      3  O   UNL     1       5.342   3.398  19.477  0.00  0.00    +0.000 OA
ENDROOT
BRANCH   2   4
ATOM      4  C   UNL     1       5.552   4.937  17.385  0.00  0.00    +0.000 A 
ATOM      5  C   UNL     1       5.241   6.153  16.770  0.00  0.00    +0.000 A 
ATOM      6  C   UNL     1       5.300   6.259  15.380  0.00  0.00    +0.000 A 
ATOM      7  C   UNL     1       5.681   5.156  14.614  0.00  0.00    +0.000 A 
ATOM      8  C   UNL     1       6.022   3.952  15.235  0.00  0.00    +0.000 A 
ATOM      9  C   UNL     1       5.967   3.840  16.625  0.00  0.00    +0.000 A 
ENDBRANCH   2   4
BRANCH   2  10
ATOM     10  C   UNL     1       3.925   5.642  19.543  0.00  0.00    +0.000 C 
BRANCH  10  11
ATOM     11  C   UNL     1       2.807   4.632  19.563  0.00  0.00    +0.000 A 
ATOM     12  C   UNL     1       2.261   4.155  18.362  0.00  0.00    +0.000 A 
ATOM     13  C   UNL     1       1.190   3.258  18.372  0.00  0.00    +0.000 A 
ATOM     14  C   UNL     1       0.656   2.825  19.583  0.00  0.00    +0.000 A 
ATOM     15  C   UNL     1       1.198   3.278  20.783  0.00  0.00    +0.000 A 
ATOM     16  C   UNL     1       2.269   4.175  20.776  0.00  0.00    +0.000 A 
ENDBRANCH  10  11
ENDBRANCH   2  10
TORSDOF 3
ENDMDL
MODEL 5
REMARK VINA RESULT:      -7.0      0.700      1.102
REMARK  Name = 
REMARK  3 active torsions:
REMARK  status: ('A' for Active; 'I' for Inactive)
REMARK    1  A    between atoms: S_2  and  C_4
REMARK    2  A    between atoms: S_2  and  C_11
REMARK    3  A    between atoms: C_4  and  C_5
REMARK                            x       y       z     vdW  Elec       q    Type
REMARK                         _______ _______ _______ _____ _____    ______ ____
ROOT
ATOM      1  O   UNL     1       6.528   5.411  19.798  0.00  0.00    +0.000 OA
ATOM      2  S   UNL     1       5.464   4.698  19.113  0.00  0.00    +0.000 S 
ATOM      3  O   UNL     1       5.172   3.309  19.427  0.00  0.00    +0.000 OA
ENDROOT
BRANCH   2   4
ATOM      4  C   UNL     1       5.867   4.755  17.373  0.00  0.00    +0.000 A 
ATOM      5  C   UNL     1       7.206   4.677  16.979  0.00  0.00    +0.000 A 
ATOM      6  C   UNL     1       7.529   4.722  15.623  0.00  0.00    +0.000 A 
ATOM      7  C   UNL     1       6.517   4.831  14.669  0.00  0.00    +0.000 A 
ATOM      8  C   UNL     1       5.179   4.875  15.066  0.00  0.00    +0.000 A 
ATOM      9  C   UNL     1       4.847   4.829  16.421  0.00  0.00    +0.000 A 
ENDBRANCH   2   4
BRANCH   2  10
ATOM     10  C   UNL     1       3.946   5.653  19.192  0.00  0.00    +0.000 C 
BRANCH  10  11
ATOM     11  C   UNL     1       2.782   4.723  19.416  0.00  0.00    +0.000 A 
ATOM     12  C   UNL     1       2.369   4.405  20.719  0.00  0.00    +0.000 A 
ATOM     13  C   UNL     1       1.325   3.503  20.936  0.00  0.00    +0.000 A 
ATOM     14  C   UNL     1       0.678   2.913  19.853  0.00  0.00    +0.000 A 
ATOM     15  C   UNL     1       1.066   3.231  18.554  0.00  0.00    +0.000 A 
ATOM     16  C   UNL     1       2.111   4.133  18.334  0.00  0.00    +0.000 A 
ENDBRANCH  10  11
ENDBRANCH   2  10
TORSDOF 3
ENDMDL
MODEL 6
REMARK VINA RESULT:      -6.9      1.899      2.734
REMARK  Name = 
REMARK  3 active torsions:
REMARK  status: ('A' for Active; 'I' for Inactive)
REMARK    1  A    between atoms: S_2  and  C_4
REMARK    2  A    between atoms: S_2  and  C_11
REMARK    3  A    between atoms: C_4  and  C_5
REMARK                            x       y       z     vdW  Elec       q    Type
REMARK                         _______ _______ _______ _____ _____    ______ ____
ROOT
ATOM      1  O   UNL     1       4.757   3.246  18.154  0.00  0.00    +0.000 OA
ATOM      2  S   UNL     1       4.637   4.407  17.290  0.00  0.00    +0.000 S 
ATOM      3  O   UNL     1       4.677   4.270  15.844  0.00  0.00    +0.000 OA
ENDROOT
BRANCH   2   4
ATOM      4  C   UNL     1       5.978   5.501  17.737  0.00  0.00    +0.000 A 
ATOM      5  C   UNL     1       6.833   5.142  18.782  0.00  0.00    +0.000 A 
ATOM      6  C   UNL     1       7.881   5.991  19.139  0.00  0.00    +0.000 A 
ATOM      7  C   UNL     1       8.078   7.184  18.442  0.00  0.00    +0.000 A 
ATOM      8  C   UNL     1       7.241   7.523  17.377  0.00  0.00    +0.000 A 
ATOM      9  C   UNL     1       6.191   6.678  17.013  0.00  0.00    +0.000 A 
ENDBRANCH   2   4
BRANCH   2  10
ATOM     10  C   UNL     1       3.188   5.359  17.753  0.00  0.00    +0.000 C 
BRANCH  10  11
ATOM     11  C   UNL     1       2.448   4.641  18.851  0.00  0.00    +0.000 A 
ATOM     12  C   UNL     1       2.763   4.886  20.197  0.00  0.00    +0.000 A 
ATOM     13  C   UNL     1       2.118   4.186  21.219  0.00  0.00    +0.000 A 
ATOM     14  C   UNL     1       1.148   3.237  20.909  0.00  0.00    +0.000 A 
ATOM     15  C   UNL     1       0.813   2.994  19.579  0.00  0.00    +0.000 A 
ATOM     16  C   UNL     1       1.457   3.692  18.554  0.00  0.00    +0.000 A 
ENDBRANCH  10  11
ENDBRANCH   2  10
TORSDOF 3
ENDMDL
MODEL 7
REMARK VINA RESULT:      -6.8      1.906      2.521
REMARK  Name = 
REMARK  3 active torsions:
REMARK  status: ('A' for Active; 'I' for Inactive)
REMARK    1  A    between atoms: S_2  and  C_4
REMARK    2  A    between atoms: S_2  and  C_11
REMARK    3  A    between atoms: C_4  and  C_5
REMARK                            x       y       z     vdW  Elec       q    Type
REMARK                         _______ _______ _______ _____ _____    ______ ____
ROOT
ATOM      1  O   UNL     1       4.865   3.349  18.309  0.00  0.00    +0.000 OA
ATOM      2  S   UNL     1       4.730   4.454  17.376  0.00  0.00    +0.000 S 
ATOM      3  O   UNL     1       4.780   4.230  15.941  0.00  0.00    +0.000 OA
ENDROOT
BRANCH   2   4
ATOM      4  C   UNL     1       6.050   5.595  17.761  0.00  0.00    +0.000 A 
ATOM      5  C   UNL     1       6.121   6.813  17.078  0.00  0.00    +0.000 A 
ATOM      6  C   UNL     1       7.150   7.709  17.372  0.00  0.00    +0.000 A 
ATOM      7  C   UNL     1       8.091   7.392  18.351  0.00  0.00    +0.000 A 
ATOM      8  C   UNL     1       7.997   6.188  19.054  0.00  0.00    +0.000 A 
ATOM      9  C   UNL     1       6.970   5.287  18.767  0.00  0.00    +0.000 A 
ENDBRANCH   2   4
BRANCH   2  10
ATOM     10  C   UNL     1       3.263   5.408  17.774  0.00  0.00    +0.000 C 
BRANCH  10  11
ATOM     11  C   UNL     1       2.425   4.644  18.767  0.00  0.00    +0.000 A 
ATOM     12  C   UNL     1       2.547   4.898  20.142  0.00  0.00    +0.000 A 
ATOM     13  C   UNL     1       1.812   4.159  21.071  0.00  0.00    +0.000 A 
ATOM     14  C   UNL     1       0.944   3.161  20.638  0.00  0.00    +0.000 A 
ATOM     15  C   UNL     1       0.800   2.908  19.276  0.00  0.00    +0.000 A 
ATOM     16  C   UNL     1       1.534   3.646  18.343  0.00  0.00    +0.000 A 
ENDBRANCH  10  11
ENDBRANCH   2  10
TORSDOF 3
ENDMDL
MODEL 8
REMARK VINA RESULT:      -6.8      1.107      1.743
REMARK  Name = 
REMARK  3 active torsions:
REMARK  status: ('A' for Active; 'I' for Inactive)
REMARK    1  A    between atoms: S_2  and  C_4
REMARK    2  A    between atoms: S_2  and  C_11
REMARK    3  A    between atoms: C_4  and  C_5
REMARK                            x       y       z     vdW  Elec       q    Type
REMARK                         _______ _______ _______ _____ _____    ______ ____
ROOT
ATOM      1  O   UNL     1       4.094   5.840  19.506  0.00  0.00    +0.000 OA
ATOM      2  S   UNL     1       5.228   4.988  19.193  0.00  0.00    +0.000 S 
ATOM      3  O   UNL     1       6.541   5.253  19.756  0.00  0.00    +0.000 OA
ENDROOT
BRANCH   2   4
ATOM      4  C   UNL     1       5.415   5.041  17.416  0.00  0.00    +0.000 A 
ATOM      5  C   UNL     1       5.814   3.886  16.736  0.00  0.00    +0.000 A 
ATOM      6  C   UNL     1       5.964   3.920  15.350  0.00  0.00    +0.000 A 
ATOM      7  C   UNL     1       5.704   5.098  14.649  0.00  0.00    +0.000 A 
ATOM      8  C   UNL     1       5.274   6.240  15.329  0.00  0.00    +0.000 A 
ATOM      9  C   UNL     1       5.120   6.214  16.717  0.00  0.00    +0.000 A 
ENDBRANCH   2   4
BRANCH   2  10
ATOM     10  C   UNL     1       4.795   3.271  19.487  0.00  0.00    +0.000 C 
BRANCH  10  11
ATOM     11  C   UNL     1       3.297   3.145  19.594  0.00  0.00    +0.000 A 
ATOM     12  C   UNL     1       2.675   3.129  20.852  0.00  0.00    +0.000 A 
ATOM     13  C   UNL     1       1.293   2.961  20.961  0.00  0.00    +0.000 A 
ATOM     14  C   UNL     1       0.517   2.811  19.815  0.00  0.00    +0.000 A 
ATOM     15  C   UNL     1       1.118   2.840  18.560  0.00  0.00    +0.000 A 
ATOM     16  C   UNL     1       2.501   3.008  18.447  0.00  0.00    +0.000 A 
ENDBRANCH  10  11
ENDBRANCH   2  10
TORSDOF 3
ENDMDL
MODEL 9
REMARK VINA RESULT:      -6.8      1.921      2.675
REMARK  Name = 
REMARK  3 active torsions:
REMARK  status: ('A' for Active; 'I' for Inactive)
REMARK    1  A    between atoms: S_2  and  C_4
REMARK    2  A    between atoms: S_2  and  C_11
REMARK    3  A    between atoms: C_4  and  C_5
REMARK                            x       y       z     vdW  Elec       q    Type
REMARK                         _______ _______ _______ _____ _____    ______ ____
ROOT
ATOM      1  O   UNL     1       5.253   3.606  19.038  0.00  0.00    +0.000 OA
ATOM      2  S   UNL     1       5.134   4.376  17.813  0.00  0.00    +0.000 S 
ATOM      3  O   UNL     1       5.352   3.757  16.516  0.00  0.00    +0.000 OA
ENDROOT
BRANCH   2   4
ATOM      4  C   UNL     1       6.317   5.709  17.947  0.00  0.00    +0.000 A 
ATOM      5  C   UNL     1       6.172   6.836  17.132  0.00  0.00    +0.000 A 
ATOM      6  C   UNL     1       7.092   7.880  17.229  0.00  0.00    +0.000 A 
ATOM      7  C   UNL     1       8.142   7.801  18.145  0.00  0.00    +0.000 A 
ATOM      8  C   UNL     1       8.264   6.688  18.980  0.00  0.00    +0.000 A 
ATOM      9  C   UNL     1       7.346   5.640  18.890  0.00  0.00    +0.000 A 
ENDBRANCH   2   4
BRANCH   2  10
ATOM     10  C   UNL     1       3.566   5.248  17.795  0.00  0.00    +0.000 C 
BRANCH  10  11
ATOM     11  C   UNL     1       2.550   4.465  18.585  0.00  0.00    +0.000 A 
ATOM     12  C   UNL     1       1.948   3.324  18.032  0.00  0.00    +0.000 A 
ATOM     13  C   UNL     1       0.967   2.623  18.738  0.00  0.00    +0.000 A 
ATOM     14  C   UNL     1       0.581   3.051  20.005  0.00  0.00    +0.000 A 
ATOM     15  C   UNL     1       1.181   4.172  20.573  0.00  0.00    +0.000 A 
ATOM     16  C   UNL     1       2.162   4.875  19.870  0.00  0.00    +0.000 A 
ENDBRANCH  10  11
ENDBRANCH   2  10
TORSDOF 3
ENDMDL
