MODEL 1
REMARK VINA RESULT:      -7.6      0.000      0.000
REMARK  Name = 
REMARK  5 active torsions:
REMARK  status: ('A' for Active; 'I' for Inactive)
REMARK    1  A    between atoms: C_4  and  C_5
REMARK    2  A    between atoms: C_5  and  N_6
REMARK    3  A    between atoms: C_9  and  N_10
REMARK    4  A    between atoms: C_16  and  C_17
REMARK    5  A    between atoms: C_24  and  C_25
REMARK                            x       y       z     vdW  Elec       q    Type
REMARK                         _______ _______ _______ _____ _____    ______ ____
ROOT
ATOM      1  N   UNL     1      -1.633  11.821  19.433  0.00  0.00    +0.000 NA
ATOM      2  C   UNL     1      -0.804  12.917  18.842  0.00  0.00    +0.000 C 
ATOM      3  C   UNL     1       0.247  13.903  19.692  0.00  0.00    +0.000 C 
ATOM      4  C   UNL     1       0.524  13.720  21.280  0.00  0.00    +0.000 C 
ATOM      5  C   UNL     1       1.168  12.331  21.334  0.00  0.00    +0.000 C 
ATOM      6  C   UNL     1       0.203  11.206  21.062  0.00  0.00    +0.000 C 
ATOM      7  C   UNL     1      -1.326  11.660  20.841  0.00  0.00    +0.000 C 
ATOM      8  C   UNL     1      -1.907  13.012  21.459  0.00  0.00    +0.000 C 
ATOM      9  C   UNL     1      -0.796  13.835  22.053  0.00  0.00    +0.000 C 
ENDROOT
BRANCH   6  10
ATOM     10  C   UNL     1       0.945  10.172  20.149  0.00  0.00    +0.000 A 
ATOM     11  C   UNL     1       1.162   8.889  20.658  0.00  0.00    +0.000 A 
ATOM     12  C   UNL     1       1.714   7.872  19.864  0.00  0.00    +0.000 A 
ATOM     13  C   UNL     1       2.046   8.095  18.537  0.00  0.00    +0.000 A 
ATOM     14  C   UNL     1       1.930   9.367  18.028  0.00  0.00    +0.000 A 
ATOM     15  C   UNL     1       1.433  10.406  18.836  0.00  0.00    +0.000 A 
ENDBRANCH   6  10
BRANCH   8  16
ATOM     16  C   UNL     1      -3.169  12.886  22.320  0.00  0.00    +0.000 A 
ATOM     17  C   UNL     1      -4.472  13.076  21.839  0.00  0.00    +0.000 A 
ATOM     18  C   UNL     1      -5.571  13.016  22.704  0.00  0.00    +0.000 A 
ATOM     19  C   UNL     1      -5.391  12.733  24.056  0.00  0.00    +0.000 A 
ATOM     20  C   UNL     1      -4.124  12.418  24.522  0.00  0.00    +0.000 A 
ATOM     21  C   UNL     1      -3.038  12.459  23.649  0.00  0.00    +0.000 A 
ENDBRANCH   8  16
BRANCH   4  22
ATOM     22  N   UNL     1       1.549  14.580  21.983  0.00  0.00    +0.000 NA
ATOM     23  C   UNL     1       1.056  15.925  22.411  0.00  0.00    +0.000 C 
ATOM     24  C   UNL     1       1.559  16.951  21.403  0.00  0.00    +0.000 C 
ATOM     25  C   UNL     1       2.852  16.347  20.908  0.00  0.00    +0.000 C 
ATOM     26  C   UNL     1       2.821  14.867  21.312  0.00  0.00    +0.000 C 
ENDBRANCH   4  22
BRANCH   1  27
ATOM     27  C   UNL     1      -1.835  10.500  18.784  0.00  0.00    +0.000 C 
BRANCH  27  31
ATOM     28  C   UNL     1      -3.898  10.597  14.918  0.00  0.00    +0.000 A 
ATOM     29  C   UNL     1      -4.413  11.282  16.019  0.00  0.00    +0.000 A 
ATOM     30  C   UNL     1      -3.765  11.226  17.263  0.00  0.00    +0.000 A 
ATOM     31  C   UNL     1      -2.599  10.477  17.442  0.00  0.00    +0.000 A 
ATOM     32  C   UNL     1      -2.107   9.763  16.321  0.00  0.00    +0.000 A 
ATOM     33  C   UNL     1      -2.745   9.832  15.071  0.00  0.00    +0.000 A 
ENDBRANCH  27  31
ENDBRANCH   1  27
TORSDOF 5
ENDMDL
MODEL 2
REMARK VINA RESULT:      -7.6      1.665      2.427
REMARK  Name = 
REMARK  5 active torsions:
REMARK  status: ('A' for Active; 'I' for Inactive)
REMARK    1  A    between atoms: C_4  and  C_5
REMARK    2  A    between atoms: C_5  and  N_6
REMARK    3  A    between atoms: C_9  and  N_10
REMARK    4  A    between atoms: C_16  and  C_17
REMARK    5  A    between atoms: C_24  and  C_25
REMARK                            x       y       z     vdW  Elec       q    Type
REMARK                         _______ _______ _______ _____ _____    ______ ____
ROOT
ATOM      1  N   UNL     1      -1.291  12.817  19.981  0.00  0.00    +0.000 NA
ATOM      2  C   UNL     1      -0.775  13.608  18.822  0.00  0.00    +0.000 C 
ATOM      3  C   UNL     1       0.602  14.556  18.832  0.00  0.00    +0.000 C 
ATOM      4  C   UNL     1       1.578  14.664  20.124  0.00  0.00    +0.000 C 
ATOM      5  C   UNL     1       2.096  13.229  20.254  0.00  0.00    +0.000 C 
ATOM      6  C   UNL     1       1.056  12.252  20.739  0.00  0.00    +0.000 C 
ATOM      7  C   UNL     1      -0.372  12.903  21.099  0.00  0.00    +0.000 C 
ATOM      8  C   UNL     1      -0.524  14.432  21.530  0.00  0.00    +0.000 C 
ATOM      9  C   UNL     1       0.780  15.161  21.336  0.00  0.00    +0.000 C 
ENDROOT
BRANCH   6  10
ATOM     10  C   UNL     1       1.228  10.939  19.902  0.00  0.00    +0.000 A 
ATOM     11  C   UNL     1       1.658  11.061  18.578  0.00  0.00    +0.000 A 
ATOM     12  C   UNL     1       1.947   9.930  17.798  0.00  0.00    +0.000 A 
ATOM     13  C   UNL     1       1.839   8.651  18.317  0.00  0.00    +0.000 A 
ATOM     14  C   UNL     1       1.335   8.488  19.587  0.00  0.00    +0.000 A 
ATOM     15  C   UNL     1       0.986   9.615  20.354  0.00  0.00    +0.000 A 
ENDBRANCH   6  10
BRANCH   8  16
ATOM     16  C   UNL     1      -1.243  14.705  22.855  0.00  0.00    +0.000 A 
ATOM     17  C   UNL     1      -0.766  15.578  23.843  0.00  0.00    +0.000 A 
ATOM     18  C   UNL     1      -1.443  15.721  25.061  0.00  0.00    +0.000 A 
ATOM     19  C   UNL     1      -2.622  15.019  25.299  0.00  0.00    +0.000 A 
ATOM     20  C   UNL     1      -3.174  14.250  24.284  0.00  0.00    +0.000 A 
ATOM     21  C   UNL     1      -2.504  14.132  23.068  0.00  0.00    +0.000 A 
ENDBRANCH   8  16
BRANCH   4  22
ATOM     22  N   UNL     1       2.858  15.465  20.053  0.00  0.00    +0.000 NA
ATOM     23  C   UNL     1       2.820  16.630  19.117  0.00  0.00    +0.000 C 
ATOM     24  C   UNL     1       3.541  16.227  17.837  0.00  0.00    +0.000 C 
ATOM     25  C   UNL     1       4.557  15.216  18.313  0.00  0.00    +0.000 C 
ATOM     26  C   UNL     1       4.110  14.781  19.716  0.00  0.00    +0.000 C 
ENDBRANCH   4  22
BRANCH   1  27
ATOM     27  C   UNL     1      -1.845  11.443  19.860  0.00  0.00    +0.000 C 
BRANCH  27  31
ATOM     28  C   UNL     1      -3.467  10.453  15.910  0.00  0.00    +0.000 A 
ATOM     29  C   UNL     1      -4.169  11.288  16.780  0.00  0.00    +0.000 A 
ATOM     30  C   UNL     1      -3.659  11.580  18.055  0.00  0.00    +0.000 A 
ATOM     31  C   UNL     1      -2.450  11.038  18.497  0.00  0.00    +0.000 A 
ATOM     32  C   UNL     1      -1.766  10.167  17.612  0.00  0.00    +0.000 A 
ATOM     33  C   UNL     1      -2.266   9.888  16.329  0.00  0.00    +0.000 A 
ENDBRANCH  27  31
ENDBRANCH   1  27
TORSDOF 5
ENDMDL
MODEL 3
REMARK VINA RESULT:      -7.6      1.011      1.475
REMARK  Name = 
REMARK  5 active torsions:
REMARK  status: ('A' for Active; 'I' for Inactive)
REMARK    1  A    between atoms: C_4  and  C_5
REMARK    2  A    between atoms: C_5  and  N_6
REMARK    3  A    between atoms: C_9  and  N_10
REMARK    4  A    between atoms: C_16  and  C_17
REMARK    5  A    between atoms: C_24  and  C_25
REMARK                            x       y       z     vdW  Elec       q    Type
REMARK                         _______ _______ _______ _____ _____    ______ ____
ROOT
ATOM      1  N   UNL     1      -1.449  12.161  19.624  0.00  0.00    +0.000 NA
ATOM      2  C   UNL     1      -0.754  13.104  18.695  0.00  0.00    +0.000 C 
ATOM      3  C   UNL     1       0.534  14.091  19.100  0.00  0.00    +0.000 C 
ATOM      4  C   UNL     1       1.215  14.076  20.573  0.00  0.00    +0.000 C 
ATOM      5  C   UNL     1       1.779  12.654  20.650  0.00  0.00    +0.000 C 
ATOM      6  C   UNL     1       0.721  11.591  20.793  0.00  0.00    +0.000 C 
ATOM      7  C   UNL     1      -0.787  12.144  20.913  0.00  0.00    +0.000 C 
ATOM      8  C   UNL     1      -1.113  13.604  21.469  0.00  0.00    +0.000 C 
ATOM      9  C   UNL     1       0.157  14.395  21.636  0.00  0.00    +0.000 C 
ENDROOT
BRANCH   6  10
ATOM     10  C   UNL     1       1.139  10.395  19.871  0.00  0.00    +0.000 A 
ATOM     11  C   UNL     1       1.554  10.689  18.570  0.00  0.00    +0.000 A 
ATOM     12  C   UNL     1       2.053   9.689  17.720  0.00  0.00    +0.000 A 
ATOM     13  C   UNL     1       2.174   8.376  18.146  0.00  0.00    +0.000 A 
ATOM     14  C   UNL     1       1.693   8.033  19.388  0.00  0.00    +0.000 A 
ATOM     15  C   UNL     1       1.136   9.019  20.224  0.00  0.00    +0.000 A 
ENDBRANCH   6  10
BRANCH   8  16
ATOM     16  C   UNL     1      -2.104  13.690  22.635  0.00  0.00    +0.000 A 
ATOM     17  C   UNL     1      -2.354  14.857  23.370  0.00  0.00    +0.000 A 
ATOM     18  C   UNL     1      -3.221  14.840  24.469  0.00  0.00    +0.000 A 
ATOM     19  C   UNL     1      -3.876  13.666  24.833  0.00  0.00    +0.000 A 
ATOM     20  C   UNL     1      -3.738  12.536  24.040  0.00  0.00    +0.000 A 
ATOM     21  C   UNL     1      -2.890  12.569  22.935  0.00  0.00    +0.000 A 
ENDBRANCH   8  16
BRANCH   4  22
ATOM     22  N   UNL     1       2.433  14.923  20.863  0.00  0.00    +0.000 NA
ATOM     23  C   UNL     1       2.138  16.287  21.399  0.00  0.00    +0.000 C 
ATOM     24  C   UNL     1       2.284  17.283  20.255  0.00  0.00    +0.000 C 
ATOM     25  C   UNL     1       3.319  16.639  19.364  0.00  0.00    +0.000 C 
ATOM     26  C   UNL     1       3.404  15.167  19.791  0.00  0.00    +0.000 C 
ENDBRANCH   4  22
BRANCH   1  27
ATOM     27  C   UNL     1      -1.884  10.794  19.237  0.00  0.00    +0.000 C 
BRANCH  27  31
ATOM     28  C   UNL     1      -3.763  10.494  15.288  0.00  0.00    +0.000 A 
ATOM     29  C   UNL     1      -4.372  11.216  16.315  0.00  0.00    +0.000 A 
ATOM     30  C   UNL     1      -3.782  11.286  17.587  0.00  0.00    +0.000 A 
ATOM     31  C   UNL     1      -2.581  10.630  17.868  0.00  0.00    +0.000 A 
ATOM     32  C   UNL     1      -1.992   9.876  16.822  0.00  0.00    +0.000 A 
ATOM     33  C   UNL     1      -2.573   9.819  15.544  0.00  0.00    +0.000 A 
ENDBRANCH  27  31
ENDBRANCH   1  27
TORSDOF 5
ENDMDL
MODEL 4
REMARK VINA RESULT:      -7.6      1.362      1.919
REMARK  Name = 
REMARK  5 active torsions:
REMARK  status: ('A' for Active; 'I' for Inactive)
REMARK    1  A    between atoms: C_4  and  C_5
REMARK    2  A    between atoms: C_5  and  N_6
REMARK    3  A    between atoms: C_9  and  N_10
REMARK    4  A    between atoms: C_16  and  C_17
REMARK    5  A    between atoms: C_24  and  C_25
REMARK                            x       y       z     vdW  Elec       q    Type
REMARK                         _______ _______ _______ _____ _____    ______ ____
ROOT
ATOM      1  N   UNL     1      -1.363  12.505  19.908  0.00  0.00    +0.000 NA
ATOM      2  C   UNL     1      -0.751  13.375  18.858  0.00  0.00    +0.000 C 
ATOM      3  C   UNL     1       0.612  14.322  19.057  0.00  0.00    +0.000 C 
ATOM      4  C   UNL     1       1.467  14.342  20.437  0.00  0.00    +0.000 C 
ATOM      5  C   UNL     1       1.983  12.901  20.513  0.00  0.00    +0.000 C 
ATOM      6  C   UNL     1       0.911  11.892  20.834  0.00  0.00    +0.000 C 
ATOM      7  C   UNL     1      -0.549  12.514  21.108  0.00  0.00    +0.000 C 
ATOM      8  C   UNL     1      -0.750  14.010  21.627  0.00  0.00    +0.000 C 
ATOM      9  C   UNL     1       0.560  14.752  21.602  0.00  0.00    +0.000 C 
ENDROOT
BRANCH   6  10
ATOM     10  C   UNL     1       1.167  10.641  19.927  0.00  0.00    +0.000 A 
ATOM     11  C   UNL     1       1.555  10.862  18.604  0.00  0.00    +0.000 A 
ATOM     12  C   UNL     1       1.915   9.799  17.761  0.00  0.00    +0.000 A 
ATOM     13  C   UNL     1       1.921   8.490  18.216  0.00  0.00    +0.000 A 
ATOM     14  C   UNL     1       1.460   8.225  19.485  0.00  0.00    +0.000 A 
ATOM     15  C   UNL     1       1.041   9.280  20.315  0.00  0.00    +0.000 A 
ENDBRANCH   6  10
BRANCH   8  16
ATOM     16  C   UNL     1      -1.587  14.190  22.898  0.00  0.00    +0.000 A 
ATOM     17  C   UNL     1      -2.764  13.479  23.172  0.00  0.00    +0.000 A 
ATOM     18  C   UNL     1      -3.514  13.751  24.323  0.00  0.00    +0.000 A 
ATOM     19  C   UNL     1      -3.085  14.713  25.235  0.00  0.00    +0.000 A 
ATOM     20  C   UNL     1      -1.859  15.333  25.043  0.00  0.00    +0.000 A 
ATOM     21  C   UNL     1      -1.110  15.040  23.905  0.00  0.00    +0.000 A 
ENDBRANCH   8  16
BRANCH   4  22
ATOM     22  N   UNL     1       2.743  15.147  20.536  0.00  0.00    +0.000 NA
ATOM     23  C   UNL     1       2.550  16.630  20.573  0.00  0.00    +0.000 C 
ATOM     24  C   UNL     1       2.854  17.177  19.184  0.00  0.00    +0.000 C 
ATOM     25  C   UNL     1       3.871  16.201  18.641  0.00  0.00    +0.000 C 
ATOM     26  C   UNL     1       3.791  14.952  19.530  0.00  0.00    +0.000 C 
ENDBRANCH   4  22
BRANCH   1  27
ATOM     27  C   UNL     1      -1.893  11.142  19.643  0.00  0.00    +0.000 C 
BRANCH  27  31
ATOM     28  C   UNL     1      -3.619  10.578  15.653  0.00  0.00    +0.000 A 
ATOM     29  C   UNL     1      -4.291  11.323  16.623  0.00  0.00    +0.000 A 
ATOM     30  C   UNL     1      -3.749  11.478  17.908  0.00  0.00    +0.000 A 
ATOM     31  C   UNL     1      -2.534  10.885  18.261  0.00  0.00    +0.000 A 
ATOM     32  C   UNL     1      -1.880  10.106  17.274  0.00  0.00    +0.000 A 
ATOM     33  C   UNL     1      -2.413   9.964  15.981  0.00  0.00    +0.000 A 
ENDBRANCH  27  31
ENDBRANCH   1  27
TORSDOF 5
ENDMDL
MODEL 5
REMARK VINA RESULT:      -7.5      2.396      6.048
REMARK  Name = 
REMARK  5 active torsions:
REMARK  status: ('A' for Active; 'I' for Inactive)
REMARK    1  A    between atoms: C_4  and  C_5
REMARK    2  A    between atoms: C_5  and  N_6
REMARK    3  A    between atoms: C_9  and  N_10
REMARK    4  A    between atoms: C_16  and  C_17
REMARK    5  A    between atoms: C_24  and  C_25
REMARK                            x       y       z     vdW  Elec       q    Type
REMARK                         _______ _______ _______ _____ _____    ______ ____
ROOT
ATOM      1  N   UNL     1      -3.611  12.488  21.827  0.00  0.00    +0.000 NA
ATOM      2  C   UNL     1      -2.635  12.248  22.934  0.00  0.00    +0.000 C 
ATOM      3  C   UNL     1      -0.998  12.584  22.872  0.00  0.00    +0.000 C 
ATOM      4  C   UNL     1      -0.299  13.282  21.585  0.00  0.00    +0.000 C 
ATOM      5  C   UNL     1      -0.976  14.656  21.559  0.00  0.00    +0.000 C 
ATOM      6  C   UNL     1      -2.420  14.610  21.133  0.00  0.00    +0.000 C 
ATOM      7  C   UNL     1      -2.960  13.151  20.715  0.00  0.00    +0.000 C 
ATOM      8  C   UNL     1      -1.984  12.008  20.179  0.00  0.00    +0.000 C 
ATOM      9  C   UNL     1      -0.548  12.431  20.334  0.00  0.00    +0.000 C 
ENDROOT
BRANCH   6  10
ATOM     10  C   UNL     1      -3.208  15.597  22.060  0.00  0.00    +0.000 A 
ATOM     11  C   UNL     1      -4.120  16.468  21.461  0.00  0.00    +0.000 A 
ATOM     12  C   UNL     1      -4.948  17.301  22.231  0.00  0.00    +0.000 A 
ATOM     13  C   UNL     1      -4.908  17.274  23.615  0.00  0.00    +0.000 A 
ATOM     14  C   UNL     1      -3.961  16.495  24.238  0.00  0.00    +0.000 A 
ATOM     15  C   UNL     1      -3.087  15.702  23.472  0.00  0.00    +0.000 A 
ENDBRANCH   6  10
BRANCH   8  16
ATOM     16  C   UNL     1      -2.344  11.374  18.830  0.00  0.00    +0.000 A 
ATOM     17  C   UNL     1      -1.569  10.399  18.187  0.00  0.00    +0.000 A 
ATOM     18  C   UNL     1      -1.925   9.920  16.921  0.00  0.00    +0.000 A 
ATOM     19  C   UNL     1      -3.078  10.382  16.290  0.00  0.00    +0.000 A 
ATOM     20  C   UNL     1      -3.922  11.250  16.967  0.00  0.00    +0.000 A 
ATOM     21  C   UNL     1      -3.569  11.705  18.236  0.00  0.00    +0.000 A 
ENDBRANCH   8  16
BRANCH   4  22
ATOM     22  N   UNL     1       1.169  13.646  21.613  0.00  0.00    +0.000 NA
ATOM     23  C   UNL     1       1.456  15.111  21.546  0.00  0.00    +0.000 C 
ATOM     24  C   UNL     1       1.871  15.443  20.118  0.00  0.00    +0.000 C 
ATOM     25  C   UNL     1       2.509  14.162  19.635  0.00  0.00    +0.000 C 
ATOM     26  C   UNL     1       2.068  13.063  20.611  0.00  0.00    +0.000 C 
ENDBRANCH   4  22
BRANCH   1  27
ATOM     27  C   UNL     1      -4.978  13.034  22.038  0.00  0.00    +0.000 C 
BRANCH  27  31
ATOM     28  C   UNL     1      -7.627  12.775  18.555  0.00  0.00    +0.000 A 
ATOM     29  C   UNL     1      -7.167  14.011  19.012  0.00  0.00    +0.000 A 
ATOM     30  C   UNL     1      -6.342  14.092  20.144  0.00  0.00    +0.000 A 
ATOM     31  C   UNL     1      -5.967  12.949  20.854  0.00  0.00    +0.000 A 
ATOM     32  C   UNL     1      -6.468  11.705  20.395  0.00  0.00    +0.000 A 
ATOM     33  C   UNL     1      -7.281  11.620  19.251  0.00  0.00    +0.000 A 
ENDBRANCH  27  31
ENDBRANCH   1  27
TORSDOF 5
ENDMDL
MODEL 6
REMARK VINA RESULT:      -7.4      0.962      1.416
REMARK  Name = 
REMARK  5 active torsions:
REMARK  status: ('A' for Active; 'I' for Inactive)
REMARK    1  A    between atoms: C_4  and  C_5
REMARK    2  A    between atoms: C_5  and  N_6
REMARK    3  A    between atoms: C_9  and  N_10
REMARK    4  A    between atoms: C_16  and  C_17
REMARK    5  A    between atoms: C_24  and  C_25
REMARK                            x       y       z     vdW  Elec       q    Type
REMARK                         _______ _______ _______ _____ _____    ______ ____
ROOT
ATOM      1  N   UNL     1      -1.402  12.237  19.763  0.00  0.00    +0.000 NA
ATOM      2  C   UNL     1      -0.759  13.279  18.904  0.00  0.00    +0.000 C 
ATOM      3  C   UNL     1       0.480  14.296  19.377  0.00  0.00    +0.000 C 
ATOM      4  C   UNL     1       1.169  14.209  20.844  0.00  0.00    +0.000 C 
ATOM      5  C   UNL     1       1.804  12.815  20.816  0.00  0.00    +0.000 C 
ATOM      6  C   UNL     1       0.801  11.693  20.884  0.00  0.00    +0.000 C 
ATOM      7  C   UNL     1      -0.732  12.159  21.047  0.00  0.00    +0.000 C 
ATOM      8  C   UNL     1      -1.127  13.558  21.707  0.00  0.00    +0.000 C 
ATOM      9  C   UNL     1       0.103  14.397  21.929  0.00  0.00    +0.000 C 
ENDROOT
BRANCH   6  10
ATOM     10  C   UNL     1       1.272  10.589  19.876  0.00  0.00    +0.000 A 
ATOM     11  C   UNL     1       1.272   9.263  20.314  0.00  0.00    +0.000 A 
ATOM     12  C   UNL     1       1.569   8.206  19.440  0.00  0.00    +0.000 A 
ATOM     13  C   UNL     1       1.852   8.435  18.103  0.00  0.00    +0.000 A 
ATOM     14  C   UNL     1       1.949   9.733  17.657  0.00  0.00    +0.000 A 
ATOM     15  C   UNL     1       1.711  10.800  18.542  0.00  0.00    +0.000 A 
ENDBRANCH   6  10
BRANCH   8  16
ATOM     16  C   UNL     1      -2.115  13.509  22.878  0.00  0.00    +0.000 A 
ATOM     17  C   UNL     1      -3.020  12.463  23.102  0.00  0.00    +0.000 A 
ATOM     18  C   UNL     1      -3.942  12.525  24.153  0.00  0.00    +0.000 A 
ATOM     19  C   UNL     1      -3.954  13.616  25.019  0.00  0.00    +0.000 A 
ATOM     20  C   UNL     1      -2.983  14.598  24.888  0.00  0.00    +0.000 A 
ATOM     21  C   UNL     1      -2.056  14.517  23.851  0.00  0.00    +0.000 A 
ENDBRANCH   8  16
BRANCH   4  22
ATOM     22  N   UNL     1       2.346  15.093  21.192  0.00  0.00    +0.000 NA
ATOM     23  C   UNL     1       1.995  16.346  21.928  0.00  0.00    +0.000 C 
ATOM     24  C   UNL     1       2.012  17.497  20.930  0.00  0.00    +0.000 C 
ATOM     25  C   UNL     1       3.035  17.056  19.909  0.00  0.00    +0.000 C 
ATOM     26  C   UNL     1       3.237  15.549  20.121  0.00  0.00    +0.000 C 
ENDBRANCH   4  22
BRANCH   1  27
ATOM     27  C   UNL     1      -1.770  10.882  19.279  0.00  0.00    +0.000 C 
BRANCH  27  31
ATOM     28  C   UNL     1      -3.786  10.437  15.413  0.00  0.00    +0.000 A 
ATOM     29  C   UNL     1      -2.569   9.800  15.660  0.00  0.00    +0.000 A 
ATOM     30  C   UNL     1      -1.913   9.968  16.889  0.00  0.00    +0.000 A 
ATOM     31  C   UNL     1      -2.445  10.781  17.893  0.00  0.00    +0.000 A 
ATOM     32  C   UNL     1      -3.666  11.444  17.613  0.00  0.00    +0.000 A 
ATOM     33  C   UNL     1      -4.333  11.264  16.389  0.00  0.00    +0.000 A 
ENDBRANCH  27  31
ENDBRANCH   1  27
TORSDOF 5
ENDMDL
MODEL 7
REMARK VINA RESULT:      -7.4      0.217      1.455
REMARK  Name = 
REMARK  5 active torsions:
REMARK  status: ('A' for Active; 'I' for Inactive)
REMARK    1  A    between atoms: C_4  and  C_5
REMARK    2  A    between atoms: C_5  and  N_6
REMARK    3  A    between atoms: C_9  and  N_10
REMARK    4  A    between atoms: C_16  and  C_17
REMARK    5  A    between atoms: C_24  and  C_25
REMARK                            x       y       z     vdW  Elec       q    Type
REMARK                         _______ _______ _______ _____ _____    ______ ____
ROOT
ATOM      1  N   UNL     1      -1.650  11.849  19.472  0.00  0.00    +0.000 NA
ATOM      2  C   UNL     1      -0.803  12.912  18.849  0.00  0.00    +0.000 C 
ATOM      3  C   UNL     1       0.329  13.844  19.653  0.00  0.00    +0.000 C 
ATOM      4  C   UNL     1       0.671  13.637  21.226  0.00  0.00    +0.000 C 
ATOM      5  C   UNL     1       1.257  12.222  21.241  0.00  0.00    +0.000 C 
ATOM      6  C   UNL     1       0.232  11.142  21.009  0.00  0.00    +0.000 C 
ATOM      7  C   UNL     1      -1.285  11.664  20.863  0.00  0.00    +0.000 C 
ATOM      8  C   UNL     1      -1.777  13.034  21.515  0.00  0.00    +0.000 C 
ATOM      9  C   UNL     1      -0.604  13.804  22.061  0.00  0.00    +0.000 C 
ENDROOT
BRANCH   6  10
ATOM     10  C   UNL     1       0.884  10.083  20.055  0.00  0.00    +0.000 A 
ATOM     11  C   UNL     1       1.280  10.506  18.784  0.00  0.00    +0.000 A 
ATOM     12  C   UNL     1       1.975   9.651  17.915  0.00  0.00    +0.000 A 
ATOM     13  C   UNL     1       2.314   8.361  18.292  0.00  0.00    +0.000 A 
ATOM     14  C   UNL     1       1.863   7.881  19.499  0.00  0.00    +0.000 A 
ATOM     15  C   UNL     1       1.114   8.713  20.351  0.00  0.00    +0.000 A 
ENDBRANCH   6  10
BRANCH   8  16
ATOM     16  C   UNL     1      -3.001  12.957  22.435  0.00  0.00    +0.000 A 
ATOM     17  C   UNL     1      -2.934  12.747  23.819  0.00  0.00    +0.000 A 
ATOM     18  C   UNL     1      -4.100  12.616  24.582  0.00  0.00    +0.000 A 
ATOM     19  C   UNL     1      -5.352  12.725  23.981  0.00  0.00    +0.000 A 
ATOM     20  C   UNL     1      -5.436  13.058  22.637  0.00  0.00    +0.000 A 
ATOM     21  C   UNL     1      -4.269  13.208  21.891  0.00  0.00    +0.000 A 
ENDBRANCH   8  16
BRANCH   4  22
ATOM     22  N   UNL     1       1.766  14.447  21.885  0.00  0.00    +0.000 NA
ATOM     23  C   UNL     1       1.338  15.784  22.397  0.00  0.00    +0.000 C 
ATOM     24  C   UNL     1       1.792  16.838  21.395  0.00  0.00    +0.000 C 
ATOM     25  C   UNL     1       3.031  16.225  20.785  0.00  0.00    +0.000 C 
ATOM     26  C   UNL     1       2.993  14.731  21.135  0.00  0.00    +0.000 C 
ENDBRANCH   4  22
BRANCH   1  27
ATOM     27  C   UNL     1      -1.940  10.543  18.825  0.00  0.00    +0.000 C 
BRANCH  27  31
ATOM     28  C   UNL     1      -3.892  10.468  14.901  0.00  0.00    +0.000 A 
ATOM     29  C   UNL     1      -2.716   9.752  15.127  0.00  0.00    +0.000 A 
ATOM     30  C   UNL     1      -2.078   9.801  16.376  0.00  0.00    +0.000 A 
ATOM     31  C   UNL     1      -2.589  10.572  17.423  0.00  0.00    +0.000 A 
ATOM     32  C   UNL     1      -3.767  11.318  17.167  0.00  0.00    +0.000 A 
ATOM     33  C   UNL     1      -4.416  11.256  15.922  0.00  0.00    +0.000 A 
ENDBRANCH  27  31
ENDBRANCH   1  27
TORSDOF 5
ENDMDL
MODEL 8
REMARK VINA RESULT:      -7.3      1.593      2.087
REMARK  Name = 
REMARK  5 active torsions:
REMARK  status: ('A' for Active; 'I' for Inactive)
REMARK    1  A    between atoms: C_4  and  C_5
REMARK    2  A    between atoms: C_5  and  N_6
REMARK    3  A    between atoms: C_9  and  N_10
REMARK    4  A    between atoms: C_16  and  C_17
REMARK    5  A    between atoms: C_24  and  C_25
REMARK                            x       y       z     vdW  Elec       q    Type
REMARK                         _______ _______ _______ _____ _____    ______ ____
ROOT
ATOM      1  N   UNL     1      -1.327  12.750  19.581  0.00  0.00    +0.000 NA
ATOM      2  C   UNL     1      -0.685  13.537  18.483  0.00  0.00    +0.000 C 
ATOM      3  C   UNL     1       0.638  14.544  18.658  0.00  0.00    +0.000 C 
ATOM      4  C   UNL     1       1.417  14.725  20.071  0.00  0.00    +0.000 C 
ATOM      5  C   UNL     1       1.969  13.317  20.313  0.00  0.00    +0.000 C 
ATOM      6  C   UNL     1       0.911  12.307  20.676  0.00  0.00    +0.000 C 
ATOM      7  C   UNL     1      -0.579  12.902  20.814  0.00  0.00    +0.000 C 
ATOM      8  C   UNL     1      -0.850  14.433  21.174  0.00  0.00    +0.000 C 
ATOM      9  C   UNL     1       0.437  15.214  21.144  0.00  0.00    +0.000 C 
ENDROOT
BRANCH   6  10
ATOM     10  C   UNL     1       1.253  10.984  19.910  0.00  0.00    +0.000 A 
ATOM     11  C   UNL     1       1.124   9.777  20.601  0.00  0.00    +0.000 A 
ATOM     12  C   UNL     1       1.298   8.543  19.955  0.00  0.00    +0.000 A 
ATOM     13  C   UNL     1       1.583   8.474  18.601  0.00  0.00    +0.000 A 
ATOM     14  C   UNL     1       1.805   9.641  17.907  0.00  0.00    +0.000 A 
ATOM     15  C   UNL     1       1.691  10.881  18.562  0.00  0.00    +0.000 A 
ENDBRANCH   6  10
BRANCH   8  16
ATOM     16  C   UNL     1      -1.759  14.705  22.378  0.00  0.00    +0.000 A 
ATOM     17  C   UNL     1      -1.394  14.465  23.710  0.00  0.00    +0.000 A 
ATOM     18  C   UNL     1      -2.306  14.670  24.752  0.00  0.00    +0.000 A 
ATOM     19  C   UNL     1      -3.587  15.149  24.485  0.00  0.00    +0.000 A 
ATOM     20  C   UNL     1      -3.921  15.511  23.188  0.00  0.00    +0.000 A 
ATOM     21  C   UNL     1      -2.998  15.323  22.161  0.00  0.00    +0.000 A 
ENDBRANCH   8  16
BRANCH   4  22
ATOM     22  N   UNL     1       2.661  15.580  20.156  0.00  0.00    +0.000 NA
ATOM     23  C   UNL     1       2.679  16.759  19.237  0.00  0.00    +0.000 C 
ATOM     24  C   UNL     1       3.556  16.409  18.042  0.00  0.00    +0.000 C 
ATOM     25  C   UNL     1       4.555  15.432  18.618  0.00  0.00    +0.000 C 
ATOM     26  C   UNL     1       3.972  14.954  19.954  0.00  0.00    +0.000 C 
ENDBRANCH   4  22
BRANCH   1  27
ATOM     27  C   UNL     1      -1.802  11.351  19.424  0.00  0.00    +0.000 C 
BRANCH  27  31
ATOM     28  C   UNL     1      -3.718  10.473  15.581  0.00  0.00    +0.000 A 
ATOM     29  C   UNL     1      -4.347  11.290  16.521  0.00  0.00    +0.000 A 
ATOM     30  C   UNL     1      -3.743  11.546  17.762  0.00  0.00    +0.000 A 
ATOM     31  C   UNL     1      -2.509  10.985  18.099  0.00  0.00    +0.000 A 
ATOM     32  C   UNL     1      -1.899  10.134  17.144  0.00  0.00    +0.000 A 
ATOM     33  C   UNL     1      -2.494   9.891  15.895  0.00  0.00    +0.000 A 
ENDBRANCH  27  31
ENDBRANCH   1  27
TORSDOF 5
ENDMDL
MODEL 9
REMARK VINA RESULT:      -7.3      1.820      7.519
REMARK  Name = 
REMARK  5 active torsions:
REMARK  status: ('A' for Active; 'I' for Inactive)
REMARK    1  A    between atoms: C_4  and  C_5
REMARK    2  A    between atoms: C_5  and  N_6
REMARK    3  A    between atoms: C_9  and  N_10
REMARK    4  A    between atoms: C_16  and  C_17
REMARK    5  A    between atoms: C_24  and  C_25
REMARK                            x       y       z     vdW  Elec       q    Type
REMARK                         _______ _______ _______ _____ _____    ______ ____
ROOT
ATOM      1  N   UNL     1       1.091  12.327  19.404  0.00  0.00    +0.000 NA
ATOM      2  C   UNL     1       0.298  12.988  18.322  0.00  0.00    +0.000 C 
ATOM      3  C   UNL     1      -1.119  12.397  17.660  0.00  0.00    +0.000 C 
ATOM      4  C   UNL     1      -1.826  11.035  18.186  0.00  0.00    +0.000 C 
ATOM      5  C   UNL     1      -2.198  11.403  19.626  0.00  0.00    +0.000 C 
ATOM      6  C   UNL     1      -1.012  11.506  20.549  0.00  0.00    +0.000 C 
ATOM      7  C   UNL     1       0.406  11.140  19.877  0.00  0.00    +0.000 C 
ATOM      8  C   UNL     1       0.522  10.171  18.615  0.00  0.00    +0.000 C 
ATOM      9  C   UNL     1      -0.846   9.862  18.066  0.00  0.00    +0.000 C 
ENDROOT
BRANCH   6  10
ATOM     10  C   UNL     1      -1.244  12.756  21.464  0.00  0.00    +0.000 A 
ATOM     11  C   UNL     1      -1.929  13.845  20.920  0.00  0.00    +0.000 A 
ATOM     12  C   UNL     1      -2.279  14.954  21.706  0.00  0.00    +0.000 A 
ATOM     13  C   UNL     1      -1.978  15.001  23.058  0.00  0.00    +0.000 A 
ATOM     14  C   UNL     1      -1.228  13.989  23.608  0.00  0.00    +0.000 A 
ATOM     15  C   UNL     1      -0.821  12.902  22.812  0.00  0.00    +0.000 A 
ENDBRANCH   6  10
BRANCH   8  16
ATOM     16  C   UNL     1       1.464   8.970  18.754  0.00  0.00    +0.000 A 
ATOM     17  C   UNL     1       2.387   8.577  17.774  0.00  0.00    +0.000 A 
ATOM     18  C   UNL     1       3.164   7.425  17.943  0.00  0.00    +0.000 A 
ATOM     19  C   UNL     1       3.057   6.665  19.106  0.00  0.00    +0.000 A 
ATOM     20  C   UNL     1       2.243   7.111  20.137  0.00  0.00    +0.000 A 
ATOM     21  C   UNL     1       1.489   8.270  19.968  0.00  0.00    +0.000 A 
ENDBRANCH   8  16
BRANCH   4  22
ATOM     22  N   UNL     1      -3.153  10.590  17.613  0.00  0.00    +0.000 NA
ATOM     23  C   UNL     1      -3.055   9.686  16.426  0.00  0.00    +0.000 C 
ATOM     24  C   UNL     1      -3.317  10.520  15.179  0.00  0.00    +0.000 C 
ATOM     25  C   UNL     1      -4.241  11.608  15.675  0.00  0.00    +0.000 C 
ATOM     26  C   UNL     1      -4.131  11.604  17.206  0.00  0.00    +0.000 C 
ENDBRANCH   4  22
BRANCH   1  27
ATOM     27  C   UNL     1       1.713  13.062  20.536  0.00  0.00    +0.000 C 
BRANCH  27  31
ATOM     28  C   UNL     1       2.599  17.336  20.137  0.00  0.00    +0.000 A 
ATOM     29  C   UNL     1       1.601  16.893  21.006  0.00  0.00    +0.000 A 
ATOM     30  C   UNL     1       1.301  15.525  21.111  0.00  0.00    +0.000 A 
ATOM     31  C   UNL     1       1.976  14.572  20.344  0.00  0.00    +0.000 A 
ATOM     32  C   UNL     1       2.965  15.044  19.445  0.00  0.00    +0.000 A 
ATOM     33  C   UNL     1       3.279  16.410  19.352  0.00  0.00    +0.000 A 
ENDBRANCH  27  31
ENDBRANCH   1  27
TORSDOF 5
ENDMDL
