MODEL 1
REMARK VINA RESULT:      -9.4      0.000      0.000
REMARK  Name = 
REMARK  5 active torsions:
REMARK  status: ('A' for Active; 'I' for Inactive)
REMARK    1  A    between atoms: C_2  and  C_4
REMARK    2  A    between atoms: C_4  and  O_5
REMARK    3  A    between atoms: O_5  and  C_6
REMARK    4  A    between atoms: C_11  and  C_12
REMARK    5  A    between atoms: N_19  and  C_20
REMARK                            x       y       z     vdW  Elec       q    Type
REMARK                         _______ _______ _______ _____ _____    ______ ____
ROOT
ATOM      1  C   UNL     1       4.329   4.617  18.092  0.00  0.00    +0.000 A 
ATOM      2  C   UNL     1       4.256   3.582  18.960  0.00  0.00    +0.000 A 
ATOM      3  C   UNL     1       3.379   3.601  20.130  0.00  0.00    +0.000 A 
ATOM      4  C   UNL     1       2.591   4.668  20.332  0.00  0.00    +0.000 A 
ATOM      5  N   UNL     1       2.643   5.740  19.454  0.00  0.00    +0.000 N 
ATOM      6  N   UNL     1       1.972   6.894  19.535  0.00  0.00    +0.000 NA
ATOM      7  C   UNL     1       2.393   7.556  18.471  0.00  0.00    +0.000 A 
ATOM      8  N   UNL     1       2.013   8.791  18.089  0.00  0.00    +0.000 N 
ATOM      9  N   UNL     1       3.312   6.913  17.703  0.00  0.00    +0.000 NA
ATOM     10  C   UNL     1       3.485   5.769  18.328  0.00  0.00    +0.000 A 
ATOM     11  H   UNL     1       2.522   9.127  17.274  0.00  0.00    +0.000 HD
ENDROOT
BRANCH   8  12
ATOM     12  C   UNL     1       1.631   9.869  18.900  0.00  0.00    +0.000 A 
ATOM     13  C   UNL     1       1.632  11.195  18.481  0.00  0.00    +0.000 A 
ATOM     14  C   UNL     1       0.986  12.185  19.240  0.00  0.00    +0.000 A 
ATOM     15  C   UNL     1       0.298  11.865  20.430  0.00  0.00    +0.000 A 
ATOM     16  C   UNL     1       0.417  10.570  20.920  0.00  0.00    +0.000 A 
ATOM     17  C   UNL     1       1.098   9.594  20.153  0.00  0.00    +0.000 A 
ATOM     18  C   UNL     1      -0.008  10.104  22.285  0.00  0.00    +0.000 C 
ATOM     19  C   UNL     1      -1.173  10.516  23.185  0.00  0.00    +0.000 C 
ATOM     20  N   UNL     1      -1.649  11.884  23.159  0.00  0.00    +0.000 NA
ATOM     21  C   UNL     1      -1.826  12.364  21.788  0.00  0.00    +0.000 C 
ATOM     22  C   UNL     1      -0.532  12.903  21.139  0.00  0.00    +0.000 C 
ATOM     23  H   UNL     1      -2.559  11.890  23.628  0.00  0.00    +0.000 HD
ENDBRANCH   8  12
BRANCH   1  29
ATOM     24  C   UNL     1       6.662   4.538  17.110  0.00  0.00    +0.000 A 
ATOM     25  C   UNL     1       7.479   4.470  15.972  0.00  0.00    +0.000 A 
ATOM     26  C   UNL     1       6.919   4.415  14.692  0.00  0.00    +0.000 A 
ATOM     27  C   UNL     1       5.541   4.426  14.532  0.00  0.00    +0.000 A 
ATOM     28  C   UNL     1       4.714   4.474  15.655  0.00  0.00    +0.000 A 
ATOM     29  C   UNL     1       5.263   4.522  16.949  0.00  0.00    +0.000 A 
BRANCH  24  30
ATOM     30  O   UNL     1       7.147   4.634  18.396  0.00  0.00    +0.000 OA
BRANCH  30  31
ATOM     31  C   UNL     1       7.164   5.945  18.968  0.00  0.00    +0.000 C 
BRANCH  31  33
ATOM     32  F   UNL     1       6.791   7.730  17.497  0.00  0.00    +0.000 F 
ATOM     33  C   UNL     1       7.779   6.952  18.015  0.00  0.00    +0.000 C 
ATOM     34  F   UNL     1       8.603   7.791  18.694  0.00  0.00    +0.000 F 
ENDBRANCH  31  33
ENDBRANCH  30  31
ENDBRANCH  24  30
ENDBRANCH   1  29
TORSDOF 5
ENDMDL
MODEL 2
REMARK VINA RESULT:      -9.4      2.118      2.872
REMARK  Name = 
REMARK  5 active torsions:
REMARK  status: ('A' for Active; 'I' for Inactive)
REMARK    1  A    between atoms: C_2  and  C_4
REMARK    2  A    between atoms: C_4  and  O_5
REMARK    3  A    between atoms: O_5  and  C_6
REMARK    4  A    between atoms: C_11  and  C_12
REMARK    5  A    between atoms: N_19  and  C_20
REMARK                            x       y       z     vdW  Elec       q    Type
REMARK                         _______ _______ _______ _____ _____    ______ ____
ROOT
ATOM      1  C   UNL     1       4.094   5.395  17.962  0.00  0.00    +0.000 A 
ATOM      2  C   UNL     1       3.965   4.423  18.894  0.00  0.00    +0.000 A 
ATOM      3  C   UNL     1       3.086   4.562  20.054  0.00  0.00    +0.000 A 
ATOM      4  C   UNL     1       2.352   5.678  20.181  0.00  0.00    +0.000 A 
ATOM      5  N   UNL     1       2.462   6.687  19.236  0.00  0.00    +0.000 N 
ATOM      6  N   UNL     1       1.850   7.877  19.238  0.00  0.00    +0.000 NA
ATOM      7  C   UNL     1       2.309   8.446  18.136  0.00  0.00    +0.000 A 
ATOM      8  N   UNL     1       1.994   9.671  17.673  0.00  0.00    +0.000 N 
ATOM      9  N   UNL     1       3.197   7.709  17.418  0.00  0.00    +0.000 NA
ATOM     10  C   UNL     1       3.309   6.601  18.117  0.00  0.00    +0.000 A 
ATOM     11  H   UNL     1       2.522   9.927  16.842  0.00  0.00    +0.000 HD
ENDROOT
BRANCH   8  12
ATOM     12  C   UNL     1       1.663  10.817  18.410  0.00  0.00    +0.000 A 
ATOM     13  C   UNL     1       0.754  10.827  19.463  0.00  0.00    +0.000 A 
ATOM     14  C   UNL     1       0.673  11.933  20.325  0.00  0.00    +0.000 A 
ATOM     15  C   UNL     1       1.522  13.050  20.169  0.00  0.00    +0.000 A 
ATOM     16  C   UNL     1       2.326  13.100  19.037  0.00  0.00    +0.000 A 
ATOM     17  C   UNL     1       2.371  11.986  18.164  0.00  0.00    +0.000 A 
ATOM     18  C   UNL     1       3.090  14.301  18.553  0.00  0.00    +0.000 C 
ATOM     19  C   UNL     1       3.789  15.434  19.305  0.00  0.00    +0.000 C 
ATOM     20  N   UNL     1       3.253  15.893  20.570  0.00  0.00    +0.000 NA
ATOM     21  C   UNL     1       2.932  14.772  21.454  0.00  0.00    +0.000 C 
ATOM     22  C   UNL     1       1.541  14.149  21.199  0.00  0.00    +0.000 C 
ATOM     23  H   UNL     1       3.982  16.460  21.012  0.00  0.00    +0.000 HD
ENDBRANCH   8  12
BRANCH   1  29
ATOM     24  C   UNL     1       6.190   5.954  16.653  0.00  0.00    +0.000 A 
ATOM     25  C   UNL     1       7.009   5.703  15.542  0.00  0.00    +0.000 A 
ATOM     26  C   UNL     1       6.667   4.718  14.610  0.00  0.00    +0.000 A 
ATOM     27  C   UNL     1       5.509   3.974  14.775  0.00  0.00    +0.000 A 
ATOM     28  C   UNL     1       4.693   4.198  15.884  0.00  0.00    +0.000 A 
ATOM     29  C   UNL     1       5.027   5.179  16.834  0.00  0.00    +0.000 A 
BRANCH  24  30
ATOM     30  O   UNL     1       6.445   6.934  17.587  0.00  0.00    +0.000 OA
BRANCH  30  31
ATOM     31  C   UNL     1       7.757   6.939  18.155  0.00  0.00    +0.000 C 
BRANCH  31  33
ATOM     32  F   UNL     1       6.760   5.626  19.820  0.00  0.00    +0.000 F 
ATOM     33  C   UNL     1       7.929   5.805  19.149  0.00  0.00    +0.000 C 
ATOM     34  F   UNL     1       8.170   4.642  18.491  0.00  0.00    +0.000 F 
ENDBRANCH  31  33
ENDBRANCH  30  31
ENDBRANCH  24  30
ENDBRANCH   1  29
TORSDOF 5
ENDMDL
MODEL 3
REMARK VINA RESULT:      -9.3      1.038      1.112
REMARK  Name = 
REMARK  5 active torsions:
REMARK  status: ('A' for Active; 'I' for Inactive)
REMARK    1  A    between atoms: C_2  and  C_4
REMARK    2  A    between atoms: C_4  and  O_5
REMARK    3  A    between atoms: O_5  and  C_6
REMARK    4  A    between atoms: C_11  and  C_12
REMARK    5  A    between atoms: N_19  and  C_20
REMARK                            x       y       z     vdW  Elec       q    Type
REMARK                         _______ _______ _______ _____ _____    ______ ____
ROOT
ATOM      1  C   UNL     1       4.282   5.045  17.960  0.00  0.00    +0.000 A 
ATOM      2  C   UNL     1       4.249   4.002  18.822  0.00  0.00    +0.000 A 
ATOM      3  C   UNL     1       3.399   3.996  20.011  0.00  0.00    +0.000 A 
ATOM      4  C   UNL     1       2.595   5.045  20.239  0.00  0.00    +0.000 A 
ATOM      5  N   UNL     1       2.607   6.124  19.368  0.00  0.00    +0.000 N 
ATOM      6  N   UNL     1       1.915   7.265  19.473  0.00  0.00    +0.000 NA
ATOM      7  C   UNL     1       2.300   7.943  18.404  0.00  0.00    +0.000 A 
ATOM      8  N   UNL     1       1.887   9.172  18.041  0.00  0.00    +0.000 N 
ATOM      9  N   UNL     1       3.213   7.322  17.611  0.00  0.00    +0.000 NA
ATOM     10  C   UNL     1       3.422   6.178  18.224  0.00  0.00    +0.000 A 
ATOM     11  H   UNL     1       2.371   9.523  17.217  0.00  0.00    +0.000 HD
ENDROOT
BRANCH   8  12
ATOM     12  C   UNL     1       1.502  10.237  18.868  0.00  0.00    +0.000 A 
ATOM     13  C   UNL     1       1.505  11.569  18.470  0.00  0.00    +0.000 A 
ATOM     14  C   UNL     1       0.857  12.547  19.243  0.00  0.00    +0.000 A 
ATOM     15  C   UNL     1       0.165  12.207  20.426  0.00  0.00    +0.000 A 
ATOM     16  C   UNL     1       0.283  10.905  20.895  0.00  0.00    +0.000 A 
ATOM     17  C   UNL     1       0.966   9.942  20.115  0.00  0.00    +0.000 A 
ATOM     18  C   UNL     1      -0.146  10.417  22.251  0.00  0.00    +0.000 C 
ATOM     19  C   UNL     1      -1.313  10.814  23.155  0.00  0.00    +0.000 C 
ATOM     20  N   UNL     1      -1.789  12.183  23.150  0.00  0.00    +0.000 NA
ATOM     21  C   UNL     1      -1.963  12.685  21.786  0.00  0.00    +0.000 C 
ATOM     22  C   UNL     1      -0.666  13.234  21.150  0.00  0.00    +0.000 C 
ATOM     23  H   UNL     1      -2.701  12.181  23.616  0.00  0.00    +0.000 HD
ENDBRANCH   8  12
BRANCH   1  29
ATOM     24  C   UNL     1       6.269   5.867  16.621  0.00  0.00    +0.000 A 
ATOM     25  C   UNL     1       7.069   5.751  15.474  0.00  0.00    +0.000 A 
ATOM     26  C   UNL     1       6.791   4.785  14.503  0.00  0.00    +0.000 A 
ATOM     27  C   UNL     1       5.714   3.925  14.663  0.00  0.00    +0.000 A 
ATOM     28  C   UNL     1       4.920   4.015  15.806  0.00  0.00    +0.000 A 
ATOM     29  C   UNL     1       5.192   4.976  16.796  0.00  0.00    +0.000 A 
BRANCH  24  30
ATOM     30  O   UNL     1       6.462   6.820  17.597  0.00  0.00    +0.000 OA
BRANCH  30  31
ATOM     31  C   UNL     1       7.778   6.898  18.151  0.00  0.00    +0.000 C 
BRANCH  31  33
ATOM     32  F   UNL     1       6.913   5.619  19.913  0.00  0.00    +0.000 F 
ATOM     33  C   UNL     1       8.024   5.778  19.144  0.00  0.00    +0.000 C 
ATOM     34  F   UNL     1       8.200   4.603  18.487  0.00  0.00    +0.000 F 
ENDBRANCH  31  33
ENDBRANCH  30  31
ENDBRANCH  24  30
ENDBRANCH   1  29
TORSDOF 5
ENDMDL
MODEL 4
REMARK VINA RESULT:      -9.2      0.995      1.162
REMARK  Name = 
REMARK  5 active torsions:
REMARK  status: ('A' for Active; 'I' for Inactive)
REMARK    1  A    between atoms: C_2  and  C_4
REMARK    2  A    between atoms: C_4  and  O_5
REMARK    3  A    between atoms: O_5  and  C_6
REMARK    4  A    between atoms: C_11  and  C_12
REMARK    5  A    between atoms: N_19  and  C_20
REMARK                            x       y       z     vdW  Elec       q    Type
REMARK                         _______ _______ _______ _____ _____    ______ ____
ROOT
ATOM      1  C   UNL     1       4.682   4.504  17.272  0.00  0.00    +0.000 A 
ATOM      2  C   UNL     1       4.808   3.443  18.103  0.00  0.00    +0.000 A 
ATOM      3  C   UNL     1       4.124   3.373  19.393  0.00  0.00    +0.000 A 
ATOM      4  C   UNL     1       3.312   4.379  19.752  0.00  0.00    +0.000 A 
ATOM      5  N   UNL     1       3.162   5.475  18.916  0.00  0.00    +0.000 N 
ATOM      6  N   UNL     1       2.442   6.580  19.140  0.00  0.00    +0.000 NA
ATOM      7  C   UNL     1       2.652   7.297  18.049  0.00  0.00    +0.000 A 
ATOM      8  N   UNL     1       2.142   8.513  17.775  0.00  0.00    +0.000 N 
ATOM      9  N   UNL     1       3.479   6.736  17.126  0.00  0.00    +0.000 NA
ATOM     10  C   UNL     1       3.816   5.590  17.676  0.00  0.00    +0.000 A 
ATOM     11  H   UNL     1       2.497   8.903  16.904  0.00  0.00    +0.000 HD
ENDROOT
BRANCH   8  12
ATOM     12  C   UNL     1       1.824   9.542  18.673  0.00  0.00    +0.000 A 
ATOM     13  C   UNL     1       1.814  10.891  18.336  0.00  0.00    +0.000 A 
ATOM     14  C   UNL     1       1.229  11.837  19.195  0.00  0.00    +0.000 A 
ATOM     15  C   UNL     1       0.614  11.449  20.404  0.00  0.00    +0.000 A 
ATOM     16  C   UNL     1       0.749  10.125  20.805  0.00  0.00    +0.000 A 
ATOM     17  C   UNL     1       1.369   9.194  19.938  0.00  0.00    +0.000 A 
ATOM     18  C   UNL     1       0.407   9.579  22.164  0.00  0.00    +0.000 C 
ATOM     19  C   UNL     1      -0.693   9.943  23.160  0.00  0.00    +0.000 C 
ATOM     20  N   UNL     1      -1.155  11.313  23.249  0.00  0.00    +0.000 NA
ATOM     21  C   UNL     1      -1.413  11.879  21.924  0.00  0.00    +0.000 C 
ATOM     22  C   UNL     1      -0.157  12.447  21.228  0.00  0.00    +0.000 C 
ATOM     23  H   UNL     1      -2.033  11.297  23.775  0.00  0.00    +0.000 HD
ENDBRANCH   8  12
BRANCH   1  29
ATOM     24  C   UNL     1       6.674   5.149  15.846  0.00  0.00    +0.000 A 
ATOM     25  C   UNL     1       7.309   5.121  14.596  0.00  0.00    +0.000 A 
ATOM     26  C   UNL     1       6.710   4.485  13.504  0.00  0.00    +0.000 A 
ATOM     27  C   UNL     1       5.475   3.870  13.646  0.00  0.00    +0.000 A 
ATOM     28  C   UNL     1       4.839   3.872  14.888  0.00  0.00    +0.000 A 
ATOM     29  C   UNL     1       5.432   4.501  15.997  0.00  0.00    +0.000 A 
BRANCH  24  30
ATOM     30  O   UNL     1       7.187   5.790  16.952  0.00  0.00    +0.000 OA
BRANCH  30  31
ATOM     31  C   UNL     1       7.821   4.958  17.928  0.00  0.00    +0.000 C 
BRANCH  31  33
ATOM     32  F   UNL     1       8.239   6.948  19.091  0.00  0.00    +0.000 F 
ATOM     33  C   UNL     1       7.888   5.647  19.277  0.00  0.00    +0.000 C 
ATOM     34  F   UNL     1       6.658   5.666  19.852  0.00  0.00    +0.000 F 
ENDBRANCH  31  33
ENDBRANCH  30  31
ENDBRANCH  24  30
ENDBRANCH   1  29
TORSDOF 5
ENDMDL
MODEL 5
REMARK VINA RESULT:      -9.2      1.908      2.711
REMARK  Name = 
REMARK  5 active torsions:
REMARK  status: ('A' for Active; 'I' for Inactive)
REMARK    1  A    between atoms: C_2  and  C_4
REMARK    2  A    between atoms: C_4  and  O_5
REMARK    3  A    between atoms: O_5  and  C_6
REMARK    4  A    between atoms: C_11  and  C_12
REMARK    5  A    between atoms: N_19  and  C_20
REMARK                            x       y       z     vdW  Elec       q    Type
REMARK                         _______ _______ _______ _____ _____    ______ ____
ROOT
ATOM      1  C   UNL     1       4.154   5.167  18.168  0.00  0.00    +0.000 A 
ATOM      2  C   UNL     1       4.014   4.215  19.120  0.00  0.00    +0.000 A 
ATOM      3  C   UNL     1       3.107   4.372  20.256  0.00  0.00    +0.000 A 
ATOM      4  C   UNL     1       2.359   5.483  20.340  0.00  0.00    +0.000 A 
ATOM      5  N   UNL     1       2.480   6.470  19.374  0.00  0.00    +0.000 N 
ATOM      6  N   UNL     1       1.857   7.653  19.333  0.00  0.00    +0.000 NA
ATOM      7  C   UNL     1       2.335   8.202  18.230  0.00  0.00    +0.000 A 
ATOM      8  N   UNL     1       2.018   9.412  17.730  0.00  0.00    +0.000 N 
ATOM      9  N   UNL     1       3.246   7.457  17.549  0.00  0.00    +0.000 NA
ATOM     10  C   UNL     1       3.354   6.367  18.277  0.00  0.00    +0.000 A 
ATOM     11  H   UNL     1       2.563   9.654  16.905  0.00  0.00    +0.000 HD
ENDROOT
BRANCH   8  12
ATOM     12  C   UNL     1       1.659  10.572  18.432  0.00  0.00    +0.000 A 
ATOM     13  C   UNL     1       0.741  10.593  19.477  0.00  0.00    +0.000 A 
ATOM     14  C   UNL     1       0.631  11.721  20.308  0.00  0.00    +0.000 A 
ATOM     15  C   UNL     1       1.460  12.850  20.126  0.00  0.00    +0.000 A 
ATOM     16  C   UNL     1       2.273  12.883  19.000  0.00  0.00    +0.000 A 
ATOM     17  C   UNL     1       2.347  11.747  18.160  0.00  0.00    +0.000 A 
ATOM     18  C   UNL     1       3.017  14.086  18.489  0.00  0.00    +0.000 C 
ATOM     19  C   UNL     1       3.688  15.252  19.213  0.00  0.00    +0.000 C 
ATOM     20  N   UNL     1       3.133  15.735  20.461  0.00  0.00    +0.000 NA
ATOM     21  C   UNL     1       2.826  14.633  21.374  0.00  0.00    +0.000 C 
ATOM     22  C   UNL     1       1.449  13.977  21.126  0.00  0.00    +0.000 C 
ATOM     23  H   UNL     1       3.846  16.329  20.893  0.00  0.00    +0.000 HD
ENDBRANCH   8  12
BRANCH   1  29
ATOM     24  C   UNL     1       6.332   5.636  16.962  0.00  0.00    +0.000 A 
ATOM     25  C   UNL     1       7.176   5.375  15.872  0.00  0.00    +0.000 A 
ATOM     26  C   UNL     1       6.808   4.454  14.887  0.00  0.00    +0.000 A 
ATOM     27  C   UNL     1       5.597   3.783  14.977  0.00  0.00    +0.000 A 
ATOM     28  C   UNL     1       4.755   4.017  16.064  0.00  0.00    +0.000 A 
ATOM     29  C   UNL     1       5.114   4.934  17.067  0.00  0.00    +0.000 A 
BRANCH  24  30
ATOM     30  O   UNL     1       6.614   6.558  17.946  0.00  0.00    +0.000 OA
BRANCH  30  31
ATOM     31  C   UNL     1       6.807   7.907  17.511  0.00  0.00    +0.000 C 
BRANCH  31  33
ATOM     32  F   UNL     1       8.131   9.684  18.269  0.00  0.00    +0.000 F 
ATOM     33  C   UNL     1       8.204   8.395  17.841  0.00  0.00    +0.000 C 
ATOM     34  F   UNL     1       8.715   7.681  18.877  0.00  0.00    +0.000 F 
ENDBRANCH  31  33
ENDBRANCH  30  31
ENDBRANCH  24  30
ENDBRANCH   1  29
TORSDOF 5
ENDMDL
MODEL 6
REMARK VINA RESULT:      -9.2      4.240      7.017
REMARK  Name = 
REMARK  5 active torsions:
REMARK  status: ('A' for Active; 'I' for Inactive)
REMARK    1  A    between atoms: C_2  and  C_4
REMARK    2  A    between atoms: C_4  and  O_5
REMARK    3  A    between atoms: O_5  and  C_6
REMARK    4  A    between atoms: C_11  and  C_12
REMARK    5  A    between atoms: N_19  and  C_20
REMARK                            x       y       z     vdW  Elec       q    Type
REMARK                         _______ _______ _______ _____ _____    ______ ____
ROOT
ATOM      1  C   UNL     1       5.146   4.362  17.356  0.00  0.00    +0.000 A 
ATOM      2  C   UNL     1       4.971   3.833  16.123  0.00  0.00    +0.000 A 
ATOM      3  C   UNL     1       5.717   4.301  14.956  0.00  0.00    +0.000 A 
ATOM      4  C   UNL     1       6.635   5.265  15.119  0.00  0.00    +0.000 A 
ATOM      5  N   UNL     1       6.838   5.821  16.373  0.00  0.00    +0.000 N 
ATOM      6  N   UNL     1       7.667   6.819  16.700  0.00  0.00    +0.000 NA
ATOM      7  C   UNL     1       7.462   6.960  17.998  0.00  0.00    +0.000 A 
ATOM      8  N   UNL     1       8.065   7.845  18.816  0.00  0.00    +0.000 N 
ATOM      9  N   UNL     1       6.538   6.125  18.543  0.00  0.00    +0.000 NA
ATOM     10  C   UNL     1       6.128   5.412  17.517  0.00  0.00    +0.000 A 
ATOM     11  H   UNL     1       7.699   7.819  19.765  0.00  0.00    +0.000 HD
ENDROOT
BRANCH   8  12
ATOM     12  C   UNL     1       8.525   9.134  18.509  0.00  0.00    +0.000 A 
ATOM     13  C   UNL     1       8.141   9.846  17.378  0.00  0.00    +0.000 A 
ATOM     14  C   UNL     1       8.419  11.219  17.270  0.00  0.00    +0.000 A 
ATOM     15  C   UNL     1       9.069  11.920  18.308  0.00  0.00    +0.000 A 
ATOM     16  C   UNL     1       9.577  11.181  19.371  0.00  0.00    +0.000 A 
ATOM     17  C   UNL     1       9.310   9.794  19.446  0.00  0.00    +0.000 A 
ATOM     18  C   UNL     1      10.518  11.693  20.426  0.00  0.00    +0.000 C 
ATOM     19  C   UNL     1      10.654  13.060  21.094  0.00  0.00    +0.000 C 
ATOM     20  N   UNL     1      10.349  14.259  20.340  0.00  0.00    +0.000 NA
ATOM     21  C   UNL     1       9.082  14.131  19.618  0.00  0.00    +0.000 C 
ATOM     22  C   UNL     1       9.208  13.419  18.253  0.00  0.00    +0.000 C 
ATOM     23  H   UNL     1      10.263  15.022  21.018  0.00  0.00    +0.000 HD
ENDBRANCH   8  12
BRANCH   1  29
ATOM     24  C   UNL     1       3.067   4.378  18.804  0.00  0.00    +0.000 A 
ATOM     25  C   UNL     1       2.367   3.847  19.897  0.00  0.00    +0.000 A 
ATOM     26  C   UNL     1       2.919   2.822  20.669  0.00  0.00    +0.000 A 
ATOM     27  C   UNL     1       4.173   2.314  20.362  0.00  0.00    +0.000 A 
ATOM     28  C   UNL     1       4.875   2.818  19.267  0.00  0.00    +0.000 A 
ATOM     29  C   UNL     1       4.329   3.844  18.475  0.00  0.00    +0.000 A 
BRANCH  24  30
ATOM     30  O   UNL     1       2.600   5.414  18.024  0.00  0.00    +0.000 OA
BRANCH  30  31
ATOM     31  C   UNL     1       2.439   6.675  18.680  0.00  0.00    +0.000 C 
BRANCH  31  33
ATOM     32  F   UNL     1       3.739   7.256  16.820  0.00  0.00    +0.000 F 
ATOM     33  C   UNL     1       3.100   7.791  17.895  0.00  0.00    +0.000 C 
ATOM     34  F   UNL     1       2.157   8.630  17.395  0.00  0.00    +0.000 F 
ENDBRANCH  31  33
ENDBRANCH  30  31
ENDBRANCH  24  30
ENDBRANCH   1  29
TORSDOF 5
ENDMDL
MODEL 7
REMARK VINA RESULT:      -9.1      4.048      9.849
REMARK  Name = 
REMARK  5 active torsions:
REMARK  status: ('A' for Active; 'I' for Inactive)
REMARK    1  A    between atoms: C_2  and  C_4
REMARK    2  A    between atoms: C_4  and  O_5
REMARK    3  A    between atoms: O_5  and  C_6
REMARK    4  A    between atoms: C_11  and  C_12
REMARK    5  A    between atoms: N_19  and  C_20
REMARK                            x       y       z     vdW  Elec       q    Type
REMARK                         _______ _______ _______ _____ _____    ______ ____
ROOT
ATOM      1  C   UNL     1      -0.795  12.601  19.138  0.00  0.00    +0.000 A 
ATOM      2  C   UNL     1      -0.251  13.838  19.223  0.00  0.00    +0.000 A 
ATOM      3  C   UNL     1       1.170  14.087  18.987  0.00  0.00    +0.000 A 
ATOM      4  C   UNL     1       1.959  13.059  18.637  0.00  0.00    +0.000 A 
ATOM      5  N   UNL     1       1.425  11.783  18.537  0.00  0.00    +0.000 N 
ATOM      6  N   UNL     1       2.073  10.647  18.255  0.00  0.00    +0.000 NA
ATOM      7  C   UNL     1       1.113   9.740  18.300  0.00  0.00    +0.000 A 
ATOM      8  N   UNL     1       1.245   8.417  18.083  0.00  0.00    +0.000 N 
ATOM      9  N   UNL     1      -0.126  10.208  18.608  0.00  0.00    +0.000 NA
ATOM     10  C   UNL     1       0.068  11.498  18.775  0.00  0.00    +0.000 A 
ATOM     11  H   UNL     1       0.381   7.903  18.239  0.00  0.00    +0.000 HD
ENDROOT
BRANCH   8  12
ATOM     12  C   UNL     1       2.352   7.601  18.357  0.00  0.00    +0.000 A 
ATOM     13  C   UNL     1       2.489   6.844  19.516  0.00  0.00    +0.000 A 
ATOM     14  C   UNL     1       3.478   5.849  19.605  0.00  0.00    +0.000 A 
ATOM     15  C   UNL     1       4.340   5.571  18.522  0.00  0.00    +0.000 A 
ATOM     16  C   UNL     1       4.295   6.420  17.423  0.00  0.00    +0.000 A 
ATOM     17  C   UNL     1       3.310   7.435  17.366  0.00  0.00    +0.000 A 
ATOM     18  C   UNL     1       5.295   6.459  16.301  0.00  0.00    +0.000 C 
ATOM     19  C   UNL     1       6.114   5.358  15.628  0.00  0.00    +0.000 C 
ATOM     20  N   UNL     1       6.560   4.220  16.405  0.00  0.00    +0.000 NA
ATOM     21  C   UNL     1       5.477   3.669  17.220  0.00  0.00    +0.000 C 
ATOM     22  C   UNL     1       5.277   4.393  18.570  0.00  0.00    +0.000 C 
ATOM     23  H   UNL     1       6.863   3.505  15.737  0.00  0.00    +0.000 HD
ENDBRANCH   8  12
BRANCH   1  29
ATOM     24  C   UNL     1      -3.152  11.981  18.449  0.00  0.00    +0.000 A 
ATOM     25  C   UNL     1      -4.509  11.879  18.787  0.00  0.00    +0.000 A 
ATOM     26  C   UNL     1      -4.959  12.251  20.058  0.00  0.00    +0.000 A 
ATOM     27  C   UNL     1      -4.062  12.726  21.004  0.00  0.00    +0.000 A 
ATOM     28  C   UNL     1      -2.706  12.816  20.689  0.00  0.00    +0.000 A 
ATOM     29  C   UNL     1      -2.238  12.438  19.418  0.00  0.00    +0.000 A 
BRANCH  24  30
ATOM     30  O   UNL     1      -2.647  11.670  17.205  0.00  0.00    +0.000 OA
BRANCH  30  31
ATOM     31  C   UNL     1      -3.587  11.176  16.247  0.00  0.00    +0.000 C 
BRANCH  31  33
ATOM     32  F   UNL     1      -2.565  10.230  14.363  0.00  0.00    +0.000 F 
ATOM     33  C   UNL     1      -3.080   9.911  15.581  0.00  0.00    +0.000 C 
ATOM     34  F   UNL     1      -2.055   9.386  16.300  0.00  0.00    +0.000 F 
ENDBRANCH  31  33
ENDBRANCH  30  31
ENDBRANCH  24  30
ENDBRANCH   1  29
TORSDOF 5
ENDMDL
MODEL 8
REMARK VINA RESULT:      -9.0      1.192      1.381
REMARK  Name = 
REMARK  5 active torsions:
REMARK  status: ('A' for Active; 'I' for Inactive)
REMARK    1  A    between atoms: C_2  and  C_4
REMARK    2  A    between atoms: C_4  and  O_5
REMARK    3  A    between atoms: O_5  and  C_6
REMARK    4  A    between atoms: C_11  and  C_12
REMARK    5  A    between atoms: N_19  and  C_20
REMARK                            x       y       z     vdW  Elec       q    Type
REMARK                         _______ _______ _______ _____ _____    ______ ____
ROOT
ATOM      1  C   UNL     1       4.061   5.305  18.177  0.00  0.00    +0.000 A 
ATOM      2  C   UNL     1       3.855   4.336  19.100  0.00  0.00    +0.000 A 
ATOM      3  C   UNL     1       2.924   4.501  20.214  0.00  0.00    +0.000 A 
ATOM      4  C   UNL     1       2.219   5.639  20.307  0.00  0.00    +0.000 A 
ATOM      5  N   UNL     1       2.408   6.645  19.372  0.00  0.00    +0.000 N 
ATOM      6  N   UNL     1       1.834   7.854  19.345  0.00  0.00    +0.000 NA
ATOM      7  C   UNL     1       2.365   8.410  18.270  0.00  0.00    +0.000 A 
ATOM      8  N   UNL     1       2.112   9.645  17.795  0.00  0.00    +0.000 N 
ATOM      9  N   UNL     1       3.265   7.646  17.595  0.00  0.00    +0.000 NA
ATOM     10  C   UNL     1       3.307   6.534  18.296  0.00  0.00    +0.000 A 
ATOM     11  H   UNL     1       2.689   9.885  16.992  0.00  0.00    +0.000 HD
ENDROOT
BRANCH   8  12
ATOM     12  C   UNL     1       1.780  10.800  18.517  0.00  0.00    +0.000 A 
ATOM     13  C   UNL     1       2.279  12.065  18.229  0.00  0.00    +0.000 A 
ATOM     14  C   UNL     1       1.704  13.209  18.809  0.00  0.00    +0.000 A 
ATOM     15  C   UNL     1       0.593  13.113  19.674  0.00  0.00    +0.000 A 
ATOM     16  C   UNL     1       0.187  11.845  20.071  0.00  0.00    +0.000 A 
ATOM     17  C   UNL     1       0.800  10.705  19.497  0.00  0.00    +0.000 A 
ATOM     18  C   UNL     1      -0.785  11.539  21.176  0.00  0.00    +0.000 C 
ATOM     19  C   UNL     1      -2.030  12.274  21.671  0.00  0.00    +0.000 C 
ATOM     20  N   UNL     1      -2.084  13.720  21.598  0.00  0.00    +0.000 NA
ATOM     21  C   UNL     1      -1.649  14.208  20.289  0.00  0.00    +0.000 C 
ATOM     22  C   UNL     1      -0.117  14.353  20.151  0.00  0.00    +0.000 C 
ATOM     23  H   UNL     1      -3.063  13.988  21.739  0.00  0.00    +0.000 HD
ENDBRANCH   8  12
BRANCH   1  29
ATOM     24  C   UNL     1       6.239   5.795  16.981  0.00  0.00    +0.000 A 
ATOM     25  C   UNL     1       7.105   5.520  15.912  0.00  0.00    +0.000 A 
ATOM     26  C   UNL     1       6.777   4.552  14.958  0.00  0.00    +0.000 A 
ATOM     27  C   UNL     1       5.586   3.849  15.058  0.00  0.00    +0.000 A 
ATOM     28  C   UNL     1       4.723   4.097  16.125  0.00  0.00    +0.000 A 
ATOM     29  C   UNL     1       5.042   5.061  17.098  0.00  0.00    +0.000 A 
BRANCH  24  30
ATOM     30  O   UNL     1       6.481   6.761  17.933  0.00  0.00    +0.000 OA
BRANCH  30  31
ATOM     31  C   UNL     1       7.851   6.971  18.286  0.00  0.00    +0.000 C 
BRANCH  31  33
ATOM     32  F   UNL     1       7.192   9.150  17.733  0.00  0.00    +0.000 F 
ATOM     33  C   UNL     1       8.294   8.383  17.950  0.00  0.00    +0.000 C 
ATOM     34  F   UNL     1       8.935   8.934  19.012  0.00  0.00    +0.000 F 
ENDBRANCH  31  33
ENDBRANCH  30  31
ENDBRANCH  24  30
ENDBRANCH   1  29
TORSDOF 5
ENDMDL
MODEL 9
REMARK VINA RESULT:      -9.0      3.052      4.215
REMARK  Name = 
REMARK  5 active torsions:
REMARK  status: ('A' for Active; 'I' for Inactive)
REMARK    1  A    between atoms: C_2  and  C_4
REMARK    2  A    between atoms: C_4  and  O_5
REMARK    3  A    between atoms: O_5  and  C_6
REMARK    4  A    between atoms: C_11  and  C_12
REMARK    5  A    between atoms: N_19  and  C_20
REMARK                            x       y       z     vdW  Elec       q    Type
REMARK                         _______ _______ _______ _____ _____    ______ ____
ROOT
ATOM      1  C   UNL     1       3.487   5.978  18.808  0.00  0.00    +0.000 A 
ATOM      2  C   UNL     1       3.199   5.177  19.861  0.00  0.00    +0.000 A 
ATOM      3  C   UNL     1       2.251   5.565  20.904  0.00  0.00    +0.000 A 
ATOM      4  C   UNL     1       1.616   6.742  20.797  0.00  0.00    +0.000 A 
ATOM      5  N   UNL     1       1.889   7.579  19.725  0.00  0.00    +0.000 N 
ATOM      6  N   UNL     1       1.391   8.799  19.494  0.00  0.00    +0.000 NA
ATOM      7  C   UNL     1       1.982   9.150  18.365  0.00  0.00    +0.000 A 
ATOM      8  N   UNL     1       1.817  10.309  17.697  0.00  0.00    +0.000 N 
ATOM      9  N   UNL     1       2.850   8.241  17.847  0.00  0.00    +0.000 NA
ATOM     10  C   UNL     1       2.807   7.251  18.711  0.00  0.00    +0.000 A 
ATOM     11  H   UNL     1       2.428  10.388  16.887  0.00  0.00    +0.000 HD
ENDROOT
BRANCH   8  12
ATOM     12  C   UNL     1       1.538  11.579  18.221  0.00  0.00    +0.000 A 
ATOM     13  C   UNL     1       0.343  11.914  18.848  0.00  0.00    +0.000 A 
ATOM     14  C   UNL     1       0.233  13.105  19.585  0.00  0.00    +0.000 A 
ATOM     15  C   UNL     1       1.331  13.980  19.734  0.00  0.00    +0.000 A 
ATOM     16  C   UNL     1       2.476  13.716  18.993  0.00  0.00    +0.000 A 
ATOM     17  C   UNL     1       2.555  12.525  18.233  0.00  0.00    +0.000 A 
ATOM     18  C   UNL     1       3.637  14.653  18.805  0.00  0.00    +0.000 C 
ATOM     19  C   UNL     1       4.275  15.684  19.735  0.00  0.00    +0.000 C 
ATOM     20  N   UNL     1       3.449  16.397  20.688  0.00  0.00    +0.000 NA
ATOM     21  C   UNL     1       2.560  15.488  21.413  0.00  0.00    +0.000 C 
ATOM     22  C   UNL     1       1.249  15.162  20.664  0.00  0.00    +0.000 C 
ATOM     23  H   UNL     1       4.084  16.838  21.360  0.00  0.00    +0.000 HD
ENDBRANCH   8  12
BRANCH   1  29
ATOM     24  C   UNL     1       4.232   4.433  16.944  0.00  0.00    +0.000 A 
ATOM     25  C   UNL     1       5.236   4.038  16.047  0.00  0.00    +0.000 A 
ATOM     26  C   UNL     1       6.474   4.687  16.029  0.00  0.00    +0.000 A 
ATOM     27  C   UNL     1       6.725   5.735  16.903  0.00  0.00    +0.000 A 
ATOM     28  C   UNL     1       5.732   6.151  17.789  0.00  0.00    +0.000 A 
ATOM     29  C   UNL     1       4.478   5.514  17.813  0.00  0.00    +0.000 A 
BRANCH  24  30
ATOM     30  O   UNL     1       3.006   3.813  17.043  0.00  0.00    +0.000 OA
BRANCH  30  31
ATOM     31  C   UNL     1       3.005   2.499  17.606  0.00  0.00    +0.000 C 
BRANCH  31  33
ATOM     32  F   UNL     1       2.019   1.997  19.672  0.00  0.00    +0.000 F 
ATOM     33  C   UNL     1       1.720   2.227  18.365  0.00  0.00    +0.000 C 
ATOM     34  F   UNL     1       0.927   3.328  18.346  0.00  0.00    +0.000 F 
ENDBRANCH  31  33
ENDBRANCH  30  31
ENDBRANCH  24  30
ENDBRANCH   1  29
TORSDOF 5
ENDMDL
