MODEL 1
REMARK VINA RESULT:      -8.7      0.000      0.000
REMARK  Name = 
REMARK  12 active torsions:
REMARK  status: ('A' for Active; 'I' for Inactive)
REMARK    1  A    between atoms: C_1  and  O_2
REMARK    2  A    between atoms: O_2  and  C_3
REMARK    3  A    between atoms: C_6  and  C_7
REMARK    4  A    between atoms: C_8  and  C_9
REMARK    5  A    between atoms: C_9  and  O_11
REMARK    6  A    between atoms: O_11  and  C_12
REMARK    7  A    between atoms: C_12  and  C_13
REMARK    8  A    between atoms: C_12  and  C_14
REMARK    9  A    between atoms: C_14  and  C_16
REMARK   10  A    between atoms: C_18  and  C_19
REMARK   11  A    between atoms: C_19  and  O_20
REMARK   12  A    between atoms: C_19  and  C_21
REMARK                            x       y       z     vdW  Elec       q    Type
REMARK                         _______ _______ _______ _____ _____    ______ ____
ROOT
ATOM      1  C   UNL     1       3.476   2.732  19.553  0.00  0.00    +0.000 C 
ATOM      2  C   UNL     1       4.712   2.265  20.329  0.00  0.00    +0.000 C 
ENDROOT
BRANCH   1   3
ATOM      3  C   UNL     1       3.483   2.211  18.081  0.00  0.00    +0.000 C 
ATOM      4  O   UNL     1       3.863   1.085  17.779  0.00  0.00    +0.000 OA
BRANCH   3   5
ATOM      5  C   UNL     1       3.118   3.187  17.022  0.00  0.00    +0.000 C 
ATOM      6  C   UNL     1       3.116   4.671  17.308  0.00  0.00    +0.000 C 
ATOM      7  C   UNL     1       4.024   4.134  16.236  0.00  0.00    +0.000 C 
BRANCH   7   8
ATOM      8  C   UNL     1       5.477   4.531  16.227  0.00  0.00    +0.000 C 
BRANCH   8   9
ATOM      9  C   UNL     1       6.149   5.422  17.288  0.00  0.00    +0.000 C 
ATOM     10  C   UNL     1       7.339   4.651  17.905  0.00  0.00    +0.000 C 
ATOM     11  C   UNL     1       7.941   5.510  18.970  0.00  0.00    +0.000 C 
ATOM     12  C   UNL     1       7.978   6.831  18.775  0.00  0.00    +0.000 C 
ATOM     13  C   UNL     1       7.515   7.411  17.493  0.00  0.00    +0.000 C 
ATOM     14  O   UNL     1       7.921   8.509  17.132  0.00  0.00    +0.000 OA
ATOM     15  O   UNL     1       6.673   6.651  16.733  0.00  0.00    +0.000 OA
ENDBRANCH   8   9
BRANCH   8  16
ATOM     16  O   UNL     1       6.211   3.297  16.142  0.00  0.00    +0.000 OA
ATOM     17  H   UNL     1       5.623   2.597  16.478  0.00  0.00    +0.000 HD
ENDBRANCH   8  16
ENDBRANCH   7   8
ENDBRANCH   3   5
ENDBRANCH   1   3
BRANCH   1  18
ATOM     18  O   UNL     1       2.301   2.623  20.373  0.00  0.00    +0.000 OA
BRANCH  18  19
ATOM     19  C   UNL     1       2.053   3.562  21.316  0.00  0.00    +0.000 C 
ATOM     20  O   UNL     1       2.134   3.414  22.524  0.00  0.00    +0.000 OA
BRANCH  19  22
ATOM     21  C   UNL     1       2.276   5.962  20.759  0.00  0.00    +0.000 C 
ATOM     22  C   UNL     1       1.608   4.799  20.633  0.00  0.00    +0.000 C 
BRANCH  21  26
ATOM     23  C   UNL     1       1.105   9.798  19.186  0.00  0.00    +0.000 A 
ATOM     24  C   UNL     1       1.814   8.882  18.409  0.00  0.00    +0.000 A 
ATOM     25  C   UNL     1       2.145   7.618  18.914  0.00  0.00    +0.000 A 
ATOM     26  C   UNL     1       1.803   7.257  20.225  0.00  0.00    +0.000 A 
ATOM     27  C   UNL     1       1.043   8.163  20.978  0.00  0.00    +0.000 A 
ATOM     28  C   UNL     1       0.705   9.427  20.468  0.00  0.00    +0.000 A 
BRANCH  23  30
ATOM     29  C   UNL     1       1.790  12.061  18.983  0.00  0.00    +0.000 C 
ATOM     30  O   UNL     1       0.898  11.019  18.606  0.00  0.00    +0.000 OA
ENDBRANCH  23  30
ENDBRANCH  21  26
ENDBRANCH  19  22
ENDBRANCH  18  19
ENDBRANCH   1  18
TORSDOF 10
ENDMDL
MODEL 2
REMARK VINA RESULT:      -8.7      3.907      7.429
REMARK  Name = 
REMARK  12 active torsions:
REMARK  status: ('A' for Active; 'I' for Inactive)
REMARK    1  A    between atoms: C_1  and  O_2
REMARK    2  A    between atoms: O_2  and  C_3
REMARK    3  A    between atoms: C_6  and  C_7
REMARK    4  A    between atoms: C_8  and  C_9
REMARK    5  A    between atoms: C_9  and  O_11
REMARK    6  A    between atoms: O_11  and  C_12
REMARK    7  A    between atoms: C_12  and  C_13
REMARK    8  A    between atoms: C_12  and  C_14
REMARK    9  A    between atoms: C_14  and  C_16
REMARK   10  A    between atoms: C_18  and  C_19
REMARK   11  A    between atoms: C_19  and  O_20
REMARK   12  A    between atoms: C_19  and  C_21
REMARK                            x       y       z     vdW  Elec       q    Type
REMARK                         _______ _______ _______ _____ _____    ______ ____
ROOT
ATOM      1  C   UNL     1       6.305   6.735  16.820  0.00  0.00    +0.000 C 
ATOM      2  C   UNL     1       4.878   7.293  16.871  0.00  0.00    +0.000 C 
ENDROOT
BRANCH   1   3
ATOM      3  C   UNL     1       6.441   5.584  15.773  0.00  0.00    +0.000 C 
ATOM      4  O   UNL     1       7.366   5.526  14.970  0.00  0.00    +0.000 OA
BRANCH   3   5
ATOM      5  C   UNL     1       5.325   4.607  15.702  0.00  0.00    +0.000 C 
ATOM      6  C   UNL     1       5.528   3.171  16.128  0.00  0.00    +0.000 C 
ATOM      7  C   UNL     1       4.500   4.007  16.839  0.00  0.00    +0.000 C 
BRANCH   7   8
ATOM      8  C   UNL     1       4.487   4.046  18.344  0.00  0.00    +0.000 C 
BRANCH   8   9
ATOM      9  C   UNL     1       3.360   3.476  19.226  0.00  0.00    +0.000 C 
ATOM     10  C   UNL     1       2.786   4.615  20.100  0.00  0.00    +0.000 C 
ATOM     11  C   UNL     1       1.736   4.029  20.988  0.00  0.00    +0.000 C 
ATOM     12  C   UNL     1       0.965   3.054  20.501  0.00  0.00    +0.000 C 
ATOM     13  C   UNL     1       1.094   2.633  19.087  0.00  0.00    +0.000 C 
ATOM     14  O   UNL     1       0.159   2.081  18.521  0.00  0.00    +0.000 OA
ATOM     15  O   UNL     1       2.265   2.932  18.452  0.00  0.00    +0.000 OA
ENDBRANCH   8   9
BRANCH   8  16
ATOM     16  O   UNL     1       5.728   3.448  18.754  0.00  0.00    +0.000 OA
ATOM     17  H   UNL     1       5.707   3.395  19.727  0.00  0.00    +0.000 HD
ENDBRANCH   8  16
ENDBRANCH   7   8
ENDBRANCH   3   5
ENDBRANCH   1   3
BRANCH   1  18
ATOM     18  O   UNL     1       7.262   7.804  16.876  0.00  0.00    +0.000 OA
BRANCH  18  19
ATOM     19  C   UNL     1       8.010   7.975  17.991  0.00  0.00    +0.000 C 
ATOM     20  O   UNL     1       8.319   7.112  18.796  0.00  0.00    +0.000 OA
BRANCH  19  22
ATOM     21  C   UNL     1       9.319   9.852  18.933  0.00  0.00    +0.000 C 
ATOM     22  C   UNL     1       8.351   9.413  18.105  0.00  0.00    +0.000 C 
BRANCH  21  26
ATOM     23  C   UNL     1      10.303  13.999  19.554  0.00  0.00    +0.000 A 
ATOM     24  C   UNL     1       9.743  13.560  18.355  0.00  0.00    +0.000 A 
ATOM     25  C   UNL     1       9.379  12.217  18.183  0.00  0.00    +0.000 A 
ATOM     26  C   UNL     1       9.604  11.277  19.199  0.00  0.00    +0.000 A 
ATOM     27  C   UNL     1      10.117  11.741  20.419  0.00  0.00    +0.000 A 
ATOM     28  C   UNL     1      10.473  13.087  20.593  0.00  0.00    +0.000 A 
BRANCH  23  30
ATOM     29  C   UNL     1       9.782  16.238  18.961  0.00  0.00    +0.000 C 
ATOM     30  O   UNL     1      10.674  15.316  19.576  0.00  0.00    +0.000 OA
ENDBRANCH  23  30
ENDBRANCH  21  26
ENDBRANCH  19  22
ENDBRANCH  18  19
ENDBRANCH   1  18
TORSDOF 10
ENDMDL
MODEL 3
REMARK VINA RESULT:      -8.6      3.558      7.336
REMARK  Name = 
REMARK  12 active torsions:
REMARK  status: ('A' for Active; 'I' for Inactive)
REMARK    1  A    between atoms: C_1  and  O_2
REMARK    2  A    between atoms: O_2  and  C_3
REMARK    3  A    between atoms: C_6  and  C_7
REMARK    4  A    between atoms: C_8  and  C_9
REMARK    5  A    between atoms: C_9  and  O_11
REMARK    6  A    between atoms: O_11  and  C_12
REMARK    7  A    between atoms: C_12  and  C_13
REMARK    8  A    between atoms: C_12  and  C_14
REMARK    9  A    between atoms: C_14  and  C_16
REMARK   10  A    between atoms: C_18  and  C_19
REMARK   11  A    between atoms: C_19  and  O_20
REMARK   12  A    between atoms: C_19  and  C_21
REMARK                            x       y       z     vdW  Elec       q    Type
REMARK                         _______ _______ _______ _____ _____    ______ ____
ROOT
ATOM      1  C   UNL     1       5.538   6.836  17.002  0.00  0.00    +0.000 C 
ATOM      2  C   UNL     1       4.252   7.561  17.414  0.00  0.00    +0.000 C 
ENDROOT
BRANCH   1   3
ATOM      3  C   UNL     1       5.360   6.052  15.663  0.00  0.00    +0.000 C 
ATOM      4  O   UNL     1       5.399   6.598  14.565  0.00  0.00    +0.000 OA
BRANCH   3   5
ATOM      5  C   UNL     1       5.014   4.611  15.770  0.00  0.00    +0.000 C 
ATOM      6  C   UNL     1       5.999   3.622  16.348  0.00  0.00    +0.000 C 
ATOM      7  C   UNL     1       4.663   3.798  17.014  0.00  0.00    +0.000 C 
BRANCH   7   8
ATOM      8  C   UNL     1       4.599   4.015  18.503  0.00  0.00    +0.000 C 
BRANCH   8   9
ATOM      9  C   UNL     1       3.384   3.678  19.388  0.00  0.00    +0.000 C 
ATOM     10  C   UNL     1       2.766   4.996  19.910  0.00  0.00    +0.000 C 
ATOM     11  C   UNL     1       1.626   4.643  20.810  0.00  0.00    +0.000 C 
ATOM     12  C   UNL     1       0.875   3.584  20.499  0.00  0.00    +0.000 C 
ATOM     13  C   UNL     1       1.118   2.837  19.244  0.00  0.00    +0.000 C 
ATOM     14  O   UNL     1       0.222   2.170  18.740  0.00  0.00    +0.000 OA
ATOM     15  O   UNL     1       2.348   2.971  18.666  0.00  0.00    +0.000 OA
ENDBRANCH   8   9
BRANCH   8  16
ATOM     16  O   UNL     1       5.750   3.340  19.039  0.00  0.00    +0.000 OA
ATOM     17  H   UNL     1       5.992   2.646  18.399  0.00  0.00    +0.000 HD
ENDBRANCH   8  16
ENDBRANCH   7   8
ENDBRANCH   3   5
ENDBRANCH   1   3
BRANCH   1  18
ATOM     18  O   UNL     1       6.680   7.680  17.220  0.00  0.00    +0.000 OA
BRANCH  18  19
ATOM     19  C   UNL     1       7.697   7.243  17.999  0.00  0.00    +0.000 C 
ATOM     20  O   UNL     1       7.927   6.085  18.308  0.00  0.00    +0.000 OA
BRANCH  19  22
ATOM     21  C   UNL     1       8.242   9.656  17.974  0.00  0.00    +0.000 C 
ATOM     22  C   UNL     1       8.462   8.421  18.468  0.00  0.00    +0.000 C 
BRANCH  21  26
ATOM     23  C   UNL     1      10.700  13.120  18.690  0.00  0.00    +0.000 A 
ATOM     24  C   UNL     1       9.542  13.201  17.918  0.00  0.00    +0.000 A 
ATOM     25  C   UNL     1       8.722  12.079  17.735  0.00  0.00    +0.000 A 
ATOM     26  C   UNL     1       9.068  10.840  18.292  0.00  0.00    +0.000 A 
ATOM     27  C   UNL     1      10.205  10.783  19.111  0.00  0.00    +0.000 A 
ATOM     28  C   UNL     1      11.020  11.910  19.301  0.00  0.00    +0.000 A 
BRANCH  23  30
ATOM     29  C   UNL     1      11.616  14.970  17.518  0.00  0.00    +0.000 C 
ATOM     30  O   UNL     1      11.448  14.264  18.742  0.00  0.00    +0.000 OA
ENDBRANCH  23  30
ENDBRANCH  21  26
ENDBRANCH  19  22
ENDBRANCH  18  19
ENDBRANCH   1  18
TORSDOF 10
ENDMDL
MODEL 4
REMARK VINA RESULT:      -8.6      1.878      2.808
REMARK  Name = 
REMARK  12 active torsions:
REMARK  status: ('A' for Active; 'I' for Inactive)
REMARK    1  A    between atoms: C_1  and  O_2
REMARK    2  A    between atoms: O_2  and  C_3
REMARK    3  A    between atoms: C_6  and  C_7
REMARK    4  A    between atoms: C_8  and  C_9
REMARK    5  A    between atoms: C_9  and  O_11
REMARK    6  A    between atoms: O_11  and  C_12
REMARK    7  A    between atoms: C_12  and  C_13
REMARK    8  A    between atoms: C_12  and  C_14
REMARK    9  A    between atoms: C_14  and  C_16
REMARK   10  A    between atoms: C_18  and  C_19
REMARK   11  A    between atoms: C_19  and  O_20
REMARK   12  A    between atoms: C_19  and  C_21
REMARK                            x       y       z     vdW  Elec       q    Type
REMARK                         _______ _______ _______ _____ _____    ______ ____
ROOT
ATOM      1  C   UNL     1       2.611   2.870  18.743  0.00  0.00    +0.000 C 
ATOM      2  C   UNL     1       1.656   3.606  17.796  0.00  0.00    +0.000 C 
ENDROOT
BRANCH   1   3
ATOM      3  C   UNL     1       4.051   3.472  18.698  0.00  0.00    +0.000 C 
ATOM      4  O   UNL     1       5.014   2.925  19.225  0.00  0.00    +0.000 OA
BRANCH   3   5
ATOM      5  C   UNL     1       4.197   4.817  18.085  0.00  0.00    +0.000 C 
ATOM      6  C   UNL     1       5.191   5.813  18.638  0.00  0.00    +0.000 C 
ATOM      7  C   UNL     1       5.329   5.356  17.212  0.00  0.00    +0.000 C 
BRANCH   7   8
ATOM      8  C   UNL     1       6.668   4.884  16.710  0.00  0.00    +0.000 C 
BRANCH   8   9
ATOM      9  C   UNL     1       6.954   4.431  15.266  0.00  0.00    +0.000 C 
ATOM     10  C   UNL     1       5.609   4.161  14.552  0.00  0.00    +0.000 C 
ATOM     11  C   UNL     1       5.911   3.669  13.174  0.00  0.00    +0.000 C 
ATOM     12  C   UNL     1       6.962   4.184  12.531  0.00  0.00    +0.000 C 
ATOM     13  C   UNL     1       7.748   5.280  13.142  0.00  0.00    +0.000 C 
ATOM     14  O   UNL     1       8.409   6.032  12.435  0.00  0.00    +0.000 OA
ATOM     15  O   UNL     1       7.658   5.433  14.495  0.00  0.00    +0.000 OA
ENDBRANCH   8   9
BRANCH   8  16
ATOM     16  O   UNL     1       7.595   5.931  17.047  0.00  0.00    +0.000 OA
ATOM     17  H   UNL     1       8.029   5.665  17.878  0.00  0.00    +0.000 HD
ENDBRANCH   8  16
ENDBRANCH   7   8
ENDBRANCH   3   5
ENDBRANCH   1   3
BRANCH   1  18
ATOM     18  O   UNL     1       1.961   2.597  19.994  0.00  0.00    +0.000 OA
BRANCH  18  19
ATOM     19  C   UNL     1       1.945   3.544  20.962  0.00  0.00    +0.000 C 
ATOM     20  O   UNL     1       2.105   3.361  22.157  0.00  0.00    +0.000 OA
BRANCH  19  22
ATOM     21  C   UNL     1       2.076   6.012  20.852  0.00  0.00    +0.000 C 
ATOM     22  C   UNL     1       1.642   4.848  20.328  0.00  0.00    +0.000 C 
BRANCH  21  26
ATOM     23  C   UNL     1       1.151   9.948  19.367  0.00  0.00    +0.000 A 
ATOM     24  C   UNL     1       1.740   8.986  18.548  0.00  0.00    +0.000 A 
ATOM     25  C   UNL     1       1.989   7.692  19.027  0.00  0.00    +0.000 A 
ATOM     26  C   UNL     1       1.686   7.347  20.352  0.00  0.00    +0.000 A 
ATOM     27  C   UNL     1       1.044   8.305  21.149  0.00  0.00    +0.000 A 
ATOM     28  C   UNL     1       0.787   9.598  20.665  0.00  0.00    +0.000 A 
BRANCH  23  30
ATOM     29  C   UNL     1      -0.175  11.901  19.115  0.00  0.00    +0.000 C 
ATOM     30  O   UNL     1       1.017  11.189  18.806  0.00  0.00    +0.000 OA
ENDBRANCH  23  30
ENDBRANCH  21  26
ENDBRANCH  19  22
ENDBRANCH  18  19
ENDBRANCH   1  18
TORSDOF 10
ENDMDL
MODEL 5
REMARK VINA RESULT:      -8.6      2.125      3.068
REMARK  Name = 
REMARK  12 active torsions:
REMARK  status: ('A' for Active; 'I' for Inactive)
REMARK    1  A    between atoms: C_1  and  O_2
REMARK    2  A    between atoms: O_2  and  C_3
REMARK    3  A    between atoms: C_6  and  C_7
REMARK    4  A    between atoms: C_8  and  C_9
REMARK    5  A    between atoms: C_9  and  O_11
REMARK    6  A    between atoms: O_11  and  C_12
REMARK    7  A    between atoms: C_12  and  C_13
REMARK    8  A    between atoms: C_12  and  C_14
REMARK    9  A    between atoms: C_14  and  C_16
REMARK   10  A    between atoms: C_18  and  C_19
REMARK   11  A    between atoms: C_19  and  O_20
REMARK   12  A    between atoms: C_19  and  C_21
REMARK                            x       y       z     vdW  Elec       q    Type
REMARK                         _______ _______ _______ _____ _____    ______ ____
ROOT
ATOM      1  C   UNL     1       4.161   3.559  19.630  0.00  0.00    +0.000 C 
ATOM      2  C   UNL     1       4.391   2.122  20.112  0.00  0.00    +0.000 C 
ENDROOT
BRANCH   1   3
ATOM      3  C   UNL     1       3.864   3.617  18.098  0.00  0.00    +0.000 C 
ATOM      4  O   UNL     1       3.614   2.618  17.433  0.00  0.00    +0.000 OA
BRANCH   3   5
ATOM      5  C   UNL     1       4.014   4.939  17.435  0.00  0.00    +0.000 C 
ATOM      6  C   UNL     1       4.929   5.993  18.016  0.00  0.00    +0.000 C 
ATOM      7  C   UNL     1       5.193   5.478  16.627  0.00  0.00    +0.000 C 
BRANCH   7   8
ATOM      8  C   UNL     1       6.582   5.033  16.253  0.00  0.00    +0.000 C 
BRANCH   8   9
ATOM      9  C   UNL     1       7.001   4.552  14.851  0.00  0.00    +0.000 C 
ATOM     10  C   UNL     1       5.740   4.085  14.087  0.00  0.00    +0.000 C 
ATOM     11  C   UNL     1       6.176   3.570  12.753  0.00  0.00    +0.000 C 
ATOM     12  C   UNL     1       7.191   4.181  12.137  0.00  0.00    +0.000 C 
ATOM     13  C   UNL     1       7.803   5.394  12.727  0.00  0.00    +0.000 C 
ATOM     14  O   UNL     1       8.406   6.188  12.015  0.00  0.00    +0.000 OA
ATOM     15  O   UNL     1       7.620   5.597  14.064  0.00  0.00    +0.000 OA
ENDBRANCH   8   9
BRANCH   8  16
ATOM     16  O   UNL     1       7.449   6.113  16.638  0.00  0.00    +0.000 OA
ATOM     17  H   UNL     1       7.198   6.366  17.545  0.00  0.00    +0.000 HD
ENDBRANCH   8  16
ENDBRANCH   7   8
ENDBRANCH   3   5
ENDBRANCH   1   3
BRANCH   1  18
ATOM     18  O   UNL     1       3.346   4.277  20.571  0.00  0.00    +0.000 OA
BRANCH  18  19
ATOM     19  C   UNL     1       2.000   4.146  20.526  0.00  0.00    +0.000 C 
ATOM     20  O   UNL     1       1.374   3.100  20.484  0.00  0.00    +0.000 OA
BRANCH  19  22
ATOM     21  C   UNL     1       2.127   6.587  20.141  0.00  0.00    +0.000 C 
ATOM     22  C   UNL     1       1.403   5.502  20.480  0.00  0.00    +0.000 C 
BRANCH  21  26
ATOM     23  C   UNL     1       0.483  10.559  20.419  0.00  0.00    +0.000 A 
ATOM     24  C   UNL     1       0.583   9.736  21.541  0.00  0.00    +0.000 A 
ATOM     25  C   UNL     1       1.167   8.466  21.448  0.00  0.00    +0.000 A 
ATOM     26  C   UNL     1       1.630   7.977  20.219  0.00  0.00    +0.000 A 
ATOM     27  C   UNL     1       1.575   8.833  19.110  0.00  0.00    +0.000 A 
ATOM     28  C   UNL     1       0.998  10.109  19.206  0.00  0.00    +0.000 A 
BRANCH  23  30
ATOM     29  C   UNL     1      -0.718  12.374  19.474  0.00  0.00    +0.000 C 
ATOM     30  O   UNL     1      -0.161  11.748  20.623  0.00  0.00    +0.000 OA
ENDBRANCH  23  30
ENDBRANCH  21  26
ENDBRANCH  19  22
ENDBRANCH  18  19
ENDBRANCH   1  18
TORSDOF 10
ENDMDL
MODEL 6
REMARK VINA RESULT:      -8.4      1.376      1.969
REMARK  Name = 
REMARK  12 active torsions:
REMARK  status: ('A' for Active; 'I' for Inactive)
REMARK    1  A    between atoms: C_1  and  O_2
REMARK    2  A    between atoms: O_2  and  C_3
REMARK    3  A    between atoms: C_6  and  C_7
REMARK    4  A    between atoms: C_8  and  C_9
REMARK    5  A    between atoms: C_9  and  O_11
REMARK    6  A    between atoms: O_11  and  C_12
REMARK    7  A    between atoms: C_12  and  C_13
REMARK    8  A    between atoms: C_12  and  C_14
REMARK    9  A    between atoms: C_14  and  C_16
REMARK   10  A    between atoms: C_18  and  C_19
REMARK   11  A    between atoms: C_19  and  O_20
REMARK   12  A    between atoms: C_19  and  C_21
REMARK                            x       y       z     vdW  Elec       q    Type
REMARK                         _______ _______ _______ _____ _____    ______ ____
ROOT
ATOM      1  C   UNL     1       2.822   2.535  19.064  0.00  0.00    +0.000 C 
ATOM      2  C   UNL     1       2.360   1.720  17.851  0.00  0.00    +0.000 C 
ENDROOT
BRANCH   1   3
ATOM      3  C   UNL     1       3.849   3.641  18.664  0.00  0.00    +0.000 C 
ATOM      4  O   UNL     1       4.820   3.926  19.356  0.00  0.00    +0.000 OA
BRANCH   3   5
ATOM      5  C   UNL     1       3.538   4.437  17.448  0.00  0.00    +0.000 C 
ATOM      6  C   UNL     1       3.939   5.891  17.354  0.00  0.00    +0.000 C 
ATOM      7  C   UNL     1       4.481   4.915  16.346  0.00  0.00    +0.000 C 
BRANCH   7   8
ATOM      8  C   UNL     1       5.959   4.889  16.059  0.00  0.00    +0.000 C 
BRANCH   8   9
ATOM      9  C   UNL     1       7.032   5.591  16.913  0.00  0.00    +0.000 C 
ATOM     10  C   UNL     1       6.707   7.102  16.977  0.00  0.00    +0.000 C 
ATOM     11  C   UNL     1       7.789   7.772  17.761  0.00  0.00    +0.000 C 
ATOM     12  C   UNL     1       8.321   7.118  18.796  0.00  0.00    +0.000 C 
ATOM     13  C   UNL     1       7.783   5.800  19.205  0.00  0.00    +0.000 C 
ATOM     14  O   UNL     1       7.945   5.398  20.351  0.00  0.00    +0.000 OA
ATOM     15  O   UNL     1       7.072   5.100  18.273  0.00  0.00    +0.000 OA
ENDBRANCH   8   9
BRANCH   8  16
ATOM     16  O   UNL     1       6.305   3.497  15.954  0.00  0.00    +0.000 OA
ATOM     17  H   UNL     1       5.560   2.993  16.328  0.00  0.00    +0.000 HD
ENDBRANCH   8  16
ENDBRANCH   7   8
ENDBRANCH   3   5
ENDBRANCH   1   3
BRANCH   1  18
ATOM     18  O   UNL     1       1.708   2.833  19.920  0.00  0.00    +0.000 OA
BRANCH  18  19
ATOM     19  C   UNL     1       1.854   3.731  20.922  0.00  0.00    +0.000 C 
ATOM     20  O   UNL     1       2.195   3.489  22.068  0.00  0.00    +0.000 OA
BRANCH  19  22
ATOM     21  C   UNL     1       2.142   6.183  20.758  0.00  0.00    +0.000 C 
ATOM     22  C   UNL     1       1.474   5.067  20.406  0.00  0.00    +0.000 C 
BRANCH  21  26
ATOM     23  C   UNL     1       0.716  10.121  19.748  0.00  0.00    +0.000 A 
ATOM     24  C   UNL     1       0.630   9.632  21.052  0.00  0.00    +0.000 A 
ATOM     25  C   UNL     1       1.143   8.369  21.379  0.00  0.00    +0.000 A 
ATOM     26  C   UNL     1       1.723   7.554  20.397  0.00  0.00    +0.000 A 
ATOM     27  C   UNL     1       1.854   8.078  19.103  0.00  0.00    +0.000 A 
ATOM     28  C   UNL     1       1.346   9.346  18.778  0.00  0.00    +0.000 A 
BRANCH  23  30
ATOM     29  C   UNL     1      -0.769  11.428  18.437  0.00  0.00    +0.000 C 
ATOM     30  O   UNL     1       0.123  11.336  19.541  0.00  0.00    +0.000 OA
ENDBRANCH  23  30
ENDBRANCH  21  26
ENDBRANCH  19  22
ENDBRANCH  18  19
ENDBRANCH   1  18
TORSDOF 10
ENDMDL
MODEL 7
REMARK VINA RESULT:      -8.4      1.226      1.573
REMARK  Name = 
REMARK  12 active torsions:
REMARK  status: ('A' for Active; 'I' for Inactive)
REMARK    1  A    between atoms: C_1  and  O_2
REMARK    2  A    between atoms: O_2  and  C_3
REMARK    3  A    between atoms: C_6  and  C_7
REMARK    4  A    between atoms: C_8  and  C_9
REMARK    5  A    between atoms: C_9  and  O_11
REMARK    6  A    between atoms: O_11  and  C_12
REMARK    7  A    between atoms: C_12  and  C_13
REMARK    8  A    between atoms: C_12  and  C_14
REMARK    9  A    between atoms: C_14  and  C_16
REMARK   10  A    between atoms: C_18  and  C_19
REMARK   11  A    between atoms: C_19  and  O_20
REMARK   12  A    between atoms: C_19  and  C_21
REMARK                            x       y       z     vdW  Elec       q    Type
REMARK                         _______ _______ _______ _____ _____    ______ ____
ROOT
ATOM      1  C   UNL     1       3.455   2.369  19.527  0.00  0.00    +0.000 C 
ATOM      2  C   UNL     1       3.443   1.080  18.698  0.00  0.00    +0.000 C 
ENDROOT
BRANCH   1   3
ATOM      3  C   UNL     1       4.348   3.471  18.876  0.00  0.00    +0.000 C 
ATOM      4  O   UNL     1       5.381   3.880  19.396  0.00  0.00    +0.000 OA
BRANCH   3   5
ATOM      5  C   UNL     1       3.832   4.107  17.636  0.00  0.00    +0.000 C 
ATOM      6  C   UNL     1       3.982   5.594  17.412  0.00  0.00    +0.000 C 
ATOM      7  C   UNL     1       4.611   4.639  16.435  0.00  0.00    +0.000 C 
BRANCH   7   8
ATOM      8  C   UNL     1       6.051   4.826  16.037  0.00  0.00    +0.000 C 
BRANCH   8   9
ATOM      9  C   UNL     1       7.089   5.625  16.848  0.00  0.00    +0.000 C 
ATOM     10  C   UNL     1       6.646   7.105  16.903  0.00  0.00    +0.000 C 
ATOM     11  C   UNL     1       7.694   7.871  17.645  0.00  0.00    +0.000 C 
ATOM     12  C   UNL     1       8.308   7.277  18.671  0.00  0.00    +0.000 C 
ATOM     13  C   UNL     1       7.891   5.927  19.113  0.00  0.00    +0.000 C 
ATOM     14  O   UNL     1       8.118   5.556  20.258  0.00  0.00    +0.000 OA
ATOM     15  O   UNL     1       7.210   5.159  18.213  0.00  0.00    +0.000 OA
ENDBRANCH   8   9
BRANCH   8  16
ATOM     16  O   UNL     1       6.566   3.500  15.826  0.00  0.00    +0.000 OA
ATOM     17  H   UNL     1       6.665   3.094  16.706  0.00  0.00    +0.000 HD
ENDBRANCH   8  16
ENDBRANCH   7   8
ENDBRANCH   3   5
ENDBRANCH   1   3
BRANCH   1  18
ATOM     18  O   UNL     1       2.132   2.671  20.000  0.00  0.00    +0.000 OA
BRANCH  18  19
ATOM     19  C   UNL     1       1.970   3.530  21.033  0.00  0.00    +0.000 C 
ATOM     20  O   UNL     1       2.139   3.281  22.216  0.00  0.00    +0.000 OA
BRANCH  19  22
ATOM     21  C   UNL     1       2.227   5.949  20.583  0.00  0.00    +0.000 C 
ATOM     22  C   UNL     1       1.492   4.823  20.491  0.00  0.00    +0.000 C 
BRANCH  21  26
ATOM     23  C   UNL     1       1.032   9.921  19.420  0.00  0.00    +0.000 A 
ATOM     24  C   UNL     1       1.632   9.050  18.511  0.00  0.00    +0.000 A 
ATOM     25  C   UNL     1       1.969   7.743  18.887  0.00  0.00    +0.000 A 
ATOM     26  C   UNL     1       1.745   7.292  20.195  0.00  0.00    +0.000 A 
ATOM     27  C   UNL     1       1.092   8.157  21.084  0.00  0.00    +0.000 A 
ATOM     28  C   UNL     1       0.746   9.464  20.704  0.00  0.00    +0.000 A 
BRANCH  23  30
ATOM     29  C   UNL     1       1.960  11.978  18.686  0.00  0.00    +0.000 C 
ATOM     30  O   UNL     1       0.808  11.187  18.954  0.00  0.00    +0.000 OA
ENDBRANCH  23  30
ENDBRANCH  21  26
ENDBRANCH  19  22
ENDBRANCH  18  19
ENDBRANCH   1  18
TORSDOF 10
ENDMDL
MODEL 8
REMARK VINA RESULT:      -8.4      3.651      7.431
REMARK  Name = 
REMARK  12 active torsions:
REMARK  status: ('A' for Active; 'I' for Inactive)
REMARK    1  A    between atoms: C_1  and  O_2
REMARK    2  A    between atoms: O_2  and  C_3
REMARK    3  A    between atoms: C_6  and  C_7
REMARK    4  A    between atoms: C_8  and  C_9
REMARK    5  A    between atoms: C_9  and  O_11
REMARK    6  A    between atoms: O_11  and  C_12
REMARK    7  A    between atoms: C_12  and  C_13
REMARK    8  A    between atoms: C_12  and  C_14
REMARK    9  A    between atoms: C_14  and  C_16
REMARK   10  A    between atoms: C_18  and  C_19
REMARK   11  A    between atoms: C_19  and  O_20
REMARK   12  A    between atoms: C_19  and  C_21
REMARK                            x       y       z     vdW  Elec       q    Type
REMARK                         _______ _______ _______ _____ _____    ______ ____
ROOT
ATOM      1  C   UNL     1       5.546   6.746  17.020  0.00  0.00    +0.000 C 
ATOM      2  C   UNL     1       4.107   7.246  17.188  0.00  0.00    +0.000 C 
ENDROOT
BRANCH   1   3
ATOM      3  C   UNL     1       5.674   5.731  15.840  0.00  0.00    +0.000 C 
ATOM      4  O   UNL     1       6.257   6.001  14.795  0.00  0.00    +0.000 OA
BRANCH   3   5
ATOM      5  C   UNL     1       4.949   4.443  15.981  0.00  0.00    +0.000 C 
ATOM      6  C   UNL     1       5.659   3.209  16.489  0.00  0.00    +0.000 C 
ATOM      7  C   UNL     1       4.478   3.741  17.253  0.00  0.00    +0.000 C 
BRANCH   7   8
ATOM      8  C   UNL     1       4.588   3.944  18.741  0.00  0.00    +0.000 C 
BRANCH   8   9
ATOM      9  C   UNL     1       3.389   4.102  19.696  0.00  0.00    +0.000 C 
ATOM     10  C   UNL     1       2.087   4.120  18.862  0.00  0.00    +0.000 C 
ATOM     11  C   UNL     1       0.943   4.331  19.801  0.00  0.00    +0.000 C 
ATOM     12  C   UNL     1       1.001   3.768  21.010  0.00  0.00    +0.000 C 
ATOM     13  C   UNL     1       2.133   2.884  21.370  0.00  0.00    +0.000 C 
ATOM     14  O   UNL     1       2.004   2.049  22.257  0.00  0.00    +0.000 OA
ATOM     15  O   UNL     1       3.281   3.013  20.642  0.00  0.00    +0.000 OA
ENDBRANCH   8   9
BRANCH   8  16
ATOM     16  O   UNL     1       5.404   2.861  19.218  0.00  0.00    +0.000 OA
ATOM     17  H   UNL     1       4.859   2.351  19.844  0.00  0.00    +0.000 HD
ENDBRANCH   8  16
ENDBRANCH   7   8
ENDBRANCH   3   5
ENDBRANCH   1   3
BRANCH   1  18
ATOM     18  O   UNL     1       6.473   7.833  17.167  0.00  0.00    +0.000 OA
BRANCH  18  19
ATOM     19  C   UNL     1       7.609   7.652  17.880  0.00  0.00    +0.000 C 
ATOM     20  O   UNL     1       7.937   6.639  18.476  0.00  0.00    +0.000 OA
BRANCH  19  22
ATOM     21  C   UNL     1       8.932   9.430  18.981  0.00  0.00    +0.000 C 
ATOM     22  C   UNL     1       8.373   8.921  17.865  0.00  0.00    +0.000 C 
BRANCH  21  26
ATOM     23  C   UNL     1      10.967  13.226  19.075  0.00  0.00    +0.000 A 
ATOM     24  C   UNL     1      10.391  12.742  17.901  0.00  0.00    +0.000 A 
ATOM     25  C   UNL     1       9.687  11.530  17.894  0.00  0.00    +0.000 A 
ATOM     26  C   UNL     1       9.577  10.758  19.059  0.00  0.00    +0.000 A 
ATOM     27  C   UNL     1      10.112  11.280  20.245  0.00  0.00    +0.000 A 
ATOM     28  C   UNL     1      10.810  12.498  20.253  0.00  0.00    +0.000 A 
BRANCH  23  30
ATOM     29  C   UNL     1      10.990  15.593  19.236  0.00  0.00    +0.000 C 
ATOM     30  O   UNL     1      11.680  14.385  18.941  0.00  0.00    +0.000 OA
ENDBRANCH  23  30
ENDBRANCH  21  26
ENDBRANCH  19  22
ENDBRANCH  18  19
ENDBRANCH   1  18
TORSDOF 10
ENDMDL
MODEL 9
REMARK VINA RESULT:      -8.3      3.801      7.393
REMARK  Name = 
REMARK  12 active torsions:
REMARK  status: ('A' for Active; 'I' for Inactive)
REMARK    1  A    between atoms: C_1  and  O_2
REMARK    2  A    between atoms: O_2  and  C_3
REMARK    3  A    between atoms: C_6  and  C_7
REMARK    4  A    between atoms: C_8  and  C_9
REMARK    5  A    between atoms: C_9  and  O_11
REMARK    6  A    between atoms: O_11  and  C_12
REMARK    7  A    between atoms: C_12  and  C_13
REMARK    8  A    between atoms: C_12  and  C_14
REMARK    9  A    between atoms: C_14  and  C_16
REMARK   10  A    between atoms: C_18  and  C_19
REMARK   11  A    between atoms: C_19  and  O_20
REMARK   12  A    between atoms: C_19  and  C_21
REMARK                            x       y       z     vdW  Elec       q    Type
REMARK                         _______ _______ _______ _____ _____    ______ ____
ROOT
ATOM      1  C   UNL     1       5.531   7.012  16.920  0.00  0.00    +0.000 C 
ATOM      2  C   UNL     1       4.206   7.509  17.508  0.00  0.00    +0.000 C 
ENDROOT
BRANCH   1   3
ATOM      3  C   UNL     1       5.313   6.183  15.615  0.00  0.00    +0.000 C 
ATOM      4  O   UNL     1       5.127   6.706  14.522  0.00  0.00    +0.000 OA
BRANCH   3   5
ATOM      5  C   UNL     1       5.217   4.708  15.765  0.00  0.00    +0.000 C 
ATOM      6  C   UNL     1       6.303   3.932  16.475  0.00  0.00    +0.000 C 
ATOM      7  C   UNL     1       4.900   3.889  17.015  0.00  0.00    +0.000 C 
BRANCH   7   8
ATOM      8  C   UNL     1       4.661   4.143  18.480  0.00  0.00    +0.000 C 
BRANCH   8   9
ATOM      9  C   UNL     1       3.495   3.552  19.294  0.00  0.00    +0.000 C 
ATOM     10  C   UNL     1       2.908   4.658  20.201  0.00  0.00    +0.000 C 
ATOM     11  C   UNL     1       1.817   4.049  21.022  0.00  0.00    +0.000 C 
ATOM     12  C   UNL     1       1.049   3.111  20.462  0.00  0.00    +0.000 C 
ATOM     13  C   UNL     1       1.223   2.755  19.035  0.00  0.00    +0.000 C 
ATOM     14  O   UNL     1       0.300   2.247  18.410  0.00  0.00    +0.000 OA
ATOM     15  O   UNL     1       2.420   3.064  18.457  0.00  0.00    +0.000 OA
ENDBRANCH   8   9
BRANCH   8  16
ATOM     16  O   UNL     1       5.892   3.794  19.136  0.00  0.00    +0.000 OA
ATOM     17  H   UNL     1       6.183   4.584  19.627  0.00  0.00    +0.000 HD
ENDBRANCH   8  16
ENDBRANCH   7   8
ENDBRANCH   3   5
ENDBRANCH   1   3
BRANCH   1  18
ATOM     18  O   UNL     1       6.525   8.047  16.984  0.00  0.00    +0.000 OA
BRANCH  18  19
ATOM     19  C   UNL     1       7.579   7.913  17.823  0.00  0.00    +0.000 C 
ATOM     20  O   UNL     1       7.928   6.891  18.390  0.00  0.00    +0.000 OA
BRANCH  19  22
ATOM     21  C   UNL     1       9.134   9.478  18.941  0.00  0.00    +0.000 C 
ATOM     22  C   UNL     1       8.214   9.241  17.986  0.00  0.00    +0.000 C 
BRANCH  21  26
ATOM     23  C   UNL     1      10.568  13.423  19.911  0.00  0.00    +0.000 A 
ATOM     24  C   UNL     1      10.167  12.533  20.907  0.00  0.00    +0.000 A 
ATOM     25  C   UNL     1       9.751  11.235  20.583  0.00  0.00    +0.000 A 
ATOM     26  C   UNL     1       9.693  10.812  19.248  0.00  0.00    +0.000 A 
ATOM     27  C   UNL     1      10.151  11.696  18.259  0.00  0.00    +0.000 A 
ATOM     28  C   UNL     1      10.575  12.993  18.586  0.00  0.00    +0.000 A 
BRANCH  23  30
ATOM     29  C   UNL     1       9.805  15.570  20.577  0.00  0.00    +0.000 C 
ATOM     30  O   UNL     1      10.890  14.679  20.346  0.00  0.00    +0.000 OA
ENDBRANCH  23  30
ENDBRANCH  21  26
ENDBRANCH  19  22
ENDBRANCH  18  19
ENDBRANCH   1  18
TORSDOF 10
ENDMDL
