MODEL 1
REMARK VINA RESULT:      -8.7      0.000      0.000
REMARK  Name = 
REMARK  11 active torsions:
REMARK  status: ('A' for Active; 'I' for Inactive)
REMARK    1  A    between atoms: C_1  and  O_2
REMARK    2  A    between atoms: O_2  and  C_3
REMARK    3  A    between atoms: C_5  and  C_6
REMARK    4  A    between atoms: C_6  and  O_8
REMARK    5  A    between atoms: O_8  and  C_9
REMARK    6  A    between atoms: C_14  and  C_15
REMARK    7  A    between atoms: C_15  and  C_17
REMARK    8  A    between atoms: C_30  and  O_31
REMARK    9  A    between atoms: O_31  and  C_32
REMARK   10  A    between atoms: C_33  and  O_34
REMARK   11  A    between atoms: O_34  and  C_35
REMARK                            x       y       z     vdW  Elec       q    Type
REMARK                         _______ _______ _______ _____ _____    ______ ____
ROOT
ATOM      1  C   UNL     1       1.310   8.611  19.610  0.00  0.00    +0.000 A 
ATOM      2  C   UNL     1       1.591   9.123  18.343  0.00  0.00    +0.000 A 
ATOM      3  C   UNL     1       2.574   8.542  17.538  0.00  0.00    +0.000 A 
ATOM      4  C   UNL     1       3.263   7.432  18.039  0.00  0.00    +0.000 A 
ATOM      5  N   UNL     1       4.253   6.685  17.454  0.00  0.00    +0.000 N 
ATOM      6  C   UNL     1       4.719   5.675  18.280  0.00  0.00    +0.000 A 
ATOM      7  C   UNL     1       3.943   5.782  19.433  0.00  0.00    +0.000 A 
ATOM      8  C   UNL     1       3.019   6.886  19.293  0.00  0.00    +0.000 A 
ATOM      9  C   UNL     1       2.006   7.486  20.099  0.00  0.00    +0.000 A 
ATOM     10  H   UNL     1       4.633   6.851  16.533  0.00  0.00    +0.000 HD
ENDROOT
BRANCH   6  11
ATOM     11  C   UNL     1       5.818   4.847  17.777  0.00  0.00    +0.000 C 
ATOM     12  O   UNL     1       6.573   4.303  18.581  0.00  0.00    +0.000 OA
BRANCH  11  13
ATOM     13  C   UNL     1       6.012   4.617  16.357  0.00  0.00    +0.000 A 
ATOM     14  C   UNL     1       5.445   3.768  15.430  0.00  0.00    +0.000 A 
ATOM     15  C   UNL     1       6.062   3.971  14.164  0.00  0.00    +0.000 A 
ATOM     16  C   UNL     1       5.888   3.391  12.894  0.00  0.00    +0.000 A 
ATOM     17  C   UNL     1       6.715   3.787  11.838  0.00  0.00    +0.000 A 
ATOM     18  C   UNL     1       7.699   4.753  12.034  0.00  0.00    +0.000 A 
ATOM     19  C   UNL     1       7.866   5.373  13.280  0.00  0.00    +0.000 A 
ATOM     20  C   UNL     1       7.025   4.960  14.326  0.00  0.00    +0.000 A 
ATOM     21  N   UNL     1       6.927   5.381  15.635  0.00  0.00    +0.000 N 
ATOM     22  H   UNL     1       7.463   6.139  16.038  0.00  0.00    +0.000 HD
ENDBRANCH  11  13
ENDBRANCH   6  11
BRANCH   1  23
ATOM     23  O   UNL     1       0.254   9.293  20.294  0.00  0.00    +0.000 OA
BRANCH  23  24
ATOM     24  C   UNL     1       0.006  10.644  20.136  0.00  0.00    +0.000 C 
ATOM     25  O   UNL     1       0.798  11.550  20.364  0.00  0.00    +0.000 OA
BRANCH  24  28
ATOM     26  C   UNL     1      -3.345  12.363  19.686  0.00  0.00    +0.000 A 
ATOM     27  C   UNL     1      -2.127  11.894  20.209  0.00  0.00    +0.000 A 
ATOM     28  C   UNL     1      -1.349  10.938  19.546  0.00  0.00    +0.000 A 
ATOM     29  C   UNL     1      -1.868  10.379  18.375  0.00  0.00    +0.000 A 
ATOM     30  C   UNL     1      -3.140  10.769  17.878  0.00  0.00    +0.000 A 
ATOM     31  C   UNL     1      -3.895  11.775  18.532  0.00  0.00    +0.000 A 
BRANCH  26  33
ATOM     32  C   UNL     1      -3.518  13.715  21.623  0.00  0.00    +0.000 C 
ATOM     33  O   UNL     1      -4.016  13.375  20.327  0.00  0.00    +0.000 OA
ENDBRANCH  26  33
BRANCH  30  34
ATOM     34  O   UNL     1      -3.475  10.082  16.732  0.00  0.00    +0.000 OA
ATOM     35  C   UNL     1      -2.583  10.077  15.622  0.00  0.00    +0.000 C 
ENDBRANCH  30  34
BRANCH  31  36
ATOM     36  O   UNL     1      -5.109  12.083  17.983  0.00  0.00    +0.000 OA
ATOM     37  C   UNL     1      -6.289  11.373  18.326  0.00  0.00    +0.000 C 
ENDBRANCH  31  36
ENDBRANCH  24  28
ENDBRANCH  23  24
ENDBRANCH   1  23
TORSDOF 8
ENDMDL
MODEL 2
REMARK VINA RESULT:      -8.5      1.995      3.848
REMARK  Name = 
REMARK  11 active torsions:
REMARK  status: ('A' for Active; 'I' for Inactive)
REMARK    1  A    between atoms: C_1  and  O_2
REMARK    2  A    between atoms: O_2  and  C_3
REMARK    3  A    between atoms: C_5  and  C_6
REMARK    4  A    between atoms: C_6  and  O_8
REMARK    5  A    between atoms: O_8  and  C_9
REMARK    6  A    between atoms: C_14  and  C_15
REMARK    7  A    between atoms: C_15  and  C_17
REMARK    8  A    between atoms: C_30  and  O_31
REMARK    9  A    between atoms: O_31  and  C_32
REMARK   10  A    between atoms: C_33  and  O_34
REMARK   11  A    between atoms: O_34  and  C_35
REMARK                            x       y       z     vdW  Elec       q    Type
REMARK                         _______ _______ _______ _____ _____    ______ ____
ROOT
ATOM      1  C   UNL     1      -0.033  10.829  20.382  0.00  0.00    +0.000 A 
ATOM      2  C   UNL     1      -0.188  10.222  21.628  0.00  0.00    +0.000 A 
ATOM      3  C   UNL     1       0.395   8.981  21.898  0.00  0.00    +0.000 A 
ATOM      4  C   UNL     1       1.139   8.369  20.882  0.00  0.00    +0.000 A 
ATOM      5  N   UNL     1       1.808   7.172  20.893  0.00  0.00    +0.000 N 
ATOM      6  C   UNL     1       2.406   6.883  19.678  0.00  0.00    +0.000 A 
ATOM      7  C   UNL     1       2.118   7.987  18.876  0.00  0.00    +0.000 A 
ATOM      8  C   UNL     1       1.320   8.932  19.626  0.00  0.00    +0.000 A 
ATOM      9  C   UNL     1       0.725  10.205  19.369  0.00  0.00    +0.000 A 
ATOM     10  H   UNL     1       1.852   6.543  21.683  0.00  0.00    +0.000 HD
ENDROOT
BRANCH   6  11
ATOM     11  C   UNL     1       3.104   5.601  19.558  0.00  0.00    +0.000 C 
ATOM     12  O   UNL     1       2.999   4.776  20.465  0.00  0.00    +0.000 OA
BRANCH  11  13
ATOM     13  C   UNL     1       3.880   5.262  18.380  0.00  0.00    +0.000 A 
ATOM     14  C   UNL     1       3.701   4.396  17.322  0.00  0.00    +0.000 A 
ATOM     15  C   UNL     1       4.829   4.467  16.456  0.00  0.00    +0.000 A 
ATOM     16  C   UNL     1       5.177   3.817  15.259  0.00  0.00    +0.000 A 
ATOM     17  C   UNL     1       6.419   4.078  14.670  0.00  0.00    +0.000 A 
ATOM     18  C   UNL     1       7.304   4.979  15.257  0.00  0.00    +0.000 A 
ATOM     19  C   UNL     1       6.964   5.668  16.429  0.00  0.00    +0.000 A 
ATOM     20  C   UNL     1       5.713   5.391  17.003  0.00  0.00    +0.000 A 
ATOM     21  N   UNL     1       5.089   5.906  18.120  0.00  0.00    +0.000 N 
ATOM     22  H   UNL     1       5.464   6.647  18.698  0.00  0.00    +0.000 HD
ENDBRANCH  11  13
ENDBRANCH   6  11
BRANCH   1  23
ATOM     23  O   UNL     1      -0.659  12.111  20.275  0.00  0.00    +0.000 OA
BRANCH  23  24
ATOM     24  C   UNL     1      -1.213  12.769  21.358  0.00  0.00    +0.000 C 
ATOM     25  O   UNL     1      -0.595  13.396  22.210  0.00  0.00    +0.000 OA
BRANCH  24  28
ATOM     26  C   UNL     1      -4.744  12.579  19.986  0.00  0.00    +0.000 A 
ATOM     27  C   UNL     1      -3.355  12.749  20.121  0.00  0.00    +0.000 A 
ATOM     28  C   UNL     1      -2.720  12.737  21.369  0.00  0.00    +0.000 A 
ATOM     29  C   UNL     1      -3.526  12.646  22.506  0.00  0.00    +0.000 A 
ATOM     30  C   UNL     1      -4.940  12.569  22.397  0.00  0.00    +0.000 A 
ATOM     31  C   UNL     1      -5.567  12.531  21.126  0.00  0.00    +0.000 A 
BRANCH  26  33
ATOM     32  C   UNL     1      -5.326  11.188  18.160  0.00  0.00    +0.000 C 
ATOM     33  O   UNL     1      -5.301  12.497  18.734  0.00  0.00    +0.000 OA
ENDBRANCH  26  33
BRANCH  30  34
ATOM     34  O   UNL     1      -5.547  12.514  23.633  0.00  0.00    +0.000 OA
ATOM     35  C   UNL     1      -4.755  12.343  24.804  0.00  0.00    +0.000 C 
ENDBRANCH  30  34
BRANCH  31  36
ATOM     36  O   UNL     1      -6.933  12.460  21.120  0.00  0.00    +0.000 OA
ATOM     37  C   UNL     1      -7.621  11.223  21.015  0.00  0.00    +0.000 C 
ENDBRANCH  31  36
ENDBRANCH  24  28
ENDBRANCH  23  24
ENDBRANCH   1  23
TORSDOF 8
ENDMDL
MODEL 3
REMARK VINA RESULT:      -8.5      1.957      3.799
REMARK  Name = 
REMARK  11 active torsions:
REMARK  status: ('A' for Active; 'I' for Inactive)
REMARK    1  A    between atoms: C_1  and  O_2
REMARK    2  A    between atoms: O_2  and  C_3
REMARK    3  A    between atoms: C_5  and  C_6
REMARK    4  A    between atoms: C_6  and  O_8
REMARK    5  A    between atoms: O_8  and  C_9
REMARK    6  A    between atoms: C_14  and  C_15
REMARK    7  A    between atoms: C_15  and  C_17
REMARK    8  A    between atoms: C_30  and  O_31
REMARK    9  A    between atoms: O_31  and  C_32
REMARK   10  A    between atoms: C_33  and  O_34
REMARK   11  A    between atoms: O_34  and  C_35
REMARK                            x       y       z     vdW  Elec       q    Type
REMARK                         _______ _______ _______ _____ _____    ______ ____
ROOT
ATOM      1  C   UNL     1       0.082  11.018  20.991  0.00  0.00    +0.000 A 
ATOM      2  C   UNL     1      -0.170  10.351  22.190  0.00  0.00    +0.000 A 
ATOM      3  C   UNL     1       0.272   9.041  22.387  0.00  0.00    +0.000 A 
ATOM      4  C   UNL     1       0.975   8.421  21.348  0.00  0.00    +0.000 A 
ATOM      5  N   UNL     1       1.515   7.162  21.292  0.00  0.00    +0.000 N 
ATOM      6  C   UNL     1       2.114   6.890  20.073  0.00  0.00    +0.000 A 
ATOM      7  C   UNL     1       1.965   8.068  19.342  0.00  0.00    +0.000 A 
ATOM      8  C   UNL     1       1.249   9.042  20.137  0.00  0.00    +0.000 A 
ATOM      9  C   UNL     1       0.799  10.385  19.955  0.00  0.00    +0.000 A 
ATOM     10  H   UNL     1       1.471   6.482  22.038  0.00  0.00    +0.000 HD
ENDROOT
BRANCH   6  11
ATOM     11  C   UNL     1       2.676   5.551  19.882  0.00  0.00    +0.000 C 
ATOM     12  O   UNL     1       2.345   4.648  20.649  0.00  0.00    +0.000 OA
BRANCH  11  13
ATOM     13  C   UNL     1       3.580   5.253  18.786  0.00  0.00    +0.000 A 
ATOM     14  C   UNL     1       3.419   4.755  17.510  0.00  0.00    +0.000 A 
ATOM     15  C   UNL     1       4.691   4.648  16.880  0.00  0.00    +0.000 A 
ATOM     16  C   UNL     1       5.114   4.208  15.613  0.00  0.00    +0.000 A 
ATOM     17  C   UNL     1       6.480   4.177  15.316  0.00  0.00    +0.000 A 
ATOM     18  C   UNL     1       7.419   4.585  16.262  0.00  0.00    +0.000 A 
ATOM     19  C   UNL     1       7.020   5.064  17.517  0.00  0.00    +0.000 A 
ATOM     20  C   UNL     1       5.643   5.086  17.793  0.00  0.00    +0.000 A 
ATOM     21  N   UNL     1       4.945   5.511  18.904  0.00  0.00    +0.000 N 
ATOM     22  H   UNL     1       5.364   5.939  19.719  0.00  0.00    +0.000 HD
ENDBRANCH  11  13
ENDBRANCH   6  11
BRANCH   1  23
ATOM     23  O   UNL     1      -0.402  12.365  20.959  0.00  0.00    +0.000 OA
BRANCH  23  24
ATOM     24  C   UNL     1      -0.872  12.966  19.806  0.00  0.00    +0.000 C 
ATOM     25  O   UNL     1      -0.219  13.674  19.048  0.00  0.00    +0.000 OA
BRANCH  24  28
ATOM     26  C   UNL     1      -3.747  11.253  18.021  0.00  0.00    +0.000 A 
ATOM     27  C   UNL     1      -2.489  11.785  18.354  0.00  0.00    +0.000 A 
ATOM     28  C   UNL     1      -2.296  12.598  19.477  0.00  0.00    +0.000 A 
ATOM     29  C   UNL     1      -3.424  12.953  20.222  0.00  0.00    +0.000 A 
ATOM     30  C   UNL     1      -4.718  12.504  19.849  0.00  0.00    +0.000 A 
ATOM     31  C   UNL     1      -4.894  11.640  18.739  0.00  0.00    +0.000 A 
BRANCH  26  33
ATOM     32  C   UNL     1      -3.628  10.947  15.675  0.00  0.00    +0.000 C 
ATOM     33  O   UNL     1      -3.860  10.380  16.967  0.00  0.00    +0.000 OA
ENDBRANCH  26  33
BRANCH  30  34
ATOM     34  O   UNL     1      -5.692  12.987  20.696  0.00  0.00    +0.000 OA
ATOM     35  C   UNL     1      -5.381  14.037  21.608  0.00  0.00    +0.000 C 
ENDBRANCH  30  34
BRANCH  31  36
ATOM     36  O   UNL     1      -6.178  11.263  18.454  0.00  0.00    +0.000 OA
ATOM     37  C   UNL     1      -6.800  10.167  19.104  0.00  0.00    +0.000 C 
ENDBRANCH  31  36
ENDBRANCH  24  28
ENDBRANCH  23  24
ENDBRANCH   1  23
TORSDOF 8
ENDMDL
MODEL 4
REMARK VINA RESULT:      -8.5      0.925      1.313
REMARK  Name = 
REMARK  11 active torsions:
REMARK  status: ('A' for Active; 'I' for Inactive)
REMARK    1  A    between atoms: C_1  and  O_2
REMARK    2  A    between atoms: O_2  and  C_3
REMARK    3  A    between atoms: C_5  and  C_6
REMARK    4  A    between atoms: C_6  and  O_8
REMARK    5  A    between atoms: O_8  and  C_9
REMARK    6  A    between atoms: C_14  and  C_15
REMARK    7  A    between atoms: C_15  and  C_17
REMARK    8  A    between atoms: C_30  and  O_31
REMARK    9  A    between atoms: O_31  and  C_32
REMARK   10  A    between atoms: C_33  and  O_34
REMARK   11  A    between atoms: O_34  and  C_35
REMARK                            x       y       z     vdW  Elec       q    Type
REMARK                         _______ _______ _______ _____ _____    ______ ____
ROOT
ATOM      1  C   UNL     1       1.135   8.902  19.813  0.00  0.00    +0.000 A 
ATOM      2  C   UNL     1       1.110   7.970  20.851  0.00  0.00    +0.000 A 
ATOM      3  C   UNL     1       1.910   6.825  20.804  0.00  0.00    +0.000 A 
ATOM      4  C   UNL     1       2.736   6.645  19.689  0.00  0.00    +0.000 A 
ATOM      5  N   UNL     1       3.609   5.625  19.408  0.00  0.00    +0.000 N 
ATOM      6  C   UNL     1       4.232   5.778  18.180  0.00  0.00    +0.000 A 
ATOM      7  C   UNL     1       3.739   6.986  17.688  0.00  0.00    +0.000 A 
ATOM      8  C   UNL     1       2.795   7.543  18.632  0.00  0.00    +0.000 A 
ATOM      9  C   UNL     1       1.979   8.712  18.699  0.00  0.00    +0.000 A 
ATOM     10  H   UNL     1       3.777   4.828  20.006  0.00  0.00    +0.000 HD
ENDROOT
BRANCH   6  11
ATOM     11  C   UNL     1       5.147   4.717  17.752  0.00  0.00    +0.000 C 
ATOM     12  O   UNL     1       5.580   3.927  18.589  0.00  0.00    +0.000 OA
BRANCH  11  13
ATOM     13  C   UNL     1       5.520   4.548  16.360  0.00  0.00    +0.000 A 
ATOM     14  C   UNL     1       5.070   3.751  15.329  0.00  0.00    +0.000 A 
ATOM     15  C   UNL     1       5.847   4.001  14.163  0.00  0.00    +0.000 A 
ATOM     16  C   UNL     1       5.833   3.482  12.856  0.00  0.00    +0.000 A 
ATOM     17  C   UNL     1       6.794   3.912  11.935  0.00  0.00    +0.000 A 
ATOM     18  C   UNL     1       7.754   4.851  12.301  0.00  0.00    +0.000 A 
ATOM     19  C   UNL     1       7.765   5.412  13.585  0.00  0.00    +0.000 A 
ATOM     20  C   UNL     1       6.791   4.966  14.494  0.00  0.00    +0.000 A 
ATOM     21  N   UNL     1       6.529   5.330  15.798  0.00  0.00    +0.000 N 
ATOM     22  H   UNL     1       7.016   6.060  16.302  0.00  0.00    +0.000 HD
ENDBRANCH  11  13
ENDBRANCH   6  11
BRANCH   1  23
ATOM     23  O   UNL     1       0.289  10.036  20.027  0.00  0.00    +0.000 OA
BRANCH  23  24
ATOM     24  C   UNL     1       0.045  10.985  19.051  0.00  0.00    +0.000 C 
ATOM     25  O   UNL     1       0.881  11.718  18.538  0.00  0.00    +0.000 OA
BRANCH  24  28
ATOM     26  C   UNL     1      -3.610  11.984  18.876  0.00  0.00    +0.000 A 
ATOM     27  C   UNL     1      -2.285  11.776  19.299  0.00  0.00    +0.000 A 
ATOM     28  C   UNL     1      -1.383  10.993  18.570  0.00  0.00    +0.000 A 
ATOM     29  C   UNL     1      -1.867  10.332  17.437  0.00  0.00    +0.000 A 
ATOM     30  C   UNL     1      -3.226  10.453  17.044  0.00  0.00    +0.000 A 
ATOM     31  C   UNL     1      -4.117  11.289  17.762  0.00  0.00    +0.000 A 
BRANCH  26  33
ATOM     32  C   UNL     1      -4.472  12.623  20.988  0.00  0.00    +0.000 C 
ATOM     33  O   UNL     1      -4.421  12.843  19.576  0.00  0.00    +0.000 OA
ENDBRANCH  26  33
BRANCH  30  34
ATOM     34  O   UNL     1      -3.502   9.703  15.921  0.00  0.00    +0.000 OA
ATOM     35  C   UNL     1      -3.199  10.223  14.630  0.00  0.00    +0.000 C 
ENDBRANCH  30  34
BRANCH  31  36
ATOM     36  O   UNL     1      -5.407  11.339  17.312  0.00  0.00    +0.000 OA
ATOM     37  C   UNL     1      -6.506  11.001  18.143  0.00  0.00    +0.000 C 
ENDBRANCH  31  36
ENDBRANCH  24  28
ENDBRANCH  23  24
ENDBRANCH   1  23
TORSDOF 8
ENDMDL
MODEL 5
REMARK VINA RESULT:      -8.5      2.076      3.001
REMARK  Name = 
REMARK  11 active torsions:
REMARK  status: ('A' for Active; 'I' for Inactive)
REMARK    1  A    between atoms: C_1  and  O_2
REMARK    2  A    between atoms: O_2  and  C_3
REMARK    3  A    between atoms: C_5  and  C_6
REMARK    4  A    between atoms: C_6  and  O_8
REMARK    5  A    between atoms: O_8  and  C_9
REMARK    6  A    between atoms: C_14  and  C_15
REMARK    7  A    between atoms: C_15  and  C_17
REMARK    8  A    between atoms: C_30  and  O_31
REMARK    9  A    between atoms: O_31  and  C_32
REMARK   10  A    between atoms: C_33  and  O_34
REMARK   11  A    between atoms: O_34  and  C_35
REMARK                            x       y       z     vdW  Elec       q    Type
REMARK                         _______ _______ _______ _____ _____    ______ ____
ROOT
ATOM      1  C   UNL     1       1.284   8.326  19.947  0.00  0.00    +0.000 A 
ATOM      2  C   UNL     1       1.565   8.974  18.744  0.00  0.00    +0.000 A 
ATOM      3  C   UNL     1       2.574   8.507  17.897  0.00  0.00    +0.000 A 
ATOM      4  C   UNL     1       3.289   7.370  18.291  0.00  0.00    +0.000 A 
ATOM      5  N   UNL     1       4.307   6.715  17.647  0.00  0.00    +0.000 N 
ATOM      6  C   UNL     1       4.792   5.638  18.370  0.00  0.00    +0.000 A 
ATOM      7  C   UNL     1       4.000   5.604  19.518  0.00  0.00    +0.000 A 
ATOM      8  C   UNL     1       3.047   6.691  19.478  0.00  0.00    +0.000 A 
ATOM      9  C   UNL     1       2.007   7.176  20.328  0.00  0.00    +0.000 A 
ATOM     10  H   UNL     1       4.692   6.986  16.753  0.00  0.00    +0.000 HD
ENDROOT
BRANCH   6  11
ATOM     11  C   UNL     1       5.920   4.897  17.801  0.00  0.00    +0.000 C 
ATOM     12  O   UNL     1       6.776   4.438  18.556  0.00  0.00    +0.000 OA
BRANCH  11  13
ATOM     13  C   UNL     1       6.031   4.654  16.375  0.00  0.00    +0.000 A 
ATOM     14  C   UNL     1       5.348   3.866  15.473  0.00  0.00    +0.000 A 
ATOM     15  C   UNL     1       5.926   4.013  14.182  0.00  0.00    +0.000 A 
ATOM     16  C   UNL     1       5.645   3.456  12.921  0.00  0.00    +0.000 A 
ATOM     17  C   UNL     1       6.460   3.776  11.830  0.00  0.00    +0.000 A 
ATOM     18  C   UNL     1       7.539   4.643  11.984  0.00  0.00    +0.000 A 
ATOM     19  C   UNL     1       7.817   5.240  13.221  0.00  0.00    +0.000 A 
ATOM     20  C   UNL     1       6.985   4.906  14.302  0.00  0.00    +0.000 A 
ATOM     21  N   UNL     1       6.983   5.331  15.614  0.00  0.00    +0.000 N 
ATOM     22  H   UNL     1       7.606   6.032  15.993  0.00  0.00    +0.000 HD
ENDBRANCH  11  13
ENDBRANCH   6  11
BRANCH   1  23
ATOM     23  O   UNL     1       0.201   8.904  20.682  0.00  0.00    +0.000 OA
BRANCH  23  24
ATOM     24  C   UNL     1       0.389   9.672  21.817  0.00  0.00    +0.000 C 
ATOM     25  O   UNL     1       1.150   9.412  22.741  0.00  0.00    +0.000 OA
BRANCH  24  28
ATOM     26  C   UNL     1      -1.143  12.838  20.398  0.00  0.00    +0.000 A 
ATOM     27  C   UNL     1      -0.355  11.691  20.597  0.00  0.00    +0.000 A 
ATOM     28  C   UNL     1      -0.380  10.967  21.795  0.00  0.00    +0.000 A 
ATOM     29  C   UNL     1      -1.151  11.476  22.844  0.00  0.00    +0.000 A 
ATOM     30  C   UNL     1      -1.882  12.685  22.696  0.00  0.00    +0.000 A 
ATOM     31  C   UNL     1      -1.888  13.381  21.461  0.00  0.00    +0.000 A 
BRANCH  26  33
ATOM     32  C   UNL     1       0.020  13.259  18.377  0.00  0.00    +0.000 C 
ATOM     33  O   UNL     1      -1.156  13.450  19.169  0.00  0.00    +0.000 OA
ENDBRANCH  26  33
BRANCH  30  34
ATOM     34  O   UNL     1      -2.551  13.024  23.852  0.00  0.00    +0.000 OA
ATOM     35  C   UNL     1      -3.829  12.456  24.122  0.00  0.00    +0.000 C 
ENDBRANCH  30  34
BRANCH  31  36
ATOM     36  O   UNL     1      -2.616  14.538  21.414  0.00  0.00    +0.000 OA
ATOM     37  C   UNL     1      -3.975  14.553  21.007  0.00  0.00    +0.000 C 
ENDBRANCH  31  36
ENDBRANCH  24  28
ENDBRANCH  23  24
ENDBRANCH   1  23
TORSDOF 8
ENDMDL
MODEL 6
REMARK VINA RESULT:      -8.5      2.150      3.707
REMARK  Name = 
REMARK  11 active torsions:
REMARK  status: ('A' for Active; 'I' for Inactive)
REMARK    1  A    between atoms: C_1  and  O_2
REMARK    2  A    between atoms: O_2  and  C_3
REMARK    3  A    between atoms: C_5  and  C_6
REMARK    4  A    between atoms: C_6  and  O_8
REMARK    5  A    between atoms: O_8  and  C_9
REMARK    6  A    between atoms: C_14  and  C_15
REMARK    7  A    between atoms: C_15  and  C_17
REMARK    8  A    between atoms: C_30  and  O_31
REMARK    9  A    between atoms: O_31  and  C_32
REMARK   10  A    between atoms: C_33  and  O_34
REMARK   11  A    between atoms: O_34  and  C_35
REMARK                            x       y       z     vdW  Elec       q    Type
REMARK                         _______ _______ _______ _____ _____    ______ ____
ROOT
ATOM      1  C   UNL     1      -0.203  10.812  20.404  0.00  0.00    +0.000 A 
ATOM      2  C   UNL     1      -0.361  10.301  21.692  0.00  0.00    +0.000 A 
ATOM      3  C   UNL     1       0.224   9.086  22.058  0.00  0.00    +0.000 A 
ATOM      4  C   UNL     1       0.974   8.401  21.095  0.00  0.00    +0.000 A 
ATOM      5  N   UNL     1       1.647   7.211  21.200  0.00  0.00    +0.000 N 
ATOM      6  C   UNL     1       2.252   6.832  20.013  0.00  0.00    +0.000 A 
ATOM      7  C   UNL     1       1.964   7.871  19.128  0.00  0.00    +0.000 A 
ATOM      8  C   UNL     1       1.159   8.868  19.800  0.00  0.00    +0.000 A 
ATOM      9  C   UNL     1       0.562  10.115  19.445  0.00  0.00    +0.000 A 
ATOM     10  H   UNL     1       1.689   6.644  22.035  0.00  0.00    +0.000 HD
ENDROOT
BRANCH   6  11
ATOM     11  C   UNL     1       2.954   5.547  19.994  0.00  0.00    +0.000 C 
ATOM     12  O   UNL     1       2.598   4.660  20.769  0.00  0.00    +0.000 OA
BRANCH  11  13
ATOM     13  C   UNL     1       4.029   5.278  19.057  0.00  0.00    +0.000 A 
ATOM     14  C   UNL     1       5.405   5.250  19.148  0.00  0.00    +0.000 A 
ATOM     15  C   UNL     1       5.957   4.945  17.872  0.00  0.00    +0.000 A 
ATOM     16  C   UNL     1       7.270   4.797  17.392  0.00  0.00    +0.000 A 
ATOM     17  C   UNL     1       7.482   4.543  16.033  0.00  0.00    +0.000 A 
ATOM     18  C   UNL     1       6.403   4.430  15.159  0.00  0.00    +0.000 A 
ATOM     19  C   UNL     1       5.084   4.535  15.620  0.00  0.00    +0.000 A 
ATOM     20  C   UNL     1       4.895   4.790  16.988  0.00  0.00    +0.000 A 
ATOM     21  N   UNL     1       3.746   4.925  17.739  0.00  0.00    +0.000 N 
ATOM     22  H   UNL     1       2.807   4.805  17.381  0.00  0.00    +0.000 HD
ENDBRANCH  11  13
ENDBRANCH   6  11
BRANCH   1  23
ATOM     23  O   UNL     1      -0.831  12.081  20.198  0.00  0.00    +0.000 OA
BRANCH  23  24
ATOM     24  C   UNL     1      -1.868  12.269  19.301  0.00  0.00    +0.000 C 
ATOM     25  O   UNL     1      -1.770  12.261  18.080  0.00  0.00    +0.000 OA
BRANCH  24  28
ATOM     26  C   UNL     1      -4.403  13.097  21.997  0.00  0.00    +0.000 A 
ATOM     27  C   UNL     1      -3.216  12.800  21.306  0.00  0.00    +0.000 A 
ATOM     28  C   UNL     1      -3.214  12.399  19.964  0.00  0.00    +0.000 A 
ATOM     29  C   UNL     1      -4.452  12.206  19.344  0.00  0.00    +0.000 A 
ATOM     30  C   UNL     1      -5.665  12.409  20.052  0.00  0.00    +0.000 A 
ATOM     31  C   UNL     1      -5.653  12.863  21.395  0.00  0.00    +0.000 A 
BRANCH  26  33
ATOM     32  C   UNL     1      -4.195  12.595  24.303  0.00  0.00    +0.000 C 
ATOM     33  O   UNL     1      -4.340  13.583  23.280  0.00  0.00    +0.000 OA
ENDBRANCH  26  33
BRANCH  30  34
ATOM     34  O   UNL     1      -6.767  12.139  19.269  0.00  0.00    +0.000 OA
ATOM     35  C   UNL     1      -6.779  10.982  18.439  0.00  0.00    +0.000 C 
ENDBRANCH  30  34
BRANCH  31  36
ATOM     36  O   UNL     1      -6.871  13.027  21.997  0.00  0.00    +0.000 OA
ATOM     37  C   UNL     1      -7.620  11.926  22.488  0.00  0.00    +0.000 C 
ENDBRANCH  31  36
ENDBRANCH  24  28
ENDBRANCH  23  24
ENDBRANCH   1  23
TORSDOF 8
ENDMDL
MODEL 7
REMARK VINA RESULT:      -8.5      2.823     11.038
REMARK  Name = 
REMARK  11 active torsions:
REMARK  status: ('A' for Active; 'I' for Inactive)
REMARK    1  A    between atoms: C_1  and  O_2
REMARK    2  A    between atoms: O_2  and  C_3
REMARK    3  A    between atoms: C_5  and  C_6
REMARK    4  A    between atoms: C_6  and  O_8
REMARK    5  A    between atoms: O_8  and  C_9
REMARK    6  A    between atoms: C_14  and  C_15
REMARK    7  A    between atoms: C_15  and  C_17
REMARK    8  A    between atoms: C_30  and  O_31
REMARK    9  A    between atoms: O_31  and  C_32
REMARK   10  A    between atoms: C_33  and  O_34
REMARK   11  A    between atoms: O_34  and  C_35
REMARK                            x       y       z     vdW  Elec       q    Type
REMARK                         _______ _______ _______ _____ _____    ______ ____
ROOT
ATOM      1  C   UNL     1       2.706   6.979  19.135  0.00  0.00    +0.000 A 
ATOM      2  C   UNL     1       2.151   7.041  20.413  0.00  0.00    +0.000 A 
ATOM      3  C   UNL     1       1.295   8.084  20.772  0.00  0.00    +0.000 A 
ATOM      4  C   UNL     1       1.010   9.062  19.812  0.00  0.00    +0.000 A 
ATOM      5  N   UNL     1       0.207  10.169  19.908  0.00  0.00    +0.000 N 
ATOM      6  C   UNL     1       0.200  10.927  18.749  0.00  0.00    +0.000 A 
ATOM      7  C   UNL     1       1.022  10.224  17.869  0.00  0.00    +0.000 A 
ATOM      8  C   UNL     1       1.539   9.045  18.528  0.00  0.00    +0.000 A 
ATOM      9  C   UNL     1       2.405   7.967  18.173  0.00  0.00    +0.000 A 
ATOM     10  H   UNL     1      -0.312  10.435  20.733  0.00  0.00    +0.000 HD
ENDROOT
BRANCH   6  11
ATOM     11  C   UNL     1      -0.583  12.164  18.758  0.00  0.00    +0.000 C 
ATOM     12  O   UNL     1      -0.004  13.240  18.613  0.00  0.00    +0.000 OA
BRANCH  11  13
ATOM     13  C   UNL     1      -2.029  12.152  18.888  0.00  0.00    +0.000 A 
ATOM     14  C   UNL     1      -2.908  12.414  19.918  0.00  0.00    +0.000 A 
ATOM     15  C   UNL     1      -4.241  12.211  19.465  0.00  0.00    +0.000 A 
ATOM     16  C   UNL     1      -5.503  12.324  20.076  0.00  0.00    +0.000 A 
ATOM     17  C   UNL     1      -6.651  11.991  19.350  0.00  0.00    +0.000 A 
ATOM     18  C   UNL     1      -6.553  11.557  18.031  0.00  0.00    +0.000 A 
ATOM     19  C   UNL     1      -5.310  11.473  17.388  0.00  0.00    +0.000 A 
ATOM     20  C   UNL     1      -4.171  11.812  18.135  0.00  0.00    +0.000 A 
ATOM     21  N   UNL     1      -2.836  11.853  17.792  0.00  0.00    +0.000 N 
ATOM     22  H   UNL     1      -2.474  11.670  16.865  0.00  0.00    +0.000 HD
ENDBRANCH  11  13
ENDBRANCH   6  11
BRANCH   1  23
ATOM     23  O   UNL     1       3.531   5.832  18.910  0.00  0.00    +0.000 OA
BRANCH  23  24
ATOM     24  C   UNL     1       3.382   5.002  17.814  0.00  0.00    +0.000 C 
ATOM     25  O   UNL     1       2.388   4.337  17.548  0.00  0.00    +0.000 OA
BRANCH  24  28
ATOM     26  C   UNL     1       6.743   6.063  16.413  0.00  0.00    +0.000 A 
ATOM     27  C   UNL     1       5.534   6.010  17.129  0.00  0.00    +0.000 A 
ATOM     28  C   UNL     1       4.555   5.044  16.869  0.00  0.00    +0.000 A 
ATOM     29  C   UNL     1       4.770   4.176  15.796  0.00  0.00    +0.000 A 
ATOM     30  C   UNL     1       5.941   4.272  14.999  0.00  0.00    +0.000 A 
ATOM     31  C   UNL     1       6.949   5.221  15.304  0.00  0.00    +0.000 A 
BRANCH  26  33
ATOM     32  C   UNL     1       7.903   7.122  18.186  0.00  0.00    +0.000 C 
ATOM     33  O   UNL     1       7.711   6.966  16.778  0.00  0.00    +0.000 OA
ENDBRANCH  26  33
BRANCH  30  34
ATOM     34  O   UNL     1       5.946   3.344  13.980  0.00  0.00    +0.000 OA
ATOM     35  C   UNL     1       5.108   3.535  12.845  0.00  0.00    +0.000 C 
ENDBRANCH  30  34
BRANCH  31  36
ATOM     36  O   UNL     1       8.040   5.243  14.479  0.00  0.00    +0.000 OA
ATOM     37  C   UNL     1       7.940   5.610  13.113  0.00  0.00    +0.000 C 
ENDBRANCH  31  36
ENDBRANCH  24  28
ENDBRANCH  23  24
ENDBRANCH   1  23
TORSDOF 8
ENDMDL
MODEL 8
REMARK VINA RESULT:      -8.4      2.131      4.140
REMARK  Name = 
REMARK  11 active torsions:
REMARK  status: ('A' for Active; 'I' for Inactive)
REMARK    1  A    between atoms: C_1  and  O_2
REMARK    2  A    between atoms: O_2  and  C_3
REMARK    3  A    between atoms: C_5  and  C_6
REMARK    4  A    between atoms: C_6  and  O_8
REMARK    5  A    between atoms: O_8  and  C_9
REMARK    6  A    between atoms: C_14  and  C_15
REMARK    7  A    between atoms: C_15  and  C_17
REMARK    8  A    between atoms: C_30  and  O_31
REMARK    9  A    between atoms: O_31  and  C_32
REMARK   10  A    between atoms: C_33  and  O_34
REMARK   11  A    between atoms: O_34  and  C_35
REMARK                            x       y       z     vdW  Elec       q    Type
REMARK                         _______ _______ _______ _____ _____    ______ ____
ROOT
ATOM      1  C   UNL     1      -0.068  10.828  20.488  0.00  0.00    +0.000 A 
ATOM      2  C   UNL     1      -0.149  10.238  21.749  0.00  0.00    +0.000 A 
ATOM      3  C   UNL     1       0.464   9.009  22.005  0.00  0.00    +0.000 A 
ATOM      4  C   UNL     1       1.163   8.392  20.961  0.00  0.00    +0.000 A 
ATOM      5  N   UNL     1       1.848   7.204  20.954  0.00  0.00    +0.000 N 
ATOM      6  C   UNL     1       2.387   6.905  19.713  0.00  0.00    +0.000 A 
ATOM      7  C   UNL     1       2.042   7.993  18.912  0.00  0.00    +0.000 A 
ATOM      8  C   UNL     1       1.271   8.939  19.689  0.00  0.00    +0.000 A 
ATOM      9  C   UNL     1       0.646  10.199  19.446  0.00  0.00    +0.000 A 
ATOM     10  H   UNL     1       1.942   6.588  21.749  0.00  0.00    +0.000 HD
ENDROOT
BRANCH   6  11
ATOM     11  C   UNL     1       3.095   5.631  19.576  0.00  0.00    +0.000 C 
ATOM     12  O   UNL     1       2.991   4.789  20.468  0.00  0.00    +0.000 OA
BRANCH  11  13
ATOM     13  C   UNL     1       3.881   5.318  18.397  0.00  0.00    +0.000 A 
ATOM     14  C   UNL     1       3.687   4.517  17.291  0.00  0.00    +0.000 A 
ATOM     15  C   UNL     1       4.836   4.582  16.453  0.00  0.00    +0.000 A 
ATOM     16  C   UNL     1       5.181   3.979  15.230  0.00  0.00    +0.000 A 
ATOM     17  C   UNL     1       6.446   4.214  14.680  0.00  0.00    +0.000 A 
ATOM     18  C   UNL     1       7.357   5.043  15.331  0.00  0.00    +0.000 A 
ATOM     19  C   UNL     1       7.022   5.685  16.531  0.00  0.00    +0.000 A 
ATOM     20  C   UNL     1       5.747   5.435  17.065  0.00  0.00    +0.000 A 
ATOM     21  N   UNL     1       5.123   5.919  18.195  0.00  0.00    +0.000 N 
ATOM     22  H   UNL     1       5.517   6.612  18.818  0.00  0.00    +0.000 HD
ENDBRANCH  11  13
ENDBRANCH   6  11
BRANCH   1  23
ATOM     23  O   UNL     1      -0.715  12.101  20.396  0.00  0.00    +0.000 OA
BRANCH  23  24
ATOM     24  C   UNL     1      -1.922  12.285  19.745  0.00  0.00    +0.000 C 
ATOM     25  O   UNL     1      -2.124  12.115  18.548  0.00  0.00    +0.000 OA
BRANCH  24  28
ATOM     26  C   UNL     1      -5.492  12.835  20.900  0.00  0.00    +0.000 A 
ATOM     27  C   UNL     1      -4.338  12.661  20.116  0.00  0.00    +0.000 A 
ATOM     28  C   UNL     1      -3.054  12.638  20.674  0.00  0.00    +0.000 A 
ATOM     29  C   UNL     1      -2.938  12.892  22.043  0.00  0.00    +0.000 A 
ATOM     30  C   UNL     1      -4.083  13.164  22.837  0.00  0.00    +0.000 A 
ATOM     31  C   UNL     1      -5.381  13.134  22.270  0.00  0.00    +0.000 A 
BRANCH  26  33
ATOM     32  C   UNL     1      -7.310  11.440  20.299  0.00  0.00    +0.000 C 
ATOM     33  O   UNL     1      -6.731  12.747  20.314  0.00  0.00    +0.000 OA
ENDBRANCH  26  33
BRANCH  30  34
ATOM     34  O   UNL     1      -3.748  13.413  24.151  0.00  0.00    +0.000 OA
ATOM     35  C   UNL     1      -3.474  14.746  24.571  0.00  0.00    +0.000 C 
ENDBRANCH  30  34
BRANCH  31  36
ATOM     36  O   UNL     1      -6.423  13.412  23.111  0.00  0.00    +0.000 OA
ATOM     37  C   UNL     1      -7.039  12.408  23.901  0.00  0.00    +0.000 C 
ENDBRANCH  31  36
ENDBRANCH  24  28
ENDBRANCH  23  24
ENDBRANCH   1  23
TORSDOF 8
ENDMDL
MODEL 9
REMARK VINA RESULT:      -8.4      2.177      3.551
REMARK  Name = 
REMARK  11 active torsions:
REMARK  status: ('A' for Active; 'I' for Inactive)
REMARK    1  A    between atoms: C_1  and  O_2
REMARK    2  A    between atoms: O_2  and  C_3
REMARK    3  A    between atoms: C_5  and  C_6
REMARK    4  A    between atoms: C_6  and  O_8
REMARK    5  A    between atoms: O_8  and  C_9
REMARK    6  A    between atoms: C_14  and  C_15
REMARK    7  A    between atoms: C_15  and  C_17
REMARK    8  A    between atoms: C_30  and  O_31
REMARK    9  A    between atoms: O_31  and  C_32
REMARK   10  A    between atoms: C_33  and  O_34
REMARK   11  A    between atoms: O_34  and  C_35
REMARK                            x       y       z     vdW  Elec       q    Type
REMARK                         _______ _______ _______ _____ _____    ______ ____
ROOT
ATOM      1  C   UNL     1      -0.223  11.324  21.468  0.00  0.00    +0.000 A 
ATOM      2  C   UNL     1      -0.484  10.559  22.605  0.00  0.00    +0.000 A 
ATOM      3  C   UNL     1      -0.033   9.240  22.700  0.00  0.00    +0.000 A 
ATOM      4  C   UNL     1       0.690   8.713  21.623  0.00  0.00    +0.000 A 
ATOM      5  N   UNL     1       1.242   7.467  21.472  0.00  0.00    +0.000 N 
ATOM      6  C   UNL     1       1.859   7.302  20.243  0.00  0.00    +0.000 A 
ATOM      7  C   UNL     1       1.710   8.535  19.609  0.00  0.00    +0.000 A 
ATOM      8  C   UNL     1       0.974   9.434  20.471  0.00  0.00    +0.000 A 
ATOM      9  C   UNL     1       0.514  10.783  20.394  0.00  0.00    +0.000 A 
ATOM     10  H   UNL     1       1.194   6.728  22.159  0.00  0.00    +0.000 HD
ENDROOT
BRANCH   6  11
ATOM     11  C   UNL     1       2.437   5.988  19.951  0.00  0.00    +0.000 C 
ATOM     12  O   UNL     1       2.012   5.001  20.550  0.00  0.00    +0.000 OA
BRANCH  11  13
ATOM     13  C   UNL     1       3.466   5.815  18.942  0.00  0.00    +0.000 A 
ATOM     14  C   UNL     1       3.536   6.041  17.584  0.00  0.00    +0.000 A 
ATOM     15  C   UNL     1       4.818   5.653  17.104  0.00  0.00    +0.000 A 
ATOM     16  C   UNL     1       5.423   5.658  15.835  0.00  0.00    +0.000 A 
ATOM     17  C   UNL     1       6.716   5.144  15.687  0.00  0.00    +0.000 A 
ATOM     18  C   UNL     1       7.405   4.637  16.785  0.00  0.00    +0.000 A 
ATOM     19  C   UNL     1       6.839   4.656  18.067  0.00  0.00    +0.000 A 
ATOM     20  C   UNL     1       5.540   5.177  18.193  0.00  0.00    +0.000 A 
ATOM     21  N   UNL     1       4.732   5.350  19.296  0.00  0.00    +0.000 N 
ATOM     22  H   UNL     1       5.007   5.149  20.249  0.00  0.00    +0.000 HD
ENDBRANCH  11  13
ENDBRANCH   6  11
BRANCH   1  23
ATOM     23  O   UNL     1      -0.719  12.664  21.540  0.00  0.00    +0.000 OA
BRANCH  23  24
ATOM     24  C   UNL     1      -1.245  13.330  20.447  0.00  0.00    +0.000 C 
ATOM     25  O   UNL     1      -0.703  14.241  19.833  0.00  0.00    +0.000 OA
BRANCH  24  28
ATOM     26  C   UNL     1      -5.001  12.843  20.259  0.00  0.00    +0.000 A 
ATOM     27  C   UNL     1      -3.703  13.180  20.679  0.00  0.00    +0.000 A 
ATOM     28  C   UNL     1      -2.562  12.766  19.981  0.00  0.00    +0.000 A 
ATOM     29  C   UNL     1      -2.744  11.913  18.889  0.00  0.00    +0.000 A 
ATOM     30  C   UNL     1      -4.041  11.483  18.504  0.00  0.00    +0.000 A 
ATOM     31  C   UNL     1      -5.192  11.950  19.188  0.00  0.00    +0.000 A 
BRANCH  26  33
ATOM     32  C   UNL     1      -6.171  13.029  22.311  0.00  0.00    +0.000 C 
ATOM     33  O   UNL     1      -6.087  13.360  20.922  0.00  0.00    +0.000 OA
ENDBRANCH  26  33
BRANCH  30  34
ATOM     34  O   UNL     1      -3.999  10.627  17.425  0.00  0.00    +0.000 OA
ATOM     35  C   UNL     1      -3.808  11.151  16.114  0.00  0.00    +0.000 C 
ENDBRANCH  30  34
BRANCH  31  36
ATOM     36  O   UNL     1      -6.398  11.478  18.749  0.00  0.00    +0.000 OA
ATOM     37  C   UNL     1      -7.175  12.180  17.791  0.00  0.00    +0.000 C 
ENDBRANCH  31  36
ENDBRANCH  24  28
ENDBRANCH  23  24
ENDBRANCH   1  23
TORSDOF 8
ENDMDL
