MODEL 1
REMARK VINA RESULT:      -6.6      0.000      0.000
REMARK  Name = 
REMARK  8 active torsions:
REMARK  status: ('A' for Active; 'I' for Inactive)
REMARK    1  A    between atoms: C_2  and  C_3
REMARK    2  A    between atoms: C_3  and  C_4
REMARK    3  A    between atoms: C_4  and  N_5
REMARK    4  A    between atoms: C_9  and  C_10
REMARK    5  A    between atoms: C_9  and  C_12
REMARK    6  A    between atoms: C_10  and  O_11
REMARK    7  A    between atoms: C_12  and  C_13
REMARK    8  A    between atoms: N_17  and  C_18
REMARK                            x       y       z     vdW  Elec       q    Type
REMARK                         _______ _______ _______ _____ _____    ______ ____
ROOT
ATOM      1  N   UNL     1       4.425   5.935  17.517  0.00  0.00    +0.000 NA
ATOM      2  C   UNL     1       4.583   4.931  16.447  0.00  0.00    +0.000 C 
ATOM      3  C   UNL     1       5.941   4.240  16.510  0.00  0.00    +0.000 C 
ATOM      4  C   UNL     1       7.094   5.229  16.536  0.00  0.00    +0.000 C 
ATOM      5  C   UNL     1       6.920   6.378  17.561  0.00  0.00    +0.000 C 
ATOM      6  C   UNL     1       5.478   6.978  17.366  0.00  0.00    +0.000 C 
ENDROOT
BRANCH   1   7
ATOM      7  C   UNL     1       3.040   6.499  17.541  0.00  0.00    +0.000 C 
BRANCH   7   8
ATOM      8  C   UNL     1       2.723   7.133  18.907  0.00  0.00    +0.000 C 
BRANCH   8  10
ATOM      9  O   UNL     1       1.509   6.497  20.924  0.00  0.00    +0.000 OA
ATOM     10  C   UNL     1       2.317   6.213  20.058  0.00  0.00    +0.000 C 
ATOM     11  N   UNL     1       2.940   4.974  19.922  0.00  0.00    +0.000 N 
ATOM     12  H   UNL     1       3.637   4.894  19.193  0.00  0.00    +0.000 HD
BRANCH  11  13
ATOM     13  C   UNL     1       2.649   3.763  20.697  0.00  0.00    +0.000 C 
ATOM     14  C   UNL     1       1.177   3.354  20.504  0.00  0.00    +0.000 C 
ATOM     15  C   UNL     1       0.885   2.869  19.084  0.00  0.00    +0.000 C 
ATOM     16  C   UNL     1       1.778   1.699  18.692  0.00  0.00    +0.000 C 
ATOM     17  C   UNL     1       3.260   1.949  18.971  0.00  0.00    +0.000 C 
ATOM     18  C   UNL     1       3.553   2.577  20.337  0.00  0.00    +0.000 C 
ENDBRANCH  11  13
ENDBRANCH   8  10
ENDBRANCH   7   8
ENDBRANCH   1   7
BRANCH   5  19
ATOM     19  C   UNL     1       7.096   5.898  19.029  0.00  0.00    +0.000 C 
BRANCH  19  20
ATOM     20  O   UNL     1       6.093   4.992  19.476  0.00  0.00    +0.000 OA
ATOM     21  H   UNL     1       6.483   4.093  19.415  0.00  0.00    +0.000 HD
ENDBRANCH  19  20
ENDBRANCH   5  19
BRANCH   5  22
ATOM     22  C   UNL     1       8.005   7.478  17.282  0.00  0.00    +0.000 C 
BRANCH  22  23
ATOM     23  C   UNL     1       7.802   8.776  18.046  0.00  0.00    +0.000 C 
ATOM     24  C   UNL     1       8.896   9.308  18.941  0.00  0.00    +0.000 C 
ATOM     25  C   UNL     1       8.548  10.031  17.670  0.00  0.00    +0.000 C 
ENDBRANCH  22  23
ENDBRANCH   5  22
TORSDOF 8
ENDMDL
MODEL 2
REMARK VINA RESULT:      -6.5      2.232      3.631
REMARK  Name = 
REMARK  8 active torsions:
REMARK  status: ('A' for Active; 'I' for Inactive)
REMARK    1  A    between atoms: C_2  and  C_3
REMARK    2  A    between atoms: C_3  and  C_4
REMARK    3  A    between atoms: C_4  and  N_5
REMARK    4  A    between atoms: C_9  and  C_10
REMARK    5  A    between atoms: C_9  and  C_12
REMARK    6  A    between atoms: C_10  and  O_11
REMARK    7  A    between atoms: C_12  and  C_13
REMARK    8  A    between atoms: N_17  and  C_18
REMARK                            x       y       z     vdW  Elec       q    Type
REMARK                         _______ _______ _______ _____ _____    ______ ____
ROOT
ATOM      1  N   UNL     1       4.709   6.137  17.254  0.00  0.00    +0.000 NA
ATOM      2  C   UNL     1       3.687   5.074  17.343  0.00  0.00    +0.000 C 
ATOM      3  C   UNL     1       4.279   3.692  17.087  0.00  0.00    +0.000 C 
ATOM      4  C   UNL     1       5.056   3.626  15.784  0.00  0.00    +0.000 C 
ATOM      5  C   UNL     1       6.059   4.791  15.584  0.00  0.00    +0.000 C 
ATOM      6  C   UNL     1       5.296   6.134  15.886  0.00  0.00    +0.000 C 
ENDROOT
BRANCH   1   7
ATOM      7  C   UNL     1       4.154   7.467  17.652  0.00  0.00    +0.000 C 
BRANCH   7   8
ATOM      8  C   UNL     1       2.657   7.362  17.997  0.00  0.00    +0.000 C 
BRANCH   8  10
ATOM      9  O   UNL     1       2.008   7.704  20.322  0.00  0.00    +0.000 OA
ATOM     10  C   UNL     1       2.265   6.937  19.411  0.00  0.00    +0.000 C 
ATOM     11  N   UNL     1       2.163   5.549  19.483  0.00  0.00    +0.000 N 
ATOM     12  H   UNL     1       2.467   5.029  18.670  0.00  0.00    +0.000 HD
BRANCH  11  13
ATOM     13  C   UNL     1       1.610   4.773  20.598  0.00  0.00    +0.000 C 
ATOM     14  C   UNL     1       0.494   3.841  20.092  0.00  0.00    +0.000 C 
ATOM     15  C   UNL     1       1.026   2.724  19.194  0.00  0.00    +0.000 C 
ATOM     16  C   UNL     1       2.085   1.888  19.902  0.00  0.00    +0.000 C 
ATOM     17  C   UNL     1       3.178   2.728  20.562  0.00  0.00    +0.000 C 
ATOM     18  C   UNL     1       2.663   3.942  21.342  0.00  0.00    +0.000 C 
ENDBRANCH  11  13
ENDBRANCH   8  10
ENDBRANCH   7   8
ENDBRANCH   1   7
BRANCH   5  19
ATOM     19  C   UNL     1       7.302   4.672  16.510  0.00  0.00    +0.000 C 
BRANCH  19  20
ATOM     20  O   UNL     1       7.642   5.873  17.194  0.00  0.00    +0.000 OA
ATOM     21  H   UNL     1       7.497   5.701  18.149  0.00  0.00    +0.000 HD
ENDBRANCH  19  20
ENDBRANCH   5  19
BRANCH   5  22
ATOM     22  C   UNL     1       6.564   4.778  14.097  0.00  0.00    +0.000 C 
BRANCH  22  23
ATOM     23  C   UNL     1       6.205   3.524  13.318  0.00  0.00    +0.000 C 
ATOM     24  C   UNL     1       5.252   3.603  12.149  0.00  0.00    +0.000 C 
ATOM     25  C   UNL     1       6.706   3.304  11.913  0.00  0.00    +0.000 C 
ENDBRANCH  22  23
ENDBRANCH   5  22
TORSDOF 8
ENDMDL
MODEL 3
REMARK VINA RESULT:      -6.3      2.377      3.954
REMARK  Name = 
REMARK  8 active torsions:
REMARK  status: ('A' for Active; 'I' for Inactive)
REMARK    1  A    between atoms: C_2  and  C_3
REMARK    2  A    between atoms: C_3  and  C_4
REMARK    3  A    between atoms: C_4  and  N_5
REMARK    4  A    between atoms: C_9  and  C_10
REMARK    5  A    between atoms: C_9  and  C_12
REMARK    6  A    between atoms: C_10  and  O_11
REMARK    7  A    between atoms: C_12  and  C_13
REMARK    8  A    between atoms: N_17  and  C_18
REMARK                            x       y       z     vdW  Elec       q    Type
REMARK                         _______ _______ _______ _____ _____    ______ ____
ROOT
ATOM      1  N   UNL     1       4.840   6.037  17.959  0.00  0.00    +0.000 NA
ATOM      2  C   UNL     1       5.820   5.504  18.926  0.00  0.00    +0.000 C 
ATOM      3  C   UNL     1       7.174   5.234  18.276  0.00  0.00    +0.000 C 
ATOM      4  C   UNL     1       7.058   4.356  17.043  0.00  0.00    +0.000 C 
ATOM      5  C   UNL     1       5.956   4.801  16.048  0.00  0.00    +0.000 C 
ATOM      6  C   UNL     1       4.637   5.039  16.872  0.00  0.00    +0.000 C 
ENDROOT
BRANCH   1   7
ATOM      7  C   UNL     1       3.567   6.440  18.631  0.00  0.00    +0.000 C 
BRANCH   7   8
ATOM      8  C   UNL     1       2.343   6.027  17.794  0.00  0.00    +0.000 C 
BRANCH   8  10
ATOM      9  O   UNL     1       0.941   4.088  17.327  0.00  0.00    +0.000 OA
ATOM     10  C   UNL     1       1.681   4.681  18.090  0.00  0.00    +0.000 C 
ATOM     11  N   UNL     1       2.117   4.195  19.321  0.00  0.00    +0.000 N 
ATOM     12  H   UNL     1       2.683   4.819  19.882  0.00  0.00    +0.000 HD
BRANCH  11  13
ATOM     13  C   UNL     1       1.879   2.851  19.860  0.00  0.00    +0.000 C 
ATOM     14  C   UNL     1       2.086   1.796  18.757  0.00  0.00    +0.000 C 
ATOM     15  C   UNL     1       3.547   1.682  18.323  0.00  0.00    +0.000 C 
ATOM     16  C   UNL     1       4.462   1.356  19.497  0.00  0.00    +0.000 C 
ATOM     17  C   UNL     1       4.242   2.266  20.706  0.00  0.00    +0.000 C 
ATOM     18  C   UNL     1       2.772   2.509  21.059  0.00  0.00    +0.000 C 
ENDBRANCH  11  13
ENDBRANCH   8  10
ENDBRANCH   7   8
ENDBRANCH   1   7
BRANCH   5  19
ATOM     19  C   UNL     1       6.337   6.097  15.279  0.00  0.00    +0.000 C 
BRANCH  19  20
ATOM     20  O   UNL     1       5.309   7.081  15.241  0.00  0.00    +0.000 OA
ATOM     21  H   UNL     1       4.694   6.814  14.525  0.00  0.00    +0.000 HD
ENDBRANCH  19  20
ENDBRANCH   5  19
BRANCH   5  22
ATOM     22  C   UNL     1       5.735   3.662  14.990  0.00  0.00    +0.000 C 
BRANCH  22  23
ATOM     23  C   UNL     1       5.657   4.142  13.550  0.00  0.00    +0.000 C 
ATOM     24  C   UNL     1       6.644   3.633  12.526  0.00  0.00    +0.000 C 
ATOM     25  C   UNL     1       5.199   3.227  12.443  0.00  0.00    +0.000 C 
ENDBRANCH  22  23
ENDBRANCH   5  22
TORSDOF 8
ENDMDL
MODEL 4
REMARK VINA RESULT:      -6.3      3.647      6.262
REMARK  Name = 
REMARK  8 active torsions:
REMARK  status: ('A' for Active; 'I' for Inactive)
REMARK    1  A    between atoms: C_2  and  C_3
REMARK    2  A    between atoms: C_3  and  C_4
REMARK    3  A    between atoms: C_4  and  N_5
REMARK    4  A    between atoms: C_9  and  C_10
REMARK    5  A    between atoms: C_9  and  C_12
REMARK    6  A    between atoms: C_10  and  O_11
REMARK    7  A    between atoms: C_12  and  C_13
REMARK    8  A    between atoms: N_17  and  C_18
REMARK                            x       y       z     vdW  Elec       q    Type
REMARK                         _______ _______ _______ _____ _____    ______ ____
ROOT
ATOM      1  N   UNL     1       3.490   6.420  17.985  0.00  0.00    +0.000 NA
ATOM      2  C   UNL     1       2.197   5.715  17.874  0.00  0.00    +0.000 C 
ATOM      3  C   UNL     1       2.333   4.225  18.168  0.00  0.00    +0.000 C 
ATOM      4  C   UNL     1       3.414   3.566  17.329  0.00  0.00    +0.000 C 
ATOM      5  C   UNL     1       4.760   4.333  17.311  0.00  0.00    +0.000 C 
ATOM      6  C   UNL     1       4.445   5.843  16.998  0.00  0.00    +0.000 C 
ENDROOT
BRANCH   1   7
ATOM      7  C   UNL     1       3.323   7.899  17.843  0.00  0.00    +0.000 C 
BRANCH   7   8
ATOM      8  C   UNL     1       1.841   8.303  17.946  0.00  0.00    +0.000 C 
BRANCH   8  10
ATOM      9  O   UNL     1       1.651   8.517  20.367  0.00  0.00    +0.000 OA
ATOM     10  C   UNL     1       1.344   8.911  19.257  0.00  0.00    +0.000 C 
ATOM     11  N   UNL     1       0.559  10.033  18.995  0.00  0.00    +0.000 N 
ATOM     12  H   UNL     1       0.330  10.211  18.026  0.00  0.00    +0.000 HD
BRANCH  11  13
ATOM     13  C   UNL     1       0.075  11.006  19.981  0.00  0.00    +0.000 C 
ATOM     14  C   UNL     1       1.192  12.009  20.325  0.00  0.00    +0.000 C 
ATOM     15  C   UNL     1       1.536  12.927  19.152  0.00  0.00    +0.000 C 
ATOM     16  C   UNL     1       0.316  13.695  18.660  0.00  0.00    +0.000 C 
ATOM     17  C   UNL     1      -0.902  12.805  18.415  0.00  0.00    +0.000 C 
ATOM     18  C   UNL     1      -1.168  11.775  19.518  0.00  0.00    +0.000 C 
ENDBRANCH  11  13
ENDBRANCH   8  10
ENDBRANCH   7   8
ENDBRANCH   1   7
BRANCH   5  19
ATOM     19  C   UNL     1       5.525   4.224  18.660  0.00  0.00    +0.000 C 
BRANCH  19  20
ATOM     20  O   UNL     1       5.381   2.971  19.318  0.00  0.00    +0.000 OA
ATOM     21  H   UNL     1       5.691   2.287  18.686  0.00  0.00    +0.000 HD
ENDBRANCH  19  20
ENDBRANCH   5  19
BRANCH   5  22
ATOM     22  C   UNL     1       5.676   3.728  16.188  0.00  0.00    +0.000 C 
BRANCH  22  23
ATOM     23  C   UNL     1       5.643   4.483  14.870  0.00  0.00    +0.000 C 
ATOM     24  C   UNL     1       6.932   4.844  14.170  0.00  0.00    +0.000 C 
ATOM     25  C   UNL     1       6.018   3.811  13.573  0.00  0.00    +0.000 C 
ENDBRANCH  22  23
ENDBRANCH   5  22
TORSDOF 8
ENDMDL
MODEL 5
REMARK VINA RESULT:      -6.2      0.795      1.042
REMARK  Name = 
REMARK  8 active torsions:
REMARK  status: ('A' for Active; 'I' for Inactive)
REMARK    1  A    between atoms: C_2  and  C_3
REMARK    2  A    between atoms: C_3  and  C_4
REMARK    3  A    between atoms: C_4  and  N_5
REMARK    4  A    between atoms: C_9  and  C_10
REMARK    5  A    between atoms: C_9  and  C_12
REMARK    6  A    between atoms: C_10  and  O_11
REMARK    7  A    between atoms: C_12  and  C_13
REMARK    8  A    between atoms: N_17  and  C_18
REMARK                            x       y       z     vdW  Elec       q    Type
REMARK                         _______ _______ _______ _____ _____    ______ ____
ROOT
ATOM      1  N   UNL     1       4.676   6.326  17.212  0.00  0.00    +0.000 NA
ATOM      2  C   UNL     1       5.026   5.703  15.920  0.00  0.00    +0.000 C 
ATOM      3  C   UNL     1       6.269   4.827  16.028  0.00  0.00    +0.000 C 
ATOM      4  C   UNL     1       7.447   5.565  16.640  0.00  0.00    +0.000 C 
ATOM      5  C   UNL     1       7.104   6.341  17.937  0.00  0.00    +0.000 C 
ATOM      6  C   UNL     1       5.807   7.187  17.659  0.00  0.00    +0.000 C 
ENDROOT
BRANCH   1   7
ATOM      7  C   UNL     1       3.376   7.061  17.134  0.00  0.00    +0.000 C 
BRANCH   7   8
ATOM      8  C   UNL     1       2.934   7.556  18.523  0.00  0.00    +0.000 C 
BRANCH   8  10
ATOM      9  O   UNL     1       1.778   6.829  20.542  0.00  0.00    +0.000 OA
ATOM     10  C   UNL     1       2.342   6.543  19.502  0.00  0.00    +0.000 C 
ATOM     11  N   UNL     1       2.465   5.254  18.987  0.00  0.00    +0.000 N 
ATOM     12  H   UNL     1       3.011   5.152  18.142  0.00  0.00    +0.000 HD
BRANCH  11  13
ATOM     13  C   UNL     1       1.837   4.040  19.522  0.00  0.00    +0.000 C 
ATOM     14  C   UNL     1       1.347   3.146  18.367  0.00  0.00    +0.000 C 
ATOM     15  C   UNL     1       2.500   2.549  17.561  0.00  0.00    +0.000 C 
ATOM     16  C   UNL     1       3.448   1.744  18.441  0.00  0.00    +0.000 C 
ATOM     17  C   UNL     1       3.892   2.494  19.696  0.00  0.00    +0.000 C 
ATOM     18  C   UNL     1       2.764   3.226  20.432  0.00  0.00    +0.000 C 
ENDBRANCH  11  13
ENDBRANCH   8  10
ENDBRANCH   7   8
ENDBRANCH   1   7
BRANCH   5  19
ATOM     19  C   UNL     1       6.868   5.398  19.150  0.00  0.00    +0.000 C 
BRANCH  19  20
ATOM     20  O   UNL     1       5.561   5.475  19.709  0.00  0.00    +0.000 OA
ATOM     21  H   UNL     1       5.638   5.178  20.641  0.00  0.00    +0.000 HD
ENDBRANCH  19  20
ENDBRANCH   5  19
BRANCH   5  22
ATOM     22  C   UNL     1       8.303   7.291  18.294  0.00  0.00    +0.000 C 
BRANCH  22  23
ATOM     23  C   UNL     1       7.943   8.766  18.361  0.00  0.00    +0.000 C 
ATOM     24  C   UNL     1       8.913   9.757  18.959  0.00  0.00    +0.000 C 
ATOM     25  C   UNL     1       8.629   9.781  17.483  0.00  0.00    +0.000 C 
ENDBRANCH  22  23
ENDBRANCH   5  22
TORSDOF 8
ENDMDL
MODEL 6
REMARK VINA RESULT:      -6.2      3.671      6.346
REMARK  Name = 
REMARK  8 active torsions:
REMARK  status: ('A' for Active; 'I' for Inactive)
REMARK    1  A    between atoms: C_2  and  C_3
REMARK    2  A    between atoms: C_3  and  C_4
REMARK    3  A    between atoms: C_4  and  N_5
REMARK    4  A    between atoms: C_9  and  C_10
REMARK    5  A    between atoms: C_9  and  C_12
REMARK    6  A    between atoms: C_10  and  O_11
REMARK    7  A    between atoms: C_12  and  C_13
REMARK    8  A    between atoms: N_17  and  C_18
REMARK                            x       y       z     vdW  Elec       q    Type
REMARK                         _______ _______ _______ _____ _____    ______ ____
ROOT
ATOM      1  N   UNL     1       2.625   6.040  19.743  0.00  0.00    +0.000 NA
ATOM      2  C   UNL     1       1.578   5.121  20.233  0.00  0.00    +0.000 C 
ATOM      3  C   UNL     1       2.072   3.680  20.307  0.00  0.00    +0.000 C 
ATOM      4  C   UNL     1       2.674   3.206  18.996  0.00  0.00    +0.000 C 
ATOM      5  C   UNL     1       3.693   4.194  18.372  0.00  0.00    +0.000 C 
ATOM      6  C   UNL     1       3.034   5.623  18.372  0.00  0.00    +0.000 C 
ENDROOT
BRANCH   1   7
ATOM      7  C   UNL     1       2.183   7.466  19.815  0.00  0.00    +0.000 C 
BRANCH   7   8
ATOM      8  C   UNL     1       1.305   7.712  21.056  0.00  0.00    +0.000 C 
BRANCH   8  10
ATOM      9  O   UNL     1       1.547   9.434  22.764  0.00  0.00    +0.000 OA
ATOM     10  C   UNL     1       1.236   9.127  21.628  0.00  0.00    +0.000 C 
ATOM     11  N   UNL     1       0.849  10.026  20.635  0.00  0.00    +0.000 N 
ATOM     12  H   UNL     1       0.559   9.628  19.751  0.00  0.00    +0.000 HD
BRANCH  11  13
ATOM     13  C   UNL     1       0.870  11.489  20.729  0.00  0.00    +0.000 C 
ATOM     14  C   UNL     1       0.758  12.111  19.324  0.00  0.00    +0.000 C 
ATOM     15  C   UNL     1      -0.613  11.879  18.689  0.00  0.00    +0.000 C 
ATOM     16  C   UNL     1      -1.738  12.422  19.561  0.00  0.00    +0.000 C 
ATOM     17  C   UNL     1      -1.644  11.972  21.019  0.00  0.00    +0.000 C 
ATOM     18  C   UNL     1      -0.239  12.058  21.622  0.00  0.00    +0.000 C 
ENDBRANCH  11  13
ENDBRANCH   8  10
ENDBRANCH   7   8
ENDBRANCH   1   7
BRANCH   5  19
ATOM     19  C   UNL     1       5.037   4.235  19.152  0.00  0.00    +0.000 C 
BRANCH  19  20
ATOM     20  O   UNL     1       5.411   5.529  19.611  0.00  0.00    +0.000 OA
ATOM     21  H   UNL     1       6.222   5.410  20.151  0.00  0.00    +0.000 HD
ENDBRANCH  19  20
ENDBRANCH   5  19
BRANCH   5  22
ATOM     22  C   UNL     1       4.005   3.743  16.901  0.00  0.00    +0.000 C 
BRANCH  22  23
ATOM     23  C   UNL     1       5.346   4.215  16.364  0.00  0.00    +0.000 C 
ATOM     24  C   UNL     1       5.612   4.213  14.878  0.00  0.00    +0.000 C 
ATOM     25  C   UNL     1       5.474   5.517  15.613  0.00  0.00    +0.000 C 
ENDBRANCH  22  23
ENDBRANCH   5  22
TORSDOF 8
ENDMDL
MODEL 7
REMARK VINA RESULT:      -6.2      3.285      7.233
REMARK  Name = 
REMARK  8 active torsions:
REMARK  status: ('A' for Active; 'I' for Inactive)
REMARK    1  A    between atoms: C_2  and  C_3
REMARK    2  A    between atoms: C_3  and  C_4
REMARK    3  A    between atoms: C_4  and  N_5
REMARK    4  A    between atoms: C_9  and  C_10
REMARK    5  A    between atoms: C_9  and  C_12
REMARK    6  A    between atoms: C_10  and  O_11
REMARK    7  A    between atoms: C_12  and  C_13
REMARK    8  A    between atoms: N_17  and  C_18
REMARK                            x       y       z     vdW  Elec       q    Type
REMARK                         _______ _______ _______ _____ _____    ______ ____
ROOT
ATOM      1  N   UNL     1       5.489   5.367  17.647  0.00  0.00    +0.000 NA
ATOM      2  C   UNL     1       5.261   6.645  16.943  0.00  0.00    +0.000 C 
ATOM      3  C   UNL     1       4.098   7.428  17.546  0.00  0.00    +0.000 C 
ATOM      4  C   UNL     1       2.830   6.598  17.644  0.00  0.00    +0.000 C 
ATOM      5  C   UNL     1       3.037   5.193  18.265  0.00  0.00    +0.000 C 
ATOM      6  C   UNL     1       4.264   4.527  17.539  0.00  0.00    +0.000 C 
ENDROOT
BRANCH   1   7
ATOM      7  C   UNL     1       6.719   4.678  17.149  0.00  0.00    +0.000 C 
BRANCH   7   8
ATOM      8  C   UNL     1       6.415   3.838  15.895  0.00  0.00    +0.000 C 
BRANCH   8  10
ATOM      9  O   UNL     1       7.374   5.375  14.264  0.00  0.00    +0.000 OA
ATOM     10  C   UNL     1       6.573   4.495  14.525  0.00  0.00    +0.000 C 
ATOM     11  N   UNL     1       5.730   3.882  13.601  0.00  0.00    +0.000 N 
ATOM     12  H   UNL     1       5.070   3.207  13.966  0.00  0.00    +0.000 HD
BRANCH  11  13
ATOM     13  C   UNL     1       5.740   4.081  12.147  0.00  0.00    +0.000 C 
ATOM     14  C   UNL     1       7.160   3.862  11.593  0.00  0.00    +0.000 C 
ATOM     15  C   UNL     1       7.608   2.404  11.692  0.00  0.00    +0.000 C 
ATOM     16  C   UNL     1       6.647   1.468  10.970  0.00  0.00    +0.000 C 
ATOM     17  C   UNL     1       5.183   1.694  11.349  0.00  0.00    +0.000 C 
ATOM     18  C   UNL     1       4.761   3.166  11.401  0.00  0.00    +0.000 C 
ENDBRANCH  11  13
ENDBRANCH   8  10
ENDBRANCH   7   8
ENDBRANCH   1   7
BRANCH   5  19
ATOM     19  C   UNL     1       3.300   5.253  19.796  0.00  0.00    +0.000 C 
BRANCH  19  20
ATOM     20  O   UNL     1       2.623   6.308  20.468  0.00  0.00    +0.000 OA
ATOM     21  H   UNL     1       2.570   7.055  19.833  0.00  0.00    +0.000 HD
ENDBRANCH  19  20
ENDBRANCH   5  19
BRANCH   5  22
ATOM     22  C   UNL     1       1.741   4.338  18.032  0.00  0.00    +0.000 C 
BRANCH  22  23
ATOM     23  C   UNL     1       1.428   3.350  19.143  0.00  0.00    +0.000 C 
ATOM     24  C   UNL     1       0.572   2.137  18.861  0.00  0.00    +0.000 C 
ATOM     25  C   UNL     1       2.036   1.970  19.158  0.00  0.00    +0.000 C 
ENDBRANCH  22  23
ENDBRANCH   5  22
TORSDOF 8
ENDMDL
MODEL 8
REMARK VINA RESULT:      -6.2      3.491      6.760
REMARK  Name = 
REMARK  8 active torsions:
REMARK  status: ('A' for Active; 'I' for Inactive)
REMARK    1  A    between atoms: C_2  and  C_3
REMARK    2  A    between atoms: C_3  and  C_4
REMARK    3  A    between atoms: C_4  and  N_5
REMARK    4  A    between atoms: C_9  and  C_10
REMARK    5  A    between atoms: C_9  and  C_12
REMARK    6  A    between atoms: C_10  and  O_11
REMARK    7  A    between atoms: C_12  and  C_13
REMARK    8  A    between atoms: N_17  and  C_18
REMARK                            x       y       z     vdW  Elec       q    Type
REMARK                         _______ _______ _______ _____ _____    ______ ____
ROOT
ATOM      1  N   UNL     1       3.745   6.259  17.389  0.00  0.00    +0.000 NA
ATOM      2  C   UNL     1       4.988   5.900  16.678  0.00  0.00    +0.000 C 
ATOM      3  C   UNL     1       4.971   4.455  16.192  0.00  0.00    +0.000 C 
ATOM      4  C   UNL     1       4.651   3.473  17.306  0.00  0.00    +0.000 C 
ATOM      5  C   UNL     1       3.422   3.867  18.165  0.00  0.00    +0.000 C 
ATOM      6  C   UNL     1       3.593   5.376  18.579  0.00  0.00    +0.000 C 
ENDROOT
BRANCH   1   7
ATOM      7  C   UNL     1       3.706   7.714  17.729  0.00  0.00    +0.000 C 
BRANCH   7   8
ATOM      8  C   UNL     1       2.274   8.270  17.628  0.00  0.00    +0.000 C 
BRANCH   8  10
ATOM      9  O   UNL     1       1.792   8.228  20.017  0.00  0.00    +0.000 OA
ATOM     10  C   UNL     1       1.566   8.692  18.914  0.00  0.00    +0.000 C 
ATOM     11  N   UNL     1       0.688   9.743  18.653  0.00  0.00    +0.000 N 
ATOM     12  H   UNL     1       0.550   9.989  17.682  0.00  0.00    +0.000 HD
BRANCH  11  13
ATOM     13  C   UNL     1      -0.013  10.559  19.650  0.00  0.00    +0.000 C 
ATOM     14  C   UNL     1       0.844  11.781  20.031  0.00  0.00    +0.000 C 
ATOM     15  C   UNL     1       0.984  12.779  18.881  0.00  0.00    +0.000 C 
ATOM     16  C   UNL     1      -0.374  13.262  18.386  0.00  0.00    +0.000 C 
ATOM     17  C   UNL     1      -1.356  12.126  18.106  0.00  0.00    +0.000 C 
ATOM     18  C   UNL     1      -1.393  11.038  19.184  0.00  0.00    +0.000 C 
ENDBRANCH  11  13
ENDBRANCH   8  10
ENDBRANCH   7   8
ENDBRANCH   1   7
BRANCH   5  19
ATOM     19  C   UNL     1       2.079   3.680  17.404  0.00  0.00    +0.000 C 
BRANCH  19  20
ATOM     20  O   UNL     1       1.165   4.761  17.550  0.00  0.00    +0.000 OA
ATOM     21  H   UNL     1       0.758   4.664  18.438  0.00  0.00    +0.000 HD
ENDBRANCH  19  20
ENDBRANCH   5  19
BRANCH   5  22
ATOM     22  C   UNL     1       3.381   2.956  19.443  0.00  0.00    +0.000 C 
BRANCH  22  23
ATOM     23  C   UNL     1       2.608   3.542  20.612  0.00  0.00    +0.000 C 
ATOM     24  C   UNL     1       1.163   3.160  20.834  0.00  0.00    +0.000 C 
ATOM     25  C   UNL     1       2.219   2.694  21.798  0.00  0.00    +0.000 C 
ENDBRANCH  22  23
ENDBRANCH   5  22
TORSDOF 8
ENDMDL
MODEL 9
REMARK VINA RESULT:      -6.2      2.383      7.691
REMARK  Name = 
REMARK  8 active torsions:
REMARK  status: ('A' for Active; 'I' for Inactive)
REMARK    1  A    between atoms: C_2  and  C_3
REMARK    2  A    between atoms: C_3  and  C_4
REMARK    3  A    between atoms: C_4  and  N_5
REMARK    4  A    between atoms: C_9  and  C_10
REMARK    5  A    between atoms: C_9  and  C_12
REMARK    6  A    between atoms: C_10  and  O_11
REMARK    7  A    between atoms: C_12  and  C_13
REMARK    8  A    between atoms: N_17  and  C_18
REMARK                            x       y       z     vdW  Elec       q    Type
REMARK                         _______ _______ _______ _____ _____    ______ ____
ROOT
ATOM      1  N   UNL     1       6.772   5.340  17.663  0.00  0.00    +0.000 NA
ATOM      2  C   UNL     1       6.913   4.514  16.446  0.00  0.00    +0.000 C 
ATOM      3  C   UNL     1       5.594   4.380  15.693  0.00  0.00    +0.000 C 
ATOM      4  C   UNL     1       4.465   3.891  16.583  0.00  0.00    +0.000 C 
ATOM      5  C   UNL     1       4.350   4.645  17.933  0.00  0.00    +0.000 C 
ATOM      6  C   UNL     1       5.785   4.697  18.575  0.00  0.00    +0.000 C 
ENDROOT
BRANCH   1   7
ATOM      7  C   UNL     1       8.095   5.591  18.313  0.00  0.00    +0.000 C 
BRANCH   7   8
ATOM      8  C   UNL     1       8.112   6.955  19.026  0.00  0.00    +0.000 C 
BRANCH   8  10
ATOM      9  O   UNL     1       7.546   8.360  17.117  0.00  0.00    +0.000 OA
ATOM     10  C   UNL     1       8.138   8.221  18.171  0.00  0.00    +0.000 C 
ATOM     11  N   UNL     1       8.867   9.219  18.817  0.00  0.00    +0.000 N 
ATOM     12  H   UNL     1       9.360   8.949  19.658  0.00  0.00    +0.000 HD
BRANCH  11  13
ATOM     13  C   UNL     1       8.946  10.630  18.426  0.00  0.00    +0.000 C 
ATOM     14  C   UNL     1       8.676  11.533  19.644  0.00  0.00    +0.000 C 
ATOM     15  C   UNL     1       9.791  11.455  20.687  0.00  0.00    +0.000 C 
ATOM     16  C   UNL     1      11.146  11.819  20.093  0.00  0.00    +0.000 C 
ATOM     17  C   UNL     1      11.458  11.074  18.795  0.00  0.00    +0.000 C 
ATOM     18  C   UNL     1      10.293  11.015  17.801  0.00  0.00    +0.000 C 
ENDBRANCH  11  13
ENDBRANCH   8  10
ENDBRANCH   7   8
ENDBRANCH   1   7
BRANCH   5  19
ATOM     19  C   UNL     1       3.797   6.088  17.762  0.00  0.00    +0.000 C 
BRANCH  19  20
ATOM     20  O   UNL     1       4.795   7.077  17.536  0.00  0.00    +0.000 OA
ATOM     21  H   UNL     1       5.415   6.701  16.874  0.00  0.00    +0.000 HD
ENDBRANCH  19  20
ENDBRANCH   5  19
BRANCH   5  22
ATOM     22  C   UNL     1       3.365   3.860  18.872  0.00  0.00    +0.000 C 
BRANCH  22  23
ATOM     23  C   UNL     1       2.106   4.624  19.247  0.00  0.00    +0.000 C 
ATOM     24  C   UNL     1       1.057   3.975  20.119  0.00  0.00    +0.000 C 
ATOM     25  C   UNL     1       1.878   5.114  20.655  0.00  0.00    +0.000 C 
ENDBRANCH  22  23
ENDBRANCH   5  22
TORSDOF 8
ENDMDL
