MODEL 1
REMARK VINA RESULT:      -6.9      0.000      0.000
REMARK  Name = 
REMARK  6 active torsions:
REMARK  status: ('A' for Active; 'I' for Inactive)
REMARK    1  A    between atoms: C_1  and  C_2
REMARK    2  A    between atoms: C_2  and  S_3
REMARK    3  A    between atoms: S_3  and  C_4
REMARK    4  A    between atoms: C_9  and  C_11
REMARK    5  A    between atoms: C_11  and  C_12
REMARK    6  A    between atoms: C_12  and  C_13
REMARK                            x       y       z     vdW  Elec       q    Type
REMARK                         _______ _______ _______ _____ _____    ______ ____
ROOT
ATOM      1  C   UNL     1       6.699   4.425  13.643  0.00  0.00    +0.000 A 
ATOM      2  N   UNL     1       7.673   5.253  13.969  0.00  0.00    +0.000 NA
ATOM      3  N   UNL     1       7.539   5.717  15.272  0.00  0.00    +0.000 NA
ATOM      4  C   UNL     1       6.496   5.184  15.878  0.00  0.00    +0.000 A 
ATOM      5  N   UNL     1       6.157   5.464  17.190  0.00  0.00    +0.000 N 
ATOM      6  C   UNL     1       5.334   4.667  17.968  0.00  0.00    +0.000 C 
ATOM      7  O   UNL     1       4.757   3.656  17.596  0.00  0.00    +0.000 OA
ATOM      8  S   UNL     1       5.542   4.192  14.875  0.00  0.00    +0.000 S 
ATOM      9  H   UNL     1       6.689   6.211  17.610  0.00  0.00    +0.000 HD
ENDROOT
BRANCH   1  10
ATOM     10  S   UNL     1       6.592   3.627  12.092  0.00  0.00    +0.000 S 
BRANCH  10  12
ATOM     11  C   UNL     1       4.158   3.556  10.859  0.00  0.00    +0.000 C 
ATOM     12  C   UNL     1       4.868   3.060  12.110  0.00  0.00    +0.000 C 
ENDBRANCH  10  12
ENDBRANCH   1  10
BRANCH   6  13
ATOM     13  C   UNL     1       5.184   5.159  19.405  0.00  0.00    +0.000 C 
BRANCH  13  14
ATOM     14  C   UNL     1       3.760   5.699  19.626  0.00  0.00    +0.000 C 
BRANCH  14  15
ATOM     15  C   UNL     1       2.745   4.655  20.029  0.00  0.00    +0.000 A 
ATOM     16  C   UNL     1       1.764   4.248  19.114  0.00  0.00    +0.000 A 
ATOM     17  C   UNL     1       0.794   3.312  19.477  0.00  0.00    +0.000 A 
ATOM     18  C   UNL     1       0.800   2.759  20.755  0.00  0.00    +0.000 A 
ATOM     19  C   UNL     1       1.794   3.123  21.662  0.00  0.00    +0.000 A 
ATOM     20  C   UNL     1       2.764   4.066  21.300  0.00  0.00    +0.000 A 
ENDBRANCH  14  15
ENDBRANCH  13  14
ENDBRANCH   6  13
TORSDOF 5
ENDMDL
MODEL 2
REMARK VINA RESULT:      -6.9      5.026      7.788
REMARK  Name = 
REMARK  6 active torsions:
REMARK  status: ('A' for Active; 'I' for Inactive)
REMARK    1  A    between atoms: C_1  and  C_2
REMARK    2  A    between atoms: C_2  and  S_3
REMARK    3  A    between atoms: S_3  and  C_4
REMARK    4  A    between atoms: C_9  and  C_11
REMARK    5  A    between atoms: C_11  and  C_12
REMARK    6  A    between atoms: C_12  and  C_13
REMARK                            x       y       z     vdW  Elec       q    Type
REMARK                         _______ _______ _______ _____ _____    ______ ____
ROOT
ATOM      1  C   UNL     1       4.328   3.672  18.128  0.00  0.00    +0.000 A 
ATOM      2  N   UNL     1       4.800   3.453  19.341  0.00  0.00    +0.000 NA
ATOM      3  N   UNL     1       5.886   4.271  19.625  0.00  0.00    +0.000 NA
ATOM      4  C   UNL     1       6.154   5.096  18.632  0.00  0.00    +0.000 A 
ATOM      5  N   UNL     1       7.174   6.029  18.675  0.00  0.00    +0.000 N 
ATOM      6  C   UNL     1       7.249   7.139  17.850  0.00  0.00    +0.000 C 
ATOM      7  O   UNL     1       6.472   7.415  16.949  0.00  0.00    +0.000 OA
ATOM      8  S   UNL     1       5.195   4.847  17.246  0.00  0.00    +0.000 S 
ATOM      9  H   UNL     1       7.787   5.943  19.471  0.00  0.00    +0.000 HD
ENDROOT
BRANCH   1  10
ATOM     10  S   UNL     1       2.936   2.843  17.472  0.00  0.00    +0.000 S 
BRANCH  10  12
ATOM     11  C   UNL     1       1.015   3.143  19.387  0.00  0.00    +0.000 C 
ATOM     12  C   UNL     1       1.583   3.838  18.159  0.00  0.00    +0.000 C 
ENDBRANCH  10  12
ENDBRANCH   1  10
BRANCH   6  13
ATOM     13  C   UNL     1       8.432   8.052  18.157  0.00  0.00    +0.000 C 
BRANCH  13  14
ATOM     14  C   UNL     1       8.055   9.514  17.857  0.00  0.00    +0.000 C 
BRANCH  14  15
ATOM     15  C   UNL     1       8.956  10.542  18.501  0.00  0.00    +0.000 A 
ATOM     16  C   UNL     1       9.373  11.660  17.765  0.00  0.00    +0.000 A 
ATOM     17  C   UNL     1      10.235  12.603  18.327  0.00  0.00    +0.000 A 
ATOM     18  C   UNL     1      10.680  12.449  19.637  0.00  0.00    +0.000 A 
ATOM     19  C   UNL     1      10.241  11.364  20.395  0.00  0.00    +0.000 A 
ATOM     20  C   UNL     1       9.381  10.415  19.830  0.00  0.00    +0.000 A 
ENDBRANCH  14  15
ENDBRANCH  13  14
ENDBRANCH   6  13
TORSDOF 5
ENDMDL
MODEL 3
REMARK VINA RESULT:      -6.6      5.398      8.112
REMARK  Name = 
REMARK  6 active torsions:
REMARK  status: ('A' for Active; 'I' for Inactive)
REMARK    1  A    between atoms: C_1  and  C_2
REMARK    2  A    between atoms: C_2  and  S_3
REMARK    3  A    between atoms: S_3  and  C_4
REMARK    4  A    between atoms: C_9  and  C_11
REMARK    5  A    between atoms: C_11  and  C_12
REMARK    6  A    between atoms: C_12  and  C_13
REMARK                            x       y       z     vdW  Elec       q    Type
REMARK                         _______ _______ _______ _____ _____    ______ ____
ROOT
ATOM      1  C   UNL     1       4.708   4.295  17.631  0.00  0.00    +0.000 A 
ATOM      2  N   UNL     1       4.495   4.649  16.377  0.00  0.00    +0.000 NA
ATOM      3  N   UNL     1       5.184   5.810  16.049  0.00  0.00    +0.000 NA
ATOM      4  C   UNL     1       5.917   6.249  17.053  0.00  0.00    +0.000 A 
ATOM      5  N   UNL     1       6.717   7.375  16.974  0.00  0.00    +0.000 N 
ATOM      6  C   UNL     1       7.764   7.648  17.838  0.00  0.00    +0.000 C 
ATOM      7  O   UNL     1       8.087   6.976  18.805  0.00  0.00    +0.000 OA
ATOM      8  S   UNL     1       5.718   5.363  18.496  0.00  0.00    +0.000 S 
ATOM      9  H   UNL     1       6.597   7.915  16.131  0.00  0.00    +0.000 HD
ENDROOT
BRANCH   1  10
ATOM     10  S   UNL     1       4.025   2.856  18.353  0.00  0.00    +0.000 S 
BRANCH  10  12
ATOM     11  C   UNL     1       1.577   4.062  18.368  0.00  0.00    +0.000 C 
ATOM     12  C   UNL     1       2.659   3.566  19.315  0.00  0.00    +0.000 C 
ENDBRANCH  10  12
ENDBRANCH   1  10
BRANCH   6  13
ATOM     13  C   UNL     1       8.537   8.914  17.483  0.00  0.00    +0.000 C 
BRANCH  13  14
ATOM     14  C   UNL     1       8.401   9.945  18.618  0.00  0.00    +0.000 C 
BRANCH  14  15
ATOM     15  C   UNL     1       9.634  10.784  18.859  0.00  0.00    +0.000 A 
ATOM     16  C   UNL     1       9.974  11.163  20.166  0.00  0.00    +0.000 A 
ATOM     17  C   UNL     1      11.087  11.969  20.408  0.00  0.00    +0.000 A 
ATOM     18  C   UNL     1      11.885  12.395  19.348  0.00  0.00    +0.000 A 
ATOM     19  C   UNL     1      11.584  11.991  18.049  0.00  0.00    +0.000 A 
ATOM     20  C   UNL     1      10.463  11.188  17.805  0.00  0.00    +0.000 A 
ENDBRANCH  14  15
ENDBRANCH  13  14
ENDBRANCH   6  13
TORSDOF 5
ENDMDL
MODEL 4
REMARK VINA RESULT:      -6.6      0.622      1.247
REMARK  Name = 
REMARK  6 active torsions:
REMARK  status: ('A' for Active; 'I' for Inactive)
REMARK    1  A    between atoms: C_1  and  C_2
REMARK    2  A    between atoms: C_2  and  S_3
REMARK    3  A    between atoms: S_3  and  C_4
REMARK    4  A    between atoms: C_9  and  C_11
REMARK    5  A    between atoms: C_11  and  C_12
REMARK    6  A    between atoms: C_12  and  C_13
REMARK                            x       y       z     vdW  Elec       q    Type
REMARK                         _______ _______ _______ _____ _____    ______ ____
ROOT
ATOM      1  C   UNL     1       6.672   4.131  13.151  0.00  0.00    +0.000 A 
ATOM      2  N   UNL     1       7.647   4.956  13.483  0.00  0.00    +0.000 NA
ATOM      3  N   UNL     1       7.424   5.542  14.722  0.00  0.00    +0.000 NA
ATOM      4  C   UNL     1       6.316   5.099  15.284  0.00  0.00    +0.000 A 
ATOM      5  N   UNL     1       5.882   5.509  16.532  0.00  0.00    +0.000 N 
ATOM      6  C   UNL     1       4.968   4.813  17.305  0.00  0.00    +0.000 C 
ATOM      7  O   UNL     1       4.386   3.790  16.978  0.00  0.00    +0.000 OA
ATOM      8  S   UNL     1       5.410   4.047  14.295  0.00  0.00    +0.000 S 
ATOM      9  H   UNL     1       6.405   6.275  16.927  0.00  0.00    +0.000 HD
ENDROOT
BRANCH   1  10
ATOM     10  S   UNL     1       6.663   3.196  11.673  0.00  0.00    +0.000 S 
BRANCH  10  12
ATOM     11  C   UNL     1       4.060   3.376  10.874  0.00  0.00    +0.000 C 
ATOM     12  C   UNL     1       4.985   2.505  11.710  0.00  0.00    +0.000 C 
ENDBRANCH  10  12
ENDBRANCH   1  10
BRANCH   6  13
ATOM     13  C   UNL     1       4.720   5.439  18.674  0.00  0.00    +0.000 C 
BRANCH  13  14
ATOM     14  C   UNL     1       3.227   5.779  18.830  0.00  0.00    +0.000 C 
BRANCH  14  15
ATOM     15  C   UNL     1       2.408   4.715  19.524  0.00  0.00    +0.000 A 
ATOM     16  C   UNL     1       2.594   4.477  20.894  0.00  0.00    +0.000 A 
ATOM     17  C   UNL     1       1.875   3.475  21.547  0.00  0.00    +0.000 A 
ATOM     18  C   UNL     1       0.952   2.705  20.844  0.00  0.00    +0.000 A 
ATOM     19  C   UNL     1       0.727   2.958  19.491  0.00  0.00    +0.000 A 
ATOM     20  C   UNL     1       1.451   3.960  18.834  0.00  0.00    +0.000 A 
ENDBRANCH  14  15
ENDBRANCH  13  14
ENDBRANCH   6  13
TORSDOF 5
ENDMDL
MODEL 5
REMARK VINA RESULT:      -6.6      5.590      8.216
REMARK  Name = 
REMARK  6 active torsions:
REMARK  status: ('A' for Active; 'I' for Inactive)
REMARK    1  A    between atoms: C_1  and  C_2
REMARK    2  A    between atoms: C_2  and  S_3
REMARK    3  A    between atoms: S_3  and  C_4
REMARK    4  A    between atoms: C_9  and  C_11
REMARK    5  A    between atoms: C_11  and  C_12
REMARK    6  A    between atoms: C_12  and  C_13
REMARK                            x       y       z     vdW  Elec       q    Type
REMARK                         _______ _______ _______ _____ _____    ______ ____
ROOT
ATOM      1  C   UNL     1       4.858   4.499  17.105  0.00  0.00    +0.000 A 
ATOM      2  N   UNL     1       4.748   4.967  15.876  0.00  0.00    +0.000 NA
ATOM      3  N   UNL     1       5.427   6.169  15.722  0.00  0.00    +0.000 NA
ATOM      4  C   UNL     1       6.052   6.527  16.826  0.00  0.00    +0.000 A 
ATOM      5  N   UNL     1       6.820   7.673  16.926  0.00  0.00    +0.000 N 
ATOM      6  C   UNL     1       7.776   7.886  17.905  0.00  0.00    +0.000 C 
ATOM      7  O   UNL     1       8.032   7.133  18.832  0.00  0.00    +0.000 OA
ATOM      8  S   UNL     1       5.752   5.503  18.155  0.00  0.00    +0.000 S 
ATOM      9  H   UNL     1       6.759   8.289  16.130  0.00  0.00    +0.000 HD
ENDROOT
BRANCH   1  10
ATOM     10  S   UNL     1       4.159   2.983  17.625  0.00  0.00    +0.000 S 
BRANCH  10  12
ATOM     11  C   UNL     1       2.596   2.376  19.778  0.00  0.00    +0.000 C 
ATOM     12  C   UNL     1       3.598   3.414  19.296  0.00  0.00    +0.000 C 
ENDBRANCH  10  12
ENDBRANCH   1  10
BRANCH   6  13
ATOM     13  C   UNL     1       8.538   9.198  17.742  0.00  0.00    +0.000 C 
BRANCH  13  14
ATOM     14  C   UNL     1       8.988   9.715  19.121  0.00  0.00    +0.000 C 
BRANCH  14  15
ATOM     15  C   UNL     1       9.956  10.874  19.074  0.00  0.00    +0.000 A 
ATOM     16  C   UNL     1      10.439  11.328  17.838  0.00  0.00    +0.000 A 
ATOM     17  C   UNL     1      11.362  12.372  17.773  0.00  0.00    +0.000 A 
ATOM     18  C   UNL     1      11.804  12.988  18.941  0.00  0.00    +0.000 A 
ATOM     19  C   UNL     1      11.302  12.575  20.174  0.00  0.00    +0.000 A 
ATOM     20  C   UNL     1      10.380  11.523  20.240  0.00  0.00    +0.000 A 
ENDBRANCH  14  15
ENDBRANCH  13  14
ENDBRANCH   6  13
TORSDOF 5
ENDMDL
MODEL 6
REMARK VINA RESULT:      -6.5      6.672      8.624
REMARK  Name = 
REMARK  6 active torsions:
REMARK  status: ('A' for Active; 'I' for Inactive)
REMARK    1  A    between atoms: C_1  and  C_2
REMARK    2  A    between atoms: C_2  and  S_3
REMARK    3  A    between atoms: S_3  and  C_4
REMARK    4  A    between atoms: C_9  and  C_11
REMARK    5  A    between atoms: C_11  and  C_12
REMARK    6  A    between atoms: C_12  and  C_13
REMARK                            x       y       z     vdW  Elec       q    Type
REMARK                         _______ _______ _______ _____ _____    ______ ____
ROOT
ATOM      1  C   UNL     1       0.106  12.364  20.586  0.00  0.00    +0.000 A 
ATOM      2  N   UNL     1       0.428  11.737  21.702  0.00  0.00    +0.000 NA
ATOM      3  N   UNL     1       0.921  10.463  21.451  0.00  0.00    +0.000 NA
ATOM      4  C   UNL     1       0.988  10.207  20.159  0.00  0.00    +0.000 A 
ATOM      5  N   UNL     1       1.468   9.015  19.646  0.00  0.00    +0.000 N 
ATOM      6  C   UNL     1       1.907   8.850  18.343  0.00  0.00    +0.000 C 
ATOM      7  O   UNL     1       1.882   9.699  17.466  0.00  0.00    +0.000 OA
ATOM      8  S   UNL     1       0.341  11.437  19.174  0.00  0.00    +0.000 S 
ATOM      9  H   UNL     1       1.639   8.300  20.336  0.00  0.00    +0.000 HD
ENDROOT
BRANCH   1  10
ATOM     10  S   UNL     1      -0.502  14.002  20.544  0.00  0.00    +0.000 S 
BRANCH  10  12
ATOM     11  C   UNL     1      -0.280  16.007  18.705  0.00  0.00    +0.000 C 
ATOM     12  C   UNL     1       0.047  14.534  18.898  0.00  0.00    +0.000 C 
ENDBRANCH  10  12
ENDBRANCH   1  10
BRANCH   6  13
ATOM     13  C   UNL     1       2.461   7.457  18.055  0.00  0.00    +0.000 C 
BRANCH  13  14
ATOM     14  C   UNL     1       2.629   6.679  19.373  0.00  0.00    +0.000 C 
BRANCH  14  15
ATOM     15  C   UNL     1       2.041   5.288  19.362  0.00  0.00    +0.000 A 
ATOM     16  C   UNL     1       1.512   4.746  20.543  0.00  0.00    +0.000 A 
ATOM     17  C   UNL     1       0.998   3.449  20.565  0.00  0.00    +0.000 A 
ATOM     18  C   UNL     1       0.991   2.680  19.404  0.00  0.00    +0.000 A 
ATOM     19  C   UNL     1       1.475   3.220  18.213  0.00  0.00    +0.000 A 
ATOM     20  C   UNL     1       1.996   4.519  18.192  0.00  0.00    +0.000 A 
ENDBRANCH  14  15
ENDBRANCH  13  14
ENDBRANCH   6  13
TORSDOF 5
ENDMDL
MODEL 7
REMARK VINA RESULT:      -6.5      5.332      8.159
REMARK  Name = 
REMARK  6 active torsions:
REMARK  status: ('A' for Active; 'I' for Inactive)
REMARK    1  A    between atoms: C_1  and  C_2
REMARK    2  A    between atoms: C_2  and  S_3
REMARK    3  A    between atoms: S_3  and  C_4
REMARK    4  A    between atoms: C_9  and  C_11
REMARK    5  A    between atoms: C_11  and  C_12
REMARK    6  A    between atoms: C_12  and  C_13
REMARK                            x       y       z     vdW  Elec       q    Type
REMARK                         _______ _______ _______ _____ _____    ______ ____
ROOT
ATOM      1  C   UNL     1       4.855   4.152  18.242  0.00  0.00    +0.000 A 
ATOM      2  N   UNL     1       5.566   3.962  19.337  0.00  0.00    +0.000 NA
ATOM      3  N   UNL     1       6.631   4.849  19.417  0.00  0.00    +0.000 NA
ATOM      4  C   UNL     1       6.647   5.692  18.404  0.00  0.00    +0.000 A 
ATOM      5  N   UNL     1       7.594   6.691  18.263  0.00  0.00    +0.000 N 
ATOM      6  C   UNL     1       7.435   7.805  17.456  0.00  0.00    +0.000 C 
ATOM      7  O   UNL     1       6.481   8.031  16.727  0.00  0.00    +0.000 OA
ATOM      8  S   UNL     1       5.455   5.384  17.226  0.00  0.00    +0.000 S 
ATOM      9  H   UNL     1       8.354   6.645  18.924  0.00  0.00    +0.000 HD
ENDROOT
BRANCH   1  10
ATOM     10  S   UNL     1       3.418   3.234  17.855  0.00  0.00    +0.000 S 
BRANCH  10  12
ATOM     11  C   UNL     1       1.711   4.503  19.564  0.00  0.00    +0.000 C 
ATOM     12  C   UNL     1       2.128   4.487  18.102  0.00  0.00    +0.000 C 
ENDBRANCH  10  12
ENDBRANCH   1  10
BRANCH   6  13
ATOM     13  C   UNL     1       8.594   8.794  17.542  0.00  0.00    +0.000 C 
BRANCH  13  14
ATOM     14  C   UNL     1       8.503   9.594  18.854  0.00  0.00    +0.000 C 
BRANCH  14  15
ATOM     15  C   UNL     1       9.598  10.616  19.047  0.00  0.00    +0.000 A 
ATOM     16  C   UNL     1       9.918  11.058  20.339  0.00  0.00    +0.000 A 
ATOM     17  C   UNL     1      10.901  12.029  20.537  0.00  0.00    +0.000 A 
ATOM     18  C   UNL     1      11.587  12.562  19.448  0.00  0.00    +0.000 A 
ATOM     19  C   UNL     1      11.308  12.103  18.162  0.00  0.00    +0.000 A 
ATOM     20  C   UNL     1      10.318  11.133  17.962  0.00  0.00    +0.000 A 
ENDBRANCH  14  15
ENDBRANCH  13  14
ENDBRANCH   6  13
TORSDOF 5
ENDMDL
MODEL 8
REMARK VINA RESULT:      -6.4      6.162      8.623
REMARK  Name = 
REMARK  6 active torsions:
REMARK  status: ('A' for Active; 'I' for Inactive)
REMARK    1  A    between atoms: C_1  and  C_2
REMARK    2  A    between atoms: C_2  and  S_3
REMARK    3  A    between atoms: S_3  and  C_4
REMARK    4  A    between atoms: C_9  and  C_11
REMARK    5  A    between atoms: C_11  and  C_12
REMARK    6  A    between atoms: C_12  and  C_13
REMARK                            x       y       z     vdW  Elec       q    Type
REMARK                         _______ _______ _______ _____ _____    ______ ____
ROOT
ATOM      1  C   UNL     1       0.077  11.092  21.167  0.00  0.00    +0.000 A 
ATOM      2  N   UNL     1       0.509  10.331  22.155  0.00  0.00    +0.000 NA
ATOM      3  N   UNL     1       1.146   9.190  21.683  0.00  0.00    +0.000 NA
ATOM      4  C   UNL     1       1.203   9.167  20.366  0.00  0.00    +0.000 A 
ATOM      5  N   UNL     1       1.808   8.150  19.650  0.00  0.00    +0.000 N 
ATOM      6  C   UNL     1       2.222   8.264  18.334  0.00  0.00    +0.000 C 
ATOM      7  O   UNL     1       2.063   9.240  17.616  0.00  0.00    +0.000 OA
ATOM      8  S   UNL     1       0.377  10.454  19.614  0.00  0.00    +0.000 S 
ATOM      9  H   UNL     1       2.087   7.356  20.205  0.00  0.00    +0.000 HD
ENDROOT
BRANCH   1  10
ATOM     10  S   UNL     1      -0.730  12.623  21.414  0.00  0.00    +0.000 S 
BRANCH  10  12
ATOM     11  C   UNL     1      -2.867  12.355  23.090  0.00  0.00    +0.000 C 
ATOM     12  C   UNL     1      -1.348  12.421  23.109  0.00  0.00    +0.000 C 
ENDBRANCH  10  12
ENDBRANCH   1  10
BRANCH   6  13
ATOM     13  C   UNL     1       2.932   7.022  17.805  0.00  0.00    +0.000 C 
BRANCH  13  14
ATOM     14  C   UNL     1       3.374   6.132  18.981  0.00  0.00    +0.000 C 
BRANCH  14  15
ATOM     15  C   UNL     1       2.493   4.930  19.227  0.00  0.00    +0.000 A 
ATOM     16  C   UNL     1       2.084   4.623  20.533  0.00  0.00    +0.000 A 
ATOM     17  C   UNL     1       1.301   3.496  20.788  0.00  0.00    +0.000 A 
ATOM     18  C   UNL     1       0.904   2.669  19.741  0.00  0.00    +0.000 A 
ATOM     19  C   UNL     1       1.269   2.985  18.433  0.00  0.00    +0.000 A 
ATOM     20  C   UNL     1       2.059   4.111  18.176  0.00  0.00    +0.000 A 
ENDBRANCH  14  15
ENDBRANCH  13  14
ENDBRANCH   6  13
TORSDOF 5
ENDMDL
MODEL 9
REMARK VINA RESULT:      -6.4      5.313      8.114
REMARK  Name = 
REMARK  6 active torsions:
REMARK  status: ('A' for Active; 'I' for Inactive)
REMARK    1  A    between atoms: C_1  and  C_2
REMARK    2  A    between atoms: C_2  and  S_3
REMARK    3  A    between atoms: S_3  and  C_4
REMARK    4  A    between atoms: C_9  and  C_11
REMARK    5  A    between atoms: C_11  and  C_12
REMARK    6  A    between atoms: C_12  and  C_13
REMARK                            x       y       z     vdW  Elec       q    Type
REMARK                         _______ _______ _______ _____ _____    ______ ____
ROOT
ATOM      1  C   UNL     1       4.638   4.036  17.720  0.00  0.00    +0.000 A 
ATOM      2  N   UNL     1       4.440   4.339  16.451  0.00  0.00    +0.000 NA
ATOM      3  N   UNL     1       5.114   5.499  16.089  0.00  0.00    +0.000 NA
ATOM      4  C   UNL     1       5.821   5.989  17.088  0.00  0.00    +0.000 A 
ATOM      5  N   UNL     1       6.603   7.126  16.979  0.00  0.00    +0.000 N 
ATOM      6  C   UNL     1       7.630   7.450  17.848  0.00  0.00    +0.000 C 
ATOM      7  O   UNL     1       7.949   6.821  18.846  0.00  0.00    +0.000 OA
ATOM      8  S   UNL     1       5.614   5.155  18.560  0.00  0.00    +0.000 S 
ATOM      9  H   UNL     1       6.487   7.632  16.114  0.00  0.00    +0.000 HD
ENDROOT
BRANCH   1  10
ATOM     10  S   UNL     1       3.969   2.614  18.486  0.00  0.00    +0.000 S 
BRANCH  10  12
ATOM     11  C   UNL     1       1.611   2.361  19.836  0.00  0.00    +0.000 C 
ATOM     12  C   UNL     1       2.729   3.360  19.581  0.00  0.00    +0.000 C 
ENDBRANCH  10  12
ENDBRANCH   1  10
BRANCH   6  13
ATOM     13  C   UNL     1       8.387   8.716  17.458  0.00  0.00    +0.000 C 
BRANCH  13  14
ATOM     14  C   UNL     1       8.708   9.542  18.717  0.00  0.00    +0.000 C 
BRANCH  14  15
ATOM     15  C   UNL     1       9.390  10.863  18.447  0.00  0.00    +0.000 A 
ATOM     16  C   UNL     1       8.662  11.919  17.879  0.00  0.00    +0.000 A 
ATOM     17  C   UNL     1       9.281  13.135  17.586  0.00  0.00    +0.000 A 
ATOM     18  C   UNL     1      10.632  13.318  17.871  0.00  0.00    +0.000 A 
ATOM     19  C   UNL     1      11.358  12.291  18.473  0.00  0.00    +0.000 A 
ATOM     20  C   UNL     1      10.739  11.069  18.761  0.00  0.00    +0.000 A 
ENDBRANCH  14  15
ENDBRANCH  13  14
ENDBRANCH   6  13
TORSDOF 5
ENDMDL
