MODEL 1
REMARK VINA RESULT:      -7.9      0.000      0.000
REMARK  Name = 
REMARK  8 active torsions:
REMARK  status: ('A' for Active; 'I' for Inactive)
REMARK    1  A    between atoms: C_1  and  O_2
REMARK    2  A    between atoms: O_2  and  C_3
REMARK    3  A    between atoms: C_3  and  C_4
REMARK    4  A    between atoms: C_4  and  N_5
REMARK    5  A    between atoms: C_4  and  C_22
REMARK    6  A    between atoms: N_15  and  C_16
REMARK    7  A    between atoms: C_16  and  C_17
REMARK    8  A    between atoms: C_16  and  C_18
REMARK                            x       y       z     vdW  Elec       q    Type
REMARK                         _______ _______ _______ _____ _____    ______ ____
ROOT
ATOM      1  N   UNL     1       2.742   7.352  18.180  0.00  0.00    +0.000 N 
ATOM      2  C   UNL     1       1.922   8.239  18.836  0.00  0.00    +0.000 C 
ATOM      3  O   UNL     1       1.805   8.267  20.056  0.00  0.00    +0.000 OA
ATOM      4  N   UNL     1       1.207   9.018  17.952  0.00  0.00    +0.000 N 
ATOM      5  C   UNL     1       0.253   9.952  18.383  0.00  0.00    +0.000 A 
ATOM      6  C   UNL     1       0.503  10.788  19.464  0.00  0.00    +0.000 A 
ATOM      7  C   UNL     1      -0.556  11.615  19.830  0.00  0.00    +0.000 A 
ATOM      8  N   UNL     1      -0.689  12.538  20.826  0.00  0.00    +0.000 N 
ATOM      9  N   UNL     1      -1.923  13.054  20.930  0.00  0.00    +0.000 NA
ATOM     10  C   UNL     1      -2.597  12.512  19.917  0.00  0.00    +0.000 A 
ATOM     11  N   UNL     1      -3.896  12.772  19.638  0.00  0.00    +0.000 N 
ATOM     12  C   UNL     1      -1.781  11.605  19.176  0.00  0.00    +0.000 A 
ATOM     13  C   UNL     1      -1.928  10.755  18.077  0.00  0.00    +0.000 A 
ATOM     14  N   UNL     1      -0.895   9.966  17.667  0.00  0.00    +0.000 NA
ATOM     15  H   UNL     1       2.999   7.560  17.229  0.00  0.00    +0.000 HD
ATOM     16  H   UNL     1       0.923   8.550  17.105  0.00  0.00    +0.000 HD
ATOM     17  H   UNL     1       0.016  12.844  21.484  0.00  0.00    +0.000 HD
ATOM     18  H   UNL     1      -4.313  12.505  18.757  0.00  0.00    +0.000 HD
ENDROOT
BRANCH  11  19
ATOM     19  C   UNL     1      -4.812  13.227  20.685  0.00  0.00    +0.000 C 
ATOM     20  C   UNL     1      -5.355  14.616  20.356  0.00  0.00    +0.000 C 
ATOM     21  C   UNL     1      -5.960  12.226  20.818  0.00  0.00    +0.000 C 
ENDBRANCH  11  19
BRANCH   1  22
ATOM     22  C   UNL     1       3.458   6.293  18.887  0.00  0.00    +0.000 C 
BRANCH  22  23
ATOM     23  C   UNL     1       2.522   5.106  19.073  0.00  0.00    +0.000 A 
ATOM     24  C   UNL     1       2.001   4.823  20.345  0.00  0.00    +0.000 A 
ATOM     25  C   UNL     1       1.135   3.744  20.535  0.00  0.00    +0.000 A 
ATOM     26  C   UNL     1       0.774   2.940  19.457  0.00  0.00    +0.000 A 
ATOM     27  C   UNL     1       1.275   3.212  18.188  0.00  0.00    +0.000 A 
ATOM     28  C   UNL     1       2.142   4.290  17.994  0.00  0.00    +0.000 A 
ENDBRANCH  22  23
BRANCH  22  29
ATOM     29  C   UNL     1       4.770   5.860  18.188  0.00  0.00    +0.000 C 
BRANCH  29  31
ATOM     30  C   UNL     1       5.271   5.865  15.884  0.00  0.00    +0.000 C 
ATOM     31  O   UNL     1       5.039   6.666  17.037  0.00  0.00    +0.000 OA
ENDBRANCH  29  31
ENDBRANCH  22  29
ENDBRANCH   1  22
TORSDOF 5
ENDMDL
MODEL 2
REMARK VINA RESULT:      -7.8      0.668      1.194
REMARK  Name = 
REMARK  8 active torsions:
REMARK  status: ('A' for Active; 'I' for Inactive)
REMARK    1  A    between atoms: C_1  and  O_2
REMARK    2  A    between atoms: O_2  and  C_3
REMARK    3  A    between atoms: C_3  and  C_4
REMARK    4  A    between atoms: C_4  and  N_5
REMARK    5  A    between atoms: C_4  and  C_22
REMARK    6  A    between atoms: N_15  and  C_16
REMARK    7  A    between atoms: C_16  and  C_17
REMARK    8  A    between atoms: C_16  and  C_18
REMARK                            x       y       z     vdW  Elec       q    Type
REMARK                         _______ _______ _______ _____ _____    ______ ____
ROOT
ATOM      1  N   UNL     1       2.810   7.365  18.067  0.00  0.00    +0.000 N 
ATOM      2  C   UNL     1       1.993   8.240  18.741  0.00  0.00    +0.000 C 
ATOM      3  O   UNL     1       1.893   8.259  19.962  0.00  0.00    +0.000 OA
ATOM      4  N   UNL     1       1.258   9.019  17.872  0.00  0.00    +0.000 N 
ATOM      5  C   UNL     1       0.304   9.943  18.323  0.00  0.00    +0.000 A 
ATOM      6  C   UNL     1       0.562  10.774  19.406  0.00  0.00    +0.000 A 
ATOM      7  C   UNL     1      -0.498  11.589  19.793  0.00  0.00    +0.000 A 
ATOM      8  N   UNL     1      -0.625  12.505  20.796  0.00  0.00    +0.000 N 
ATOM      9  N   UNL     1      -1.861  13.010  20.922  0.00  0.00    +0.000 NA
ATOM     10  C   UNL     1      -2.545  12.469  19.915  0.00  0.00    +0.000 A 
ATOM     11  N   UNL     1      -3.850  12.720  19.656  0.00  0.00    +0.000 N 
ATOM     12  C   UNL     1      -1.733  11.573  19.157  0.00  0.00    +0.000 A 
ATOM     13  C   UNL     1      -1.889  10.730  18.054  0.00  0.00    +0.000 A 
ATOM     14  N   UNL     1      -0.856   9.952  17.624  0.00  0.00    +0.000 NA
ATOM     15  H   UNL     1       3.052   7.582  17.113  0.00  0.00    +0.000 HD
ATOM     16  H   UNL     1       0.966   8.555  17.026  0.00  0.00    +0.000 HD
ATOM     17  H   UNL     1       0.088  12.812  21.447  0.00  0.00    +0.000 HD
ATOM     18  H   UNL     1      -4.278  12.455  18.780  0.00  0.00    +0.000 HD
ENDROOT
BRANCH  11  19
ATOM     19  C   UNL     1      -4.754  13.160  20.720  0.00  0.00    +0.000 C 
ATOM     20  C   UNL     1      -5.159  14.618  20.510  0.00  0.00    +0.000 C 
ATOM     21  C   UNL     1      -5.992  12.264  20.730  0.00  0.00    +0.000 C 
ENDBRANCH  11  19
BRANCH   1  22
ATOM     22  C   UNL     1       3.545   6.307  18.756  0.00  0.00    +0.000 C 
BRANCH  22  23
ATOM     23  C   UNL     1       2.591   5.159  19.053  0.00  0.00    +0.000 A 
ATOM     24  C   UNL     1       2.100   4.370  18.002  0.00  0.00    +0.000 A 
ATOM     25  C   UNL     1       1.230   3.307  18.254  0.00  0.00    +0.000 A 
ATOM     26  C   UNL     1       0.844   3.015  19.560  0.00  0.00    +0.000 A 
ATOM     27  C   UNL     1       1.329   3.782  20.616  0.00  0.00    +0.000 A 
ATOM     28  C   UNL     1       2.198   4.847  20.366  0.00  0.00    +0.000 A 
ENDBRANCH  22  23
BRANCH  22  29
ATOM     29  C   UNL     1       4.787   5.809  17.979  0.00  0.00    +0.000 C 
BRANCH  29  31
ATOM     30  C   UNL     1       6.955   4.901  18.173  0.00  0.00    +0.000 C 
ATOM     31  O   UNL     1       5.743   5.203  18.854  0.00  0.00    +0.000 OA
ENDBRANCH  29  31
ENDBRANCH  22  29
ENDBRANCH   1  22
TORSDOF 5
ENDMDL
MODEL 3
REMARK VINA RESULT:      -7.8      7.274     10.471
REMARK  Name = 
REMARK  8 active torsions:
REMARK  status: ('A' for Active; 'I' for Inactive)
REMARK    1  A    between atoms: C_1  and  O_2
REMARK    2  A    between atoms: O_2  and  C_3
REMARK    3  A    between atoms: C_3  and  C_4
REMARK    4  A    between atoms: C_4  and  N_5
REMARK    5  A    between atoms: C_4  and  C_22
REMARK    6  A    between atoms: N_15  and  C_16
REMARK    7  A    between atoms: C_16  and  C_17
REMARK    8  A    between atoms: C_16  and  C_18
REMARK                            x       y       z     vdW  Elec       q    Type
REMARK                         _______ _______ _______ _____ _____    ______ ____
ROOT
ATOM      1  N   UNL     1       9.596  10.079  19.012  0.00  0.00    +0.000 N 
ATOM      2  C   UNL     1       8.627   9.286  18.446  0.00  0.00    +0.000 C 
ATOM      3  O   UNL     1       7.748   9.722  17.713  0.00  0.00    +0.000 OA
ATOM      4  N   UNL     1       8.730   7.978  18.870  0.00  0.00    +0.000 N 
ATOM      5  C   UNL     1       7.811   6.992  18.481  0.00  0.00    +0.000 A 
ATOM      6  C   UNL     1       7.368   6.900  17.168  0.00  0.00    +0.000 A 
ATOM      7  C   UNL     1       6.403   5.924  16.936  0.00  0.00    +0.000 A 
ATOM      8  N   UNL     1       5.733   5.555  15.805  0.00  0.00    +0.000 N 
ATOM      9  N   UNL     1       4.779   4.635  16.012  0.00  0.00    +0.000 NA
ATOM     10  C   UNL     1       4.884   4.332  17.305  0.00  0.00    +0.000 A 
ATOM     11  N   UNL     1       4.109   3.423  17.941  0.00  0.00    +0.000 N 
ATOM     12  C   UNL     1       5.903   5.104  17.939  0.00  0.00    +0.000 A 
ATOM     13  C   UNL     1       6.435   5.245  19.223  0.00  0.00    +0.000 A 
ATOM     14  N   UNL     1       7.412   6.161  19.473  0.00  0.00    +0.000 NA
ATOM     15  H   UNL     1      10.427   9.632  19.364  0.00  0.00    +0.000 HD
ATOM     16  H   UNL     1       9.027   7.863  19.827  0.00  0.00    +0.000 HD
ATOM     17  H   UNL     1       5.863   5.910  14.866  0.00  0.00    +0.000 HD
ATOM     18  H   UNL     1       4.344   3.075  18.860  0.00  0.00    +0.000 HD
ENDROOT
BRANCH  11  19
ATOM     19  C   UNL     1       2.775   3.090  17.437  0.00  0.00    +0.000 C 
ATOM     20  C   UNL     1       2.262   1.806  18.086  0.00  0.00    +0.000 C 
ATOM     21  C   UNL     1       1.823   4.249  17.731  0.00  0.00    +0.000 C 
ENDBRANCH  11  19
BRANCH   1  22
ATOM     22  C   UNL     1       9.585  11.533  18.871  0.00  0.00    +0.000 C 
BRANCH  22  23
ATOM     23  C   UNL     1       9.371  12.158  20.243  0.00  0.00    +0.000 A 
ATOM     24  C   UNL     1       9.634  13.523  20.435  0.00  0.00    +0.000 A 
ATOM     25  C   UNL     1       9.437  14.117  21.683  0.00  0.00    +0.000 A 
ATOM     26  C   UNL     1       8.968  13.358  22.752  0.00  0.00    +0.000 A 
ATOM     27  C   UNL     1       8.694  12.004  22.576  0.00  0.00    +0.000 A 
ATOM     28  C   UNL     1       8.892  11.407  21.329  0.00  0.00    +0.000 A 
ENDBRANCH  22  23
BRANCH  22  29
ATOM     29  C   UNL     1      10.857  12.099  18.195  0.00  0.00    +0.000 C 
BRANCH  29  31
ATOM     30  C   UNL     1      11.359  14.113  17.074  0.00  0.00    +0.000 C 
ATOM     31  O   UNL     1      10.528  12.958  17.099  0.00  0.00    +0.000 OA
ENDBRANCH  29  31
ENDBRANCH  22  29
ENDBRANCH   1  22
TORSDOF 5
ENDMDL
MODEL 4
REMARK VINA RESULT:      -7.4      2.658      4.385
REMARK  Name = 
REMARK  8 active torsions:
REMARK  status: ('A' for Active; 'I' for Inactive)
REMARK    1  A    between atoms: C_1  and  O_2
REMARK    2  A    between atoms: O_2  and  C_3
REMARK    3  A    between atoms: C_3  and  C_4
REMARK    4  A    between atoms: C_4  and  N_5
REMARK    5  A    between atoms: C_4  and  C_22
REMARK    6  A    between atoms: N_15  and  C_16
REMARK    7  A    between atoms: C_16  and  C_17
REMARK    8  A    between atoms: C_16  and  C_18
REMARK                            x       y       z     vdW  Elec       q    Type
REMARK                         _______ _______ _______ _____ _____    ______ ____
ROOT
ATOM      1  N   UNL     1       3.264   5.744  18.835  0.00  0.00    +0.000 N 
ATOM      2  C   UNL     1       2.573   6.924  18.975  0.00  0.00    +0.000 C 
ATOM      3  O   UNL     1       2.545   7.791  18.111  0.00  0.00    +0.000 OA
ATOM      4  N   UNL     1       1.998   7.029  20.224  0.00  0.00    +0.000 N 
ATOM      5  C   UNL     1       1.297   8.174  20.629  0.00  0.00    +0.000 A 
ATOM      6  C   UNL     1       0.402   8.808  19.777  0.00  0.00    +0.000 A 
ATOM      7  C   UNL     1      -0.169   9.974  20.279  0.00  0.00    +0.000 A 
ATOM      8  N   UNL     1      -1.060  10.858  19.741  0.00  0.00    +0.000 N 
ATOM      9  N   UNL     1      -1.283  11.939  20.502  0.00  0.00    +0.000 NA
ATOM     10  C   UNL     1      -0.578  11.716  21.611  0.00  0.00    +0.000 A 
ATOM     11  N   UNL     1      -0.529  12.562  22.667  0.00  0.00    +0.000 N 
ATOM     12  C   UNL     1       0.135  10.483  21.535  0.00  0.00    +0.000 A 
ATOM     13  C   UNL     1       1.020   9.757  22.336  0.00  0.00    +0.000 A 
ATOM     14  N   UNL     1       1.561   8.589  21.890  0.00  0.00    +0.000 NA
ATOM     15  H   UNL     1       3.023   4.979  19.445  0.00  0.00    +0.000 HD
ATOM     16  H   UNL     1       2.537   6.629  20.976  0.00  0.00    +0.000 HD
ATOM     17  H   UNL     1      -1.534  10.793  18.849  0.00  0.00    +0.000 HD
ATOM     18  H   UNL     1      -0.154  12.274  23.560  0.00  0.00    +0.000 HD
ENDROOT
BRANCH  11  19
ATOM     19  C   UNL     1      -0.786  13.993  22.495  0.00  0.00    +0.000 C 
ATOM     20  C   UNL     1      -1.285  14.609  23.801  0.00  0.00    +0.000 C 
ATOM     21  C   UNL     1       0.500  14.684  22.042  0.00  0.00    +0.000 C 
ENDBRANCH  11  19
BRANCH   1  22
ATOM     22  C   UNL     1       4.115   5.479  17.677  0.00  0.00    +0.000 C 
BRANCH  22  23
ATOM     23  C   UNL     1       5.532   5.941  17.994  0.00  0.00    +0.000 A 
ATOM     24  C   UNL     1       6.103   6.991  17.260  0.00  0.00    +0.000 A 
ATOM     25  C   UNL     1       7.397   7.434  17.539  0.00  0.00    +0.000 A 
ATOM     26  C   UNL     1       8.134   6.838  18.560  0.00  0.00    +0.000 A 
ATOM     27  C   UNL     1       7.579   5.801  19.304  0.00  0.00    +0.000 A 
ATOM     28  C   UNL     1       6.285   5.355  19.025  0.00  0.00    +0.000 A 
ENDBRANCH  22  23
BRANCH  22  29
ATOM     29  C   UNL     1       4.102   4.000  17.224  0.00  0.00    +0.000 C 
BRANCH  29  31
ATOM     30  C   UNL     1       2.543   2.329  17.809  0.00  0.00    +0.000 C 
ATOM     31  O   UNL     1       2.766   3.517  17.057  0.00  0.00    +0.000 OA
ENDBRANCH  29  31
ENDBRANCH  22  29
ENDBRANCH   1  22
TORSDOF 5
ENDMDL
MODEL 5
REMARK VINA RESULT:      -7.3      7.550     10.528
REMARK  Name = 
REMARK  8 active torsions:
REMARK  status: ('A' for Active; 'I' for Inactive)
REMARK    1  A    between atoms: C_1  and  O_2
REMARK    2  A    between atoms: O_2  and  C_3
REMARK    3  A    between atoms: C_3  and  C_4
REMARK    4  A    between atoms: C_4  and  N_5
REMARK    5  A    between atoms: C_4  and  C_22
REMARK    6  A    between atoms: N_15  and  C_16
REMARK    7  A    between atoms: C_16  and  C_17
REMARK    8  A    between atoms: C_16  and  C_18
REMARK                            x       y       z     vdW  Elec       q    Type
REMARK                         _______ _______ _______ _____ _____    ______ ____
ROOT
ATOM      1  N   UNL     1       9.383  10.235  18.776  0.00  0.00    +0.000 N 
ATOM      2  C   UNL     1       8.461   9.351  18.270  0.00  0.00    +0.000 C 
ATOM      3  O   UNL     1       7.521   9.695  17.564  0.00  0.00    +0.000 OA
ATOM      4  N   UNL     1       8.688   8.068  18.721  0.00  0.00    +0.000 N 
ATOM      5  C   UNL     1       7.839   7.001  18.394  0.00  0.00    +0.000 A 
ATOM      6  C   UNL     1       7.353   6.837  17.103  0.00  0.00    +0.000 A 
ATOM      7  C   UNL     1       6.463   5.780  16.935  0.00  0.00    +0.000 A 
ATOM      8  N   UNL     1       5.782   5.327  15.843  0.00  0.00    +0.000 N 
ATOM      9  N   UNL     1       4.916   4.339  16.110  0.00  0.00    +0.000 NA
ATOM     10  C   UNL     1       5.096   4.081  17.405  0.00  0.00    +0.000 A 
ATOM     11  N   UNL     1       4.424   3.129  18.095  0.00  0.00    +0.000 N 
ATOM     12  C   UNL     1       6.073   4.950  17.977  0.00  0.00    +0.000 A 
ATOM     13  C   UNL     1       6.642   5.168  19.235  0.00  0.00    +0.000 A 
ATOM     14  N   UNL     1       7.550   6.167  19.421  0.00  0.00    +0.000 NA
ATOM     15  H   UNL     1      10.262   9.868  19.104  0.00  0.00    +0.000 HD
ATOM     16  H   UNL     1       9.032   8.004  19.667  0.00  0.00    +0.000 HD
ATOM     17  H   UNL     1       5.845   5.665  14.890  0.00  0.00    +0.000 HD
ATOM     18  H   UNL     1       4.724   2.827  19.011  0.00  0.00    +0.000 HD
ENDROOT
BRANCH  11  19
ATOM     19  C   UNL     1       3.104   2.675  17.655  0.00  0.00    +0.000 C 
ATOM     20  C   UNL     1       2.569   1.594  18.592  0.00  0.00    +0.000 C 
ATOM     21  C   UNL     1       2.148   3.868  17.622  0.00  0.00    +0.000 C 
ENDBRANCH  11  19
BRANCH   1  22
ATOM     22  C   UNL     1       9.247  11.679  18.601  0.00  0.00    +0.000 C 
BRANCH  22  23
ATOM     23  C   UNL     1       9.011  12.320  19.962  0.00  0.00    +0.000 A 
ATOM     24  C   UNL     1       9.217  11.570  21.130  0.00  0.00    +0.000 A 
ATOM     25  C   UNL     1       9.014  12.141  22.388  0.00  0.00    +0.000 A 
ATOM     26  C   UNL     1       8.609  13.469  22.495  0.00  0.00    +0.000 A 
ATOM     27  C   UNL     1       8.409  14.230  21.347  0.00  0.00    +0.000 A 
ATOM     28  C   UNL     1       8.610  13.661  20.087  0.00  0.00    +0.000 A 
ENDBRANCH  22  23
BRANCH  22  29
ATOM     29  C   UNL     1      10.452  12.332  17.882  0.00  0.00    +0.000 C 
BRANCH  29  31
ATOM     30  C   UNL     1      12.332  11.642  19.128  0.00  0.00    +0.000 C 
ATOM     31  O   UNL     1      11.465  12.725  18.813  0.00  0.00    +0.000 OA
ENDBRANCH  29  31
ENDBRANCH  22  29
ENDBRANCH   1  22
TORSDOF 5
ENDMDL
MODEL 6
REMARK VINA RESULT:      -7.3      0.891      1.221
REMARK  Name = 
REMARK  8 active torsions:
REMARK  status: ('A' for Active; 'I' for Inactive)
REMARK    1  A    between atoms: C_1  and  O_2
REMARK    2  A    between atoms: O_2  and  C_3
REMARK    3  A    between atoms: C_3  and  C_4
REMARK    4  A    between atoms: C_4  and  N_5
REMARK    5  A    between atoms: C_4  and  C_22
REMARK    6  A    between atoms: N_15  and  C_16
REMARK    7  A    between atoms: C_16  and  C_17
REMARK    8  A    between atoms: C_16  and  C_18
REMARK                            x       y       z     vdW  Elec       q    Type
REMARK                         _______ _______ _______ _____ _____    ______ ____
ROOT
ATOM      1  N   UNL     1       2.811   7.211  18.310  0.00  0.00    +0.000 N 
ATOM      2  C   UNL     1       2.037   8.150  18.947  0.00  0.00    +0.000 C 
ATOM      3  O   UNL     1       1.933   8.217  20.166  0.00  0.00    +0.000 OA
ATOM      4  N   UNL     1       1.348   8.935  18.048  0.00  0.00    +0.000 N 
ATOM      5  C   UNL     1       0.440   9.921  18.459  0.00  0.00    +0.000 A 
ATOM      6  C   UNL     1       0.736  10.776  19.514  0.00  0.00    +0.000 A 
ATOM      7  C   UNL     1      -0.283  11.658  19.865  0.00  0.00    +0.000 A 
ATOM      8  N   UNL     1      -0.367  12.614  20.836  0.00  0.00    +0.000 N 
ATOM      9  N   UNL     1      -1.576  13.185  20.936  0.00  0.00    +0.000 NA
ATOM     10  C   UNL     1      -2.282  12.645  19.944  0.00  0.00    +0.000 A 
ATOM     11  N   UNL     1      -3.571  12.954  19.667  0.00  0.00    +0.000 N 
ATOM     12  C   UNL     1      -1.514  11.683  19.222  0.00  0.00    +0.000 A 
ATOM     13  C   UNL     1      -1.708  10.810  18.148  0.00  0.00    +0.000 A 
ATOM     14  N   UNL     1      -0.714   9.966  17.752  0.00  0.00    +0.000 NA
ATOM     15  H   UNL     1       3.069   7.381  17.351  0.00  0.00    +0.000 HD
ATOM     16  H   UNL     1       1.036   8.457  17.216  0.00  0.00    +0.000 HD
ATOM     17  H   UNL     1       0.357  12.906  21.480  0.00  0.00    +0.000 HD
ATOM     18  H   UNL     1      -4.008  12.681  18.798  0.00  0.00    +0.000 HD
ENDROOT
BRANCH  11  19
ATOM     19  C   UNL     1      -4.457  13.477  20.709  0.00  0.00    +0.000 C 
ATOM     20  C   UNL     1      -4.270  12.701  22.011  0.00  0.00    +0.000 C 
ATOM     21  C   UNL     1      -4.154  14.959  20.928  0.00  0.00    +0.000 C 
ENDBRANCH  11  19
BRANCH   1  22
ATOM     22  C   UNL     1       3.488   6.141  19.040  0.00  0.00    +0.000 C 
BRANCH  22  23
ATOM     23  C   UNL     1       2.527   4.970  19.197  0.00  0.00    +0.000 A 
ATOM     24  C   UNL     1       1.988   4.676  20.459  0.00  0.00    +0.000 A 
ATOM     25  C   UNL     1       1.100   3.611  20.623  0.00  0.00    +0.000 A 
ATOM     26  C   UNL     1       0.733   2.832  19.528  0.00  0.00    +0.000 A 
ATOM     27  C   UNL     1       1.252   3.116  18.268  0.00  0.00    +0.000 A 
ATOM     28  C   UNL     1       2.142   4.179  18.101  0.00  0.00    +0.000 A 
ENDBRANCH  22  23
BRANCH  22  29
ATOM     29  C   UNL     1       4.814   5.687  18.385  0.00  0.00    +0.000 C 
BRANCH  29  31
ATOM     30  C   UNL     1       7.107   5.665  18.936  0.00  0.00    +0.000 C 
ATOM     31  O   UNL     1       5.791   5.341  19.371  0.00  0.00    +0.000 OA
ENDBRANCH  29  31
ENDBRANCH  22  29
ENDBRANCH   1  22
TORSDOF 5
ENDMDL
MODEL 7
REMARK VINA RESULT:      -7.3      2.553      4.207
REMARK  Name = 
REMARK  8 active torsions:
REMARK  status: ('A' for Active; 'I' for Inactive)
REMARK    1  A    between atoms: C_1  and  O_2
REMARK    2  A    between atoms: O_2  and  C_3
REMARK    3  A    between atoms: C_3  and  C_4
REMARK    4  A    between atoms: C_4  and  N_5
REMARK    5  A    between atoms: C_4  and  C_22
REMARK    6  A    between atoms: N_15  and  C_16
REMARK    7  A    between atoms: C_16  and  C_17
REMARK    8  A    between atoms: C_16  and  C_18
REMARK                            x       y       z     vdW  Elec       q    Type
REMARK                         _______ _______ _______ _____ _____    ______ ____
ROOT
ATOM      1  N   UNL     1       3.074   6.279  18.385  0.00  0.00    +0.000 N 
ATOM      2  C   UNL     1       2.510   7.520  18.219  0.00  0.00    +0.000 C 
ATOM      3  O   UNL     1       2.673   8.202  17.215  0.00  0.00    +0.000 OA
ATOM      4  N   UNL     1       1.820   7.918  19.345  0.00  0.00    +0.000 N 
ATOM      5  C   UNL     1       1.213   9.179  19.442  0.00  0.00    +0.000 A 
ATOM      6  C   UNL     1       0.491   9.713  18.382  0.00  0.00    +0.000 A 
ATOM      7  C   UNL     1       0.005  11.002  18.587  0.00  0.00    +0.000 A 
ATOM      8  N   UNL     1      -0.717  11.841  17.789  0.00  0.00    +0.000 N 
ATOM      9  N   UNL     1      -0.896  13.065  18.306  0.00  0.00    +0.000 NA
ATOM     10  C   UNL     1      -0.344  13.000  19.516  0.00  0.00    +0.000 A 
ATOM     11  N   UNL     1      -0.313  14.026  20.398  0.00  0.00    +0.000 N 
ATOM     12  C   UNL     1       0.229  11.715  19.757  0.00  0.00    +0.000 A 
ATOM     13  C   UNL     1       0.936  11.082  20.783  0.00  0.00    +0.000 A 
ATOM     14  N   UNL     1       1.386   9.805  20.630  0.00  0.00    +0.000 NA
ATOM     15  H   UNL     1       2.685   5.672  19.089  0.00  0.00    +0.000 HD
ATOM     16  H   UNL     1       2.227   7.625  20.220  0.00  0.00    +0.000 HD
ATOM     17  H   UNL     1      -1.097  11.647  16.871  0.00  0.00    +0.000 HD
ATOM     18  H   UNL     1      -0.071  13.885  21.369  0.00  0.00    +0.000 HD
ENDROOT
BRANCH  11  19
ATOM     19  C   UNL     1      -0.387  15.414  19.937  0.00  0.00    +0.000 C 
ATOM     20  C   UNL     1      -1.603  16.115  20.540  0.00  0.00    +0.000 C 
ATOM     21  C   UNL     1       0.896  16.144  20.333  0.00  0.00    +0.000 C 
ENDBRANCH  11  19
BRANCH   1  22
ATOM     22  C   UNL     1       4.009   5.718  17.412  0.00  0.00    +0.000 C 
BRANCH  22  23
ATOM     23  C   UNL     1       5.430   6.041  17.854  0.00  0.00    +0.000 A 
ATOM     24  C   UNL     1       6.156   7.041  17.190  0.00  0.00    +0.000 A 
ATOM     25  C   UNL     1       7.458   7.357  17.585  0.00  0.00    +0.000 A 
ATOM     26  C   UNL     1       8.047   6.685  18.652  0.00  0.00    +0.000 A 
ATOM     27  C   UNL     1       7.337   5.696  19.329  0.00  0.00    +0.000 A 
ATOM     28  C   UNL     1       6.036   5.377  18.935  0.00  0.00    +0.000 A 
ENDBRANCH  22  23
BRANCH  22  29
ATOM     29  C   UNL     1       3.831   4.198  17.187  0.00  0.00    +0.000 C 
BRANCH  29  31
ATOM     30  C   UNL     1       2.420   2.375  17.690  0.00  0.00    +0.000 C 
ATOM     31  O   UNL     1       2.493   3.780  17.476  0.00  0.00    +0.000 OA
ENDBRANCH  29  31
ENDBRANCH  22  29
ENDBRANCH   1  22
TORSDOF 5
ENDMDL
MODEL 8
REMARK VINA RESULT:      -7.3      0.467      1.249
REMARK  Name = 
REMARK  8 active torsions:
REMARK  status: ('A' for Active; 'I' for Inactive)
REMARK    1  A    between atoms: C_1  and  O_2
REMARK    2  A    between atoms: O_2  and  C_3
REMARK    3  A    between atoms: C_3  and  C_4
REMARK    4  A    between atoms: C_4  and  N_5
REMARK    5  A    between atoms: C_4  and  C_22
REMARK    6  A    between atoms: N_15  and  C_16
REMARK    7  A    between atoms: C_16  and  C_17
REMARK    8  A    between atoms: C_16  and  C_18
REMARK                            x       y       z     vdW  Elec       q    Type
REMARK                         _______ _______ _______ _____ _____    ______ ____
ROOT
ATOM      1  N   UNL     1       2.685   7.339  18.182  0.00  0.00    +0.000 N 
ATOM      2  C   UNL     1       1.924   8.274  18.841  0.00  0.00    +0.000 C 
ATOM      3  O   UNL     1       1.875   8.359  20.062  0.00  0.00    +0.000 OA
ATOM      4  N   UNL     1       1.179   9.032  17.962  0.00  0.00    +0.000 N 
ATOM      5  C   UNL     1       0.273  10.008  18.401  0.00  0.00    +0.000 A 
ATOM      6  C   UNL     1       0.600  10.884  19.428  0.00  0.00    +0.000 A 
ATOM      7  C   UNL     1      -0.417  11.753  19.812  0.00  0.00    +0.000 A 
ATOM      8  N   UNL     1      -0.475  12.722  20.771  0.00  0.00    +0.000 N 
ATOM      9  N   UNL     1      -1.689  13.273  20.919  0.00  0.00    +0.000 NA
ATOM     10  C   UNL     1      -2.429  12.704  19.969  0.00  0.00    +0.000 A 
ATOM     11  N   UNL     1      -3.735  12.985  19.748  0.00  0.00    +0.000 N 
ATOM     12  C   UNL     1      -1.677  11.745  19.227  0.00  0.00    +0.000 A 
ATOM     13  C   UNL     1      -1.903  10.852  18.176  0.00  0.00    +0.000 A 
ATOM     14  N   UNL     1      -0.913  10.020  17.748  0.00  0.00    +0.000 NA
ATOM     15  H   UNL     1       2.896   7.499  17.210  0.00  0.00    +0.000 HD
ATOM     16  H   UNL     1       0.839   8.534  17.154  0.00  0.00    +0.000 HD
ATOM     17  H   UNL     1       0.273  13.039  21.376  0.00  0.00    +0.000 HD
ATOM     18  H   UNL     1      -4.207  12.690  18.904  0.00  0.00    +0.000 HD
ENDROOT
BRANCH  11  19
ATOM     19  C   UNL     1      -4.582  13.509  20.822  0.00  0.00    +0.000 C 
ATOM     20  C   UNL     1      -4.299  12.777  22.132  0.00  0.00    +0.000 C 
ATOM     21  C   UNL     1      -4.320  15.006  20.983  0.00  0.00    +0.000 C 
ENDBRANCH  11  19
BRANCH   1  22
ATOM     22  C   UNL     1       3.416   6.294  18.897  0.00  0.00    +0.000 C 
BRANCH  22  23
ATOM     23  C   UNL     1       2.478   5.120  19.141  0.00  0.00    +0.000 A 
ATOM     24  C   UNL     1       2.105   4.291  18.072  0.00  0.00    +0.000 A 
ATOM     25  C   UNL     1       1.252   3.205  18.277  0.00  0.00    +0.000 A 
ATOM     26  C   UNL     1       0.767   2.928  19.553  0.00  0.00    +0.000 A 
ATOM     27  C   UNL     1       1.135   3.735  20.627  0.00  0.00    +0.000 A 
ATOM     28  C   UNL     1       1.986   4.823  20.424  0.00  0.00    +0.000 A 
ENDBRANCH  22  23
BRANCH  22  29
ATOM     29  C   UNL     1       4.704   5.834  18.174  0.00  0.00    +0.000 C 
BRANCH  29  31
ATOM     30  C   UNL     1       5.371   5.744  15.913  0.00  0.00    +0.000 C 
ATOM     31  O   UNL     1       4.925   6.581  16.974  0.00  0.00    +0.000 OA
ENDBRANCH  29  31
ENDBRANCH  22  29
ENDBRANCH   1  22
TORSDOF 5
ENDMDL
MODEL 9
REMARK VINA RESULT:      -7.2      2.781      4.318
REMARK  Name = 
REMARK  8 active torsions:
REMARK  status: ('A' for Active; 'I' for Inactive)
REMARK    1  A    between atoms: C_1  and  O_2
REMARK    2  A    between atoms: O_2  and  C_3
REMARK    3  A    between atoms: C_3  and  C_4
REMARK    4  A    between atoms: C_4  and  N_5
REMARK    5  A    between atoms: C_4  and  C_22
REMARK    6  A    between atoms: N_15  and  C_16
REMARK    7  A    between atoms: C_16  and  C_17
REMARK    8  A    between atoms: C_16  and  C_18
REMARK                            x       y       z     vdW  Elec       q    Type
REMARK                         _______ _______ _______ _____ _____    ______ ____
ROOT
ATOM      1  N   UNL     1       3.241   5.910  18.231  0.00  0.00    +0.000 N 
ATOM      2  C   UNL     1       2.727   7.176  18.377  0.00  0.00    +0.000 C 
ATOM      3  O   UNL     1       3.004   8.103  17.625  0.00  0.00    +0.000 OA
ATOM      4  N   UNL     1       1.940   7.277  19.504  0.00  0.00    +0.000 N 
ATOM      5  C   UNL     1       1.358   8.488  19.903  0.00  0.00    +0.000 A 
ATOM      6  C   UNL     1       0.757   9.335  18.980  0.00  0.00    +0.000 A 
ATOM      7  C   UNL     1       0.284  10.538  19.499  0.00  0.00    +0.000 A 
ATOM      8  N   UNL     1      -0.336  11.603  18.913  0.00  0.00    +0.000 N 
ATOM      9  N   UNL     1      -0.535  12.641  19.739  0.00  0.00    +0.000 NA
ATOM     10  C   UNL     1      -0.106  12.209  20.924  0.00  0.00    +0.000 A 
ATOM     11  N   UNL     1      -0.136  12.944  22.061  0.00  0.00    +0.000 N 
ATOM     12  C   UNL     1       0.410  10.881  20.839  0.00  0.00    +0.000 A 
ATOM     13  C   UNL     1       0.997   9.951  21.700  0.00  0.00    +0.000 A 
ATOM     14  N   UNL     1       1.429   8.747  21.230  0.00  0.00    +0.000 NA
ATOM     15  H   UNL     1       2.771   5.151  18.696  0.00  0.00    +0.000 HD
ATOM     16  H   UNL     1       2.252   6.729  20.292  0.00  0.00    +0.000 HD
ATOM     17  H   UNL     1      -0.628  11.694  17.948  0.00  0.00    +0.000 HD
ATOM     18  H   UNL     1       0.007  12.524  22.969  0.00  0.00    +0.000 HD
ENDROOT
BRANCH  11  19
ATOM     19  C   UNL     1      -0.130  14.408  22.009  0.00  0.00    +0.000 C 
ATOM     20  C   UNL     1      -0.767  14.991  23.268  0.00  0.00    +0.000 C 
ATOM     21  C   UNL     1       1.310  14.900  21.866  0.00  0.00    +0.000 C 
ENDBRANCH  11  19
BRANCH   1  22
ATOM     22  C   UNL     1       4.254   5.598  17.224  0.00  0.00    +0.000 C 
BRANCH  22  23
ATOM     23  C   UNL     1       5.620   6.008  17.757  0.00  0.00    +0.000 A 
ATOM     24  C   UNL     1       6.174   5.327  18.851  0.00  0.00    +0.000 A 
ATOM     25  C   UNL     1       7.429   5.683  19.350  0.00  0.00    +0.000 A 
ATOM     26  C   UNL     1       8.148   6.718  18.759  0.00  0.00    +0.000 A 
ATOM     27  C   UNL     1       7.616   7.399  17.667  0.00  0.00    +0.000 A 
ATOM     28  C   UNL     1       6.361   7.046  17.167  0.00  0.00    +0.000 A 
ENDBRANCH  22  23
BRANCH  22  29
ATOM     29  C   UNL     1       4.252   4.115  16.784  0.00  0.00    +0.000 C 
BRANCH  29  31
ATOM     30  C   UNL     1       3.417   2.276  18.003  0.00  0.00    +0.000 C 
ATOM     31  O   UNL     1       3.082   3.434  17.246  0.00  0.00    +0.000 OA
ENDBRANCH  29  31
ENDBRANCH  22  29
ENDBRANCH   1  22
TORSDOF 5
ENDMDL
