MODEL 1
REMARK VINA RESULT:      -7.8      0.000      0.000
REMARK  Name = 
REMARK  3 active torsions:
REMARK  status: ('A' for Active; 'I' for Inactive)
REMARK    1  A    between atoms: C_1  and  C_2
REMARK    2  A    between atoms: C_7  and  C_8
REMARK    3  A    between atoms: C_16  and  N_17
REMARK                            x       y       z     vdW  Elec       q    Type
REMARK                         _______ _______ _______ _____ _____    ______ ____
ROOT
ATOM      1  C   UNL     1       4.358   3.848  18.356  0.00  0.00    +0.000 A 
ATOM      2  C   UNL     1       4.196   3.732  16.977  0.00  0.00    +0.000 A 
ATOM      3  C   UNL     1       5.248   4.063  16.116  0.00  0.00    +0.000 A 
ATOM      4  C   UNL     1       5.110   3.945  14.723  0.00  0.00    +0.000 A 
ATOM      5  C   UNL     1       6.158   4.293  13.870  0.00  0.00    +0.000 A 
ATOM      6  C   UNL     1       7.352   4.772  14.397  0.00  0.00    +0.000 A 
ATOM      7  C   UNL     1       7.501   4.897  15.779  0.00  0.00    +0.000 A 
ATOM      8  C   UNL     1       6.458   4.536  16.661  0.00  0.00    +0.000 A 
ATOM      9  C   UNL     1       6.534   4.626  18.062  0.00  0.00    +0.000 A 
ATOM     10  N   UNL     1       5.529   4.276  18.884  0.00  0.00    +0.000 NA
ENDROOT
BRANCH   1  17
ATOM     11  C   UNL     1       1.414   4.405  17.764  0.00  0.00    +0.000 C 
ATOM     12  C   UNL     1       1.892   3.773  19.048  0.00  0.00    +0.000 A 
ATOM     13  C   UNL     1       0.912   3.419  19.997  0.00  0.00    +0.000 A 
ATOM     14  C   UNL     1       1.259   2.819  21.204  0.00  0.00    +0.000 A 
ATOM     15  C   UNL     1       2.594   2.583  21.491  0.00  0.00    +0.000 A 
ATOM     16  C   UNL     1       3.579   2.944  20.568  0.00  0.00    +0.000 A 
ATOM     17  C   UNL     1       3.264   3.531  19.322  0.00  0.00    +0.000 A 
ENDBRANCH   1  17
BRANCH   9  18
ATOM     18  N   UNL     1       7.661   5.138  18.714  0.00  0.00    +0.000 N 
ATOM     19  H   UNL     1       7.398   5.710  19.506  0.00  0.00    +0.000 HD
ATOM     20  H   UNL     1       8.174   5.670  18.016  0.00  0.00    +0.000 HD
ENDBRANCH   9  18
TORSDOF 2
ENDMDL
MODEL 2
REMARK VINA RESULT:      -7.7      0.581      1.642
REMARK  Name = 
REMARK  3 active torsions:
REMARK  status: ('A' for Active; 'I' for Inactive)
REMARK    1  A    between atoms: C_1  and  C_2
REMARK    2  A    between atoms: C_7  and  C_8
REMARK    3  A    between atoms: C_16  and  N_17
REMARK                            x       y       z     vdW  Elec       q    Type
REMARK                         _______ _______ _______ _____ _____    ______ ____
ROOT
ATOM      1  C   UNL     1       4.412   3.955  18.510  0.00  0.00    +0.000 A 
ATOM      2  C   UNL     1       4.201   3.835  17.137  0.00  0.00    +0.000 A 
ATOM      3  C   UNL     1       5.228   4.146  16.239  0.00  0.00    +0.000 A 
ATOM      4  C   UNL     1       5.039   4.023  14.853  0.00  0.00    +0.000 A 
ATOM      5  C   UNL     1       6.062   4.351  13.962  0.00  0.00    +0.000 A 
ATOM      6  C   UNL     1       7.281   4.813  14.444  0.00  0.00    +0.000 A 
ATOM      7  C   UNL     1       7.481   4.942  15.820  0.00  0.00    +0.000 A 
ATOM      8  C   UNL     1       6.462   4.603  16.739  0.00  0.00    +0.000 A 
ATOM      9  C   UNL     1       6.589   4.697  18.136  0.00  0.00    +0.000 A 
ATOM     10  N   UNL     1       5.608   4.368  18.995  0.00  0.00    +0.000 NA
ENDROOT
BRANCH   1  17
ATOM     11  C   UNL     1       4.666   1.729  20.585  0.00  0.00    +0.000 C 
ATOM     12  C   UNL     1       3.465   2.638  20.492  0.00  0.00    +0.000 A 
ATOM     13  C   UNL     1       2.431   2.439  21.430  0.00  0.00    +0.000 A 
ATOM     14  C   UNL     1       1.292   3.239  21.430  0.00  0.00    +0.000 A 
ATOM     15  C   UNL     1       1.158   4.237  20.477  0.00  0.00    +0.000 A 
ATOM     16  C   UNL     1       2.166   4.435  19.530  0.00  0.00    +0.000 A 
ATOM     17  C   UNL     1       3.348   3.661  19.515  0.00  0.00    +0.000 A 
ENDBRANCH   1  17
BRANCH   9  18
ATOM     18  N   UNL     1       7.746   5.195  18.746  0.00  0.00    +0.000 N 
ATOM     19  H   UNL     1       7.654   5.205  19.754  0.00  0.00    +0.000 HD
ATOM     20  H   UNL     1       7.885   6.128  18.369  0.00  0.00    +0.000 HD
ENDBRANCH   9  18
TORSDOF 2
ENDMDL
MODEL 3
REMARK VINA RESULT:      -7.6      1.109      6.067
REMARK  Name = 
REMARK  3 active torsions:
REMARK  status: ('A' for Active; 'I' for Inactive)
REMARK    1  A    between atoms: C_1  and  C_2
REMARK    2  A    between atoms: C_7  and  C_8
REMARK    3  A    between atoms: C_16  and  N_17
REMARK                            x       y       z     vdW  Elec       q    Type
REMARK                         _______ _______ _______ _____ _____    ______ ____
ROOT
ATOM      1  C   UNL     1       4.749   3.920  17.821  0.00  0.00    +0.000 A 
ATOM      2  C   UNL     1       3.476   4.442  18.047  0.00  0.00    +0.000 A 
ATOM      3  C   UNL     1       2.741   4.039  19.167  0.00  0.00    +0.000 A 
ATOM      4  C   UNL     1       1.461   4.559  19.418  0.00  0.00    +0.000 A 
ATOM      5  C   UNL     1       0.726   4.140  20.528  0.00  0.00    +0.000 A 
ATOM      6  C   UNL     1       1.257   3.191  21.394  0.00  0.00    +0.000 A 
ATOM      7  C   UNL     1       2.527   2.664  21.154  0.00  0.00    +0.000 A 
ATOM      8  C   UNL     1       3.293   3.085  20.044  0.00  0.00    +0.000 A 
ATOM      9  C   UNL     1       4.581   2.609  19.740  0.00  0.00    +0.000 A 
ATOM     10  N   UNL     1       5.294   3.024  18.678  0.00  0.00    +0.000 NA
ENDROOT
BRANCH   1  17
ATOM     11  C   UNL     1       7.285   5.611  18.027  0.00  0.00    +0.000 C 
ATOM     12  C   UNL     1       6.759   5.067  16.721  0.00  0.00    +0.000 A 
ATOM     13  C   UNL     1       7.501   5.353  15.557  0.00  0.00    +0.000 A 
ATOM     14  C   UNL     1       7.100   4.881  14.311  0.00  0.00    +0.000 A 
ATOM     15  C   UNL     1       5.939   4.132  14.205  0.00  0.00    +0.000 A 
ATOM     16  C   UNL     1       5.183   3.854  15.347  0.00  0.00    +0.000 A 
ATOM     17  C   UNL     1       5.571   4.294  16.632  0.00  0.00    +0.000 A 
ENDBRANCH   1  17
BRANCH   9  18
ATOM     18  N   UNL     1       5.206   1.617  20.504  0.00  0.00    +0.000 N 
ATOM     19  H   UNL     1       4.784   0.711  20.344  0.00  0.00    +0.000 HD
ATOM     20  H   UNL     1       5.119   1.910  21.473  0.00  0.00    +0.000 HD
ENDBRANCH   9  18
TORSDOF 2
ENDMDL
MODEL 4
REMARK VINA RESULT:      -7.3      1.569      6.173
REMARK  Name = 
REMARK  3 active torsions:
REMARK  status: ('A' for Active; 'I' for Inactive)
REMARK    1  A    between atoms: C_1  and  C_2
REMARK    2  A    between atoms: C_7  and  C_8
REMARK    3  A    between atoms: C_16  and  N_17
REMARK                            x       y       z     vdW  Elec       q    Type
REMARK                         _______ _______ _______ _____ _____    ______ ____
ROOT
ATOM      1  C   UNL     1       4.315   4.671  17.042  0.00  0.00    +0.000 A 
ATOM      2  C   UNL     1       3.907   3.494  17.668  0.00  0.00    +0.000 A 
ATOM      3  C   UNL     1       2.979   3.541  18.714  0.00  0.00    +0.000 A 
ATOM      4  C   UNL     1       2.547   2.367  19.353  0.00  0.00    +0.000 A 
ATOM      5  C   UNL     1       1.635   2.422  20.407  0.00  0.00    +0.000 A 
ATOM      6  C   UNL     1       1.151   3.650  20.842  0.00  0.00    +0.000 A 
ATOM      7  C   UNL     1       1.574   4.825  20.218  0.00  0.00    +0.000 A 
ATOM      8  C   UNL     1       2.487   4.790  19.140  0.00  0.00    +0.000 A 
ATOM      9  C   UNL     1       2.954   5.927  18.456  0.00  0.00    +0.000 A 
ATOM     10  N   UNL     1       3.822   5.872  17.431  0.00  0.00    +0.000 NA
ENDROOT
BRANCH   1  17
ATOM     11  C   UNL     1       7.119   5.838  17.369  0.00  0.00    +0.000 C 
ATOM     12  C   UNL     1       6.629   5.213  16.086  0.00  0.00    +0.000 A 
ATOM     13  C   UNL     1       7.534   5.164  15.006  0.00  0.00    +0.000 A 
ATOM     14  C   UNL     1       7.175   4.593  13.788  0.00  0.00    +0.000 A 
ATOM     15  C   UNL     1       5.897   4.081  13.623  0.00  0.00    +0.000 A 
ATOM     16  C   UNL     1       4.983   4.138  14.679  0.00  0.00    +0.000 A 
ATOM     17  C   UNL     1       5.319   4.686  15.937  0.00  0.00    +0.000 A 
ENDBRANCH   1  17
BRANCH   9  18
ATOM     18  N   UNL     1       2.582   7.223  18.828  0.00  0.00    +0.000 N 
ATOM     19  H   UNL     1       2.015   7.661  18.114  0.00  0.00    +0.000 HD
ATOM     20  H   UNL     1       3.447   7.730  18.988  0.00  0.00    +0.000 HD
ENDBRANCH   9  18
TORSDOF 2
ENDMDL
MODEL 5
REMARK VINA RESULT:      -7.2      1.501      2.057
REMARK  Name = 
REMARK  3 active torsions:
REMARK  status: ('A' for Active; 'I' for Inactive)
REMARK    1  A    between atoms: C_1  and  C_2
REMARK    2  A    between atoms: C_7  and  C_8
REMARK    3  A    between atoms: C_16  and  N_17
REMARK                            x       y       z     vdW  Elec       q    Type
REMARK                         _______ _______ _______ _____ _____    ______ ____
ROOT
ATOM      1  C   UNL     1       4.781   4.191  16.571  0.00  0.00    +0.000 A 
ATOM      2  C   UNL     1       4.788   3.686  15.272  0.00  0.00    +0.000 A 
ATOM      3  C   UNL     1       5.780   4.085  14.369  0.00  0.00    +0.000 A 
ATOM      4  C   UNL     1       5.811   3.582  13.058  0.00  0.00    +0.000 A 
ATOM      5  C   UNL     1       6.792   3.997  12.157  0.00  0.00    +0.000 A 
ATOM      6  C   UNL     1       7.748   4.926  12.552  0.00  0.00    +0.000 A 
ATOM      7  C   UNL     1       7.727   5.437  13.851  0.00  0.00    +0.000 A 
ATOM      8  C   UNL     1       6.750   5.019  14.783  0.00  0.00    +0.000 A 
ATOM      9  C   UNL     1       6.667   5.479  16.109  0.00  0.00    +0.000 A 
ATOM     10  N   UNL     1       5.729   5.068  16.980  0.00  0.00    +0.000 NA
ENDROOT
BRANCH   1  17
ATOM     11  C   UNL     1       2.974   6.252  17.918  0.00  0.00    +0.000 C 
ATOM     12  C   UNL     1       2.882   4.771  18.190  0.00  0.00    +0.000 A 
ATOM     13  C   UNL     1       1.896   4.342  19.102  0.00  0.00    +0.000 A 
ATOM     14  C   UNL     1       1.728   2.994  19.403  0.00  0.00    +0.000 A 
ATOM     15  C   UNL     1       2.558   2.053  18.813  0.00  0.00    +0.000 A 
ATOM     16  C   UNL     1       3.552   2.464  17.920  0.00  0.00    +0.000 A 
ATOM     17  C   UNL     1       3.736   3.820  17.570  0.00  0.00    +0.000 A 
ENDBRANCH   1  17
BRANCH   9  18
ATOM     18  N   UNL     1       7.537   6.451  16.614  0.00  0.00    +0.000 N 
ATOM     19  H   UNL     1       7.895   6.186  17.523  0.00  0.00    +0.000 HD
ATOM     20  H   UNL     1       7.004   7.315  16.654  0.00  0.00    +0.000 HD
ENDBRANCH   9  18
TORSDOF 2
ENDMDL
MODEL 6
REMARK VINA RESULT:      -7.2      1.485      6.221
REMARK  Name = 
REMARK  3 active torsions:
REMARK  status: ('A' for Active; 'I' for Inactive)
REMARK    1  A    between atoms: C_1  and  C_2
REMARK    2  A    between atoms: C_7  and  C_8
REMARK    3  A    between atoms: C_16  and  N_17
REMARK                            x       y       z     vdW  Elec       q    Type
REMARK                         _______ _______ _______ _____ _____    ______ ____
ROOT
ATOM      1  C   UNL     1       4.563   3.808  17.123  0.00  0.00    +0.000 A 
ATOM      2  C   UNL     1       3.753   4.731  17.783  0.00  0.00    +0.000 A 
ATOM      3  C   UNL     1       2.908   4.311  18.816  0.00  0.00    +0.000 A 
ATOM      4  C   UNL     1       2.090   5.226  19.500  0.00  0.00    +0.000 A 
ATOM      5  C   UNL     1       1.237   4.798  20.518  0.00  0.00    +0.000 A 
ATOM      6  C   UNL     1       1.184   3.451  20.858  0.00  0.00    +0.000 A 
ATOM      7  C   UNL     1       1.989   2.531  20.184  0.00  0.00    +0.000 A 
ATOM      8  C   UNL     1       2.870   2.946  19.160  0.00  0.00    +0.000 A 
ATOM      9  C   UNL     1       3.716   2.083  18.441  0.00  0.00    +0.000 A 
ATOM     10  N   UNL     1       4.549   2.499  17.471  0.00  0.00    +0.000 NA
ENDROOT
BRANCH   1  17
ATOM     11  C   UNL     1       7.326   5.032  17.565  0.00  0.00    +0.000 C 
ATOM     12  C   UNL     1       6.759   4.748  16.196  0.00  0.00    +0.000 A 
ATOM     13  C   UNL     1       7.569   5.056  15.085  0.00  0.00    +0.000 A 
ATOM     14  C   UNL     1       7.134   4.815  13.785  0.00  0.00    +0.000 A 
ATOM     15  C   UNL     1       5.873   4.281  13.573  0.00  0.00    +0.000 A 
ATOM     16  C   UNL     1       5.051   3.985  14.664  0.00  0.00    +0.000 A 
ATOM     17  C   UNL     1       5.467   4.192  15.999  0.00  0.00    +0.000 A 
ENDBRANCH   1  17
BRANCH   9  18
ATOM     18  N   UNL     1       3.721   0.700  18.653  0.00  0.00    +0.000 N 
ATOM     19  H   UNL     1       4.641   0.309  18.498  0.00  0.00    +0.000 HD
ATOM     20  H   UNL     1       3.033   0.314  18.013  0.00  0.00    +0.000 HD
ENDBRANCH   9  18
TORSDOF 2
ENDMDL
MODEL 7
REMARK VINA RESULT:      -7.2      3.284      6.329
REMARK  Name = 
REMARK  3 active torsions:
REMARK  status: ('A' for Active; 'I' for Inactive)
REMARK    1  A    between atoms: C_1  and  C_2
REMARK    2  A    between atoms: C_7  and  C_8
REMARK    3  A    between atoms: C_16  and  N_17
REMARK                            x       y       z     vdW  Elec       q    Type
REMARK                         _______ _______ _______ _____ _____    ______ ____
ROOT
ATOM      1  C   UNL     1       4.037   6.262  17.798  0.00  0.00    +0.000 A 
ATOM      2  C   UNL     1       3.436   7.481  17.490  0.00  0.00    +0.000 A 
ATOM      3  C   UNL     1       2.536   8.067  18.387  0.00  0.00    +0.000 A 
ATOM      4  C   UNL     1       1.926   9.300  18.101  0.00  0.00    +0.000 A 
ATOM      5  C   UNL     1       1.017   9.870  18.992  0.00  0.00    +0.000 A 
ATOM      6  C   UNL     1       0.700   9.212  20.175  0.00  0.00    +0.000 A 
ATOM      7  C   UNL     1       1.296   7.986  20.471  0.00  0.00    +0.000 A 
ATOM      8  C   UNL     1       2.230   7.398  19.588  0.00  0.00    +0.000 A 
ATOM      9  C   UNL     1       2.878   6.171  19.818  0.00  0.00    +0.000 A 
ATOM     10  N   UNL     1       3.765   5.629  18.965  0.00  0.00    +0.000 NA
ENDROOT
BRANCH   1  17
ATOM     11  C   UNL     1       6.939   7.147  17.450  0.00  0.00    +0.000 C 
ATOM     12  C   UNL     1       6.341   5.973  16.714  0.00  0.00    +0.000 A 
ATOM     13  C   UNL     1       7.187   5.258  15.843  0.00  0.00    +0.000 A 
ATOM     14  C   UNL     1       6.725   4.153  15.133  0.00  0.00    +0.000 A 
ATOM     15  C   UNL     1       5.403   3.758  15.267  0.00  0.00    +0.000 A 
ATOM     16  C   UNL     1       4.547   4.467  16.115  0.00  0.00    +0.000 A 
ATOM     17  C   UNL     1       4.986   5.578  16.871  0.00  0.00    +0.000 A 
ENDBRANCH   1  17
BRANCH   9  18
ATOM     18  N   UNL     1       2.609   5.388  20.945  0.00  0.00    +0.000 N 
ATOM     19  H   UNL     1       3.460   5.158  21.443  0.00  0.00    +0.000 HD
ATOM     20  H   UNL     1       2.134   4.557  20.605  0.00  0.00    +0.000 HD
ENDBRANCH   9  18
TORSDOF 2
ENDMDL
MODEL 8
REMARK VINA RESULT:      -7.1      3.462      6.223
REMARK  Name = 
REMARK  3 active torsions:
REMARK  status: ('A' for Active; 'I' for Inactive)
REMARK    1  A    between atoms: C_1  and  C_2
REMARK    2  A    between atoms: C_7  and  C_8
REMARK    3  A    between atoms: C_16  and  N_17
REMARK                            x       y       z     vdW  Elec       q    Type
REMARK                         _______ _______ _______ _____ _____    ______ ____
ROOT
ATOM      1  C   UNL     1       3.823   6.432  17.946  0.00  0.00    +0.000 A 
ATOM      2  C   UNL     1       3.286   7.648  17.529  0.00  0.00    +0.000 A 
ATOM      3  C   UNL     1       2.376   8.330  18.345  0.00  0.00    +0.000 A 
ATOM      4  C   UNL     1       1.830   9.562  17.948  0.00  0.00    +0.000 A 
ATOM      5  C   UNL     1       0.910  10.228  18.759  0.00  0.00    +0.000 A 
ATOM      6  C   UNL     1       0.518   9.668  19.970  0.00  0.00    +0.000 A 
ATOM      7  C   UNL     1       1.051   8.444  20.374  0.00  0.00    +0.000 A 
ATOM      8  C   UNL     1       1.995   7.759  19.574  0.00  0.00    +0.000 A 
ATOM      9  C   UNL     1       2.582   6.528  19.916  0.00  0.00    +0.000 A 
ATOM     10  N   UNL     1       3.479   5.894  19.141  0.00  0.00    +0.000 NA
ENDROOT
BRANCH   1  17
ATOM     11  C   UNL     1       3.267   3.568  17.041  0.00  0.00    +0.000 C 
ATOM     12  C   UNL     1       4.521   4.321  16.672  0.00  0.00    +0.000 A 
ATOM     13  C   UNL     1       5.458   3.655  15.857  0.00  0.00    +0.000 A 
ATOM     14  C   UNL     1       6.637   4.276  15.455  0.00  0.00    +0.000 A 
ATOM     15  C   UNL     1       6.909   5.567  15.879  0.00  0.00    +0.000 A 
ATOM     16  C   UNL     1       5.998   6.236  16.702  0.00  0.00    +0.000 A 
ATOM     17  C   UNL     1       4.779   5.648  17.110  0.00  0.00    +0.000 A 
ENDBRANCH   1  17
BRANCH   9  18
ATOM     18  N   UNL     1       2.236   5.837  21.082  0.00  0.00    +0.000 N 
ATOM     19  H   UNL     1       2.983   5.871  21.763  0.00  0.00    +0.000 HD
ATOM     20  H   UNL     1       2.028   4.885  20.795  0.00  0.00    +0.000 HD
ENDBRANCH   9  18
TORSDOF 2
ENDMDL
MODEL 9
REMARK VINA RESULT:      -7.1      2.287      5.896
REMARK  Name = 
REMARK  3 active torsions:
REMARK  status: ('A' for Active; 'I' for Inactive)
REMARK    1  A    between atoms: C_1  and  C_2
REMARK    2  A    between atoms: C_7  and  C_8
REMARK    3  A    between atoms: C_16  and  N_17
REMARK                            x       y       z     vdW  Elec       q    Type
REMARK                         _______ _______ _______ _____ _____    ______ ____
ROOT
ATOM      1  C   UNL     1       4.918   4.876  18.645  0.00  0.00    +0.000 A 
ATOM      2  C   UNL     1       3.796   5.248  19.384  0.00  0.00    +0.000 A 
ATOM      3  C   UNL     1       2.751   4.338  19.578  0.00  0.00    +0.000 A 
ATOM      4  C   UNL     1       1.616   4.689  20.328  0.00  0.00    +0.000 A 
ATOM      5  C   UNL     1       0.569   3.783  20.503  0.00  0.00    +0.000 A 
ATOM      6  C   UNL     1       0.639   2.521  19.924  0.00  0.00    +0.000 A 
ATOM      7  C   UNL     1       1.760   2.161  19.174  0.00  0.00    +0.000 A 
ATOM      8  C   UNL     1       2.837   3.059  18.996  0.00  0.00    +0.000 A 
ATOM      9  C   UNL     1       4.002   2.768  18.263  0.00  0.00    +0.000 A 
ATOM     10  N   UNL     1       5.016   3.636  18.107  0.00  0.00    +0.000 NA
ENDROOT
BRANCH   1  17
ATOM     11  C   UNL     1       4.930   6.863  16.324  0.00  0.00    +0.000 C 
ATOM     12  C   UNL     1       6.060   6.747  17.317  0.00  0.00    +0.000 A 
ATOM     13  C   UNL     1       7.155   7.619  17.154  0.00  0.00    +0.000 A 
ATOM     14  C   UNL     1       8.236   7.594  18.030  0.00  0.00    +0.000 A 
ATOM     15  C   UNL     1       8.250   6.680  19.072  0.00  0.00    +0.000 A 
ATOM     16  C   UNL     1       7.180   5.797  19.238  0.00  0.00    +0.000 A 
ATOM     17  C   UNL     1       6.054   5.810  18.385  0.00  0.00    +0.000 A 
ENDBRANCH   1  17
BRANCH   9  18
ATOM     18  N   UNL     1       4.173   1.553  17.591  0.00  0.00    +0.000 N 
ATOM     19  H   UNL     1       4.821   1.650  16.820  0.00  0.00    +0.000 HD
ATOM     20  H   UNL     1       3.249   1.271  17.277  0.00  0.00    +0.000 HD
ENDBRANCH   9  18
TORSDOF 2
ENDMDL
