MODEL 1
REMARK VINA RESULT:      -8.2      0.000      0.000
REMARK  Name = 
REMARK  8 active torsions:
REMARK  status: ('A' for Active; 'I' for Inactive)
REMARK    1  A    between atoms: C_1  and  O_2
REMARK    2  A    between atoms: O_2  and  C_3
REMARK    3  A    between atoms: C_6  and  C_7
REMARK    4  A    between atoms: C_7  and  C_8
REMARK    5  A    between atoms: C_7  and  O_9
REMARK    6  A    between atoms: C_7  and  C_10
REMARK    7  A    between atoms: C_12  and  C_13
REMARK    8  A    between atoms: C_16  and  O_17
REMARK                            x       y       z     vdW  Elec       q    Type
REMARK                         _______ _______ _______ _____ _____    ______ ____
ROOT
ATOM      1  C   UNL     1       3.881   3.689  17.427  0.00  0.00    +0.000 A 
ATOM      2  N   UNL     1       2.812   4.377  16.933  0.00  0.00    +0.000 NA
ATOM      3  C   UNL     1       1.880   4.705  17.781  0.00  0.00    +0.000 A 
ATOM      4  N   UNL     1       1.406   3.697  18.493  0.00  0.00    +0.000 NA
ATOM      5  C   UNL     1       2.348   3.079  19.188  0.00  0.00    +0.000 A 
ATOM      6  C   UNL     1       1.864   2.725  20.449  0.00  0.00    +0.000 A 
ATOM      7  C   UNL     1       2.679   2.333  21.487  0.00  0.00    +0.000 A 
ATOM      8  C   UNL     1       4.013   2.134  21.189  0.00  0.00    +0.000 A 
ATOM      9  C   UNL     1       4.531   2.441  19.871  0.00  0.00    +0.000 A 
ATOM     10  C   UNL     1       3.720   3.036  18.790  0.00  0.00    +0.000 A 
ENDROOT
BRANCH   3  11
ATOM     11  C   UNL     1       2.271   5.872  18.675  0.00  0.00    +0.000 A 
ATOM     12  C   UNL     1       1.887   5.912  20.035  0.00  0.00    +0.000 A 
ATOM     13  C   UNL     1       1.538   7.119  20.641  0.00  0.00    +0.000 A 
ATOM     14  C   UNL     1       1.664   8.296  19.919  0.00  0.00    +0.000 A 
ATOM     15  C   UNL     1       2.238   8.298  18.656  0.00  0.00    +0.000 A 
ATOM     16  C   UNL     1       2.592   7.094  18.056  0.00  0.00    +0.000 A 
BRANCH  14  17
ATOM     17  O   UNL     1       1.189   9.479  20.403  0.00  0.00    +0.000 OA
ATOM     18  H   UNL     1       0.304   9.320  20.770  0.00  0.00    +0.000 HD
ENDBRANCH  14  17
ENDBRANCH   3  11
BRANCH   1  19
ATOM     19  C   UNL     1       5.113   4.039  16.486  0.00  0.00    +0.000 C 
ATOM     20  C   UNL     1       4.739   4.719  15.161  0.00  0.00    +0.000 C 
BRANCH  19  24
ATOM     21  C   UNL     1       7.871   7.133  18.373  0.00  0.00    +0.000 A 
ATOM     22  C   UNL     1       6.993   7.426  17.334  0.00  0.00    +0.000 A 
ATOM     23  C   UNL     1       6.169   6.440  16.762  0.00  0.00    +0.000 A 
ATOM     24  C   UNL     1       6.168   5.094  17.191  0.00  0.00    +0.000 A 
ATOM     25  C   UNL     1       7.071   4.809  18.248  0.00  0.00    +0.000 A 
ATOM     26  C   UNL     1       7.914   5.817  18.829  0.00  0.00    +0.000 A 
BRANCH  21  28
ATOM     27  C   UNL     1       8.453   9.472  18.176  0.00  0.00    +0.000 C 
ATOM     28  O   UNL     1       8.644   8.192  18.762  0.00  0.00    +0.000 OA
ENDBRANCH  21  28
ENDBRANCH  19  24
BRANCH  19  29
ATOM     29  O   UNL     1       5.847   2.848  16.137  0.00  0.00    +0.000 OA
ATOM     30  H   UNL     1       6.611   3.142  15.591  0.00  0.00    +0.000 HD
ENDBRANCH  19  29
ENDBRANCH   1  19
TORSDOF 6
ENDMDL
MODEL 2
REMARK VINA RESULT:      -7.4      6.952     10.901
REMARK  Name = 
REMARK  8 active torsions:
REMARK  status: ('A' for Active; 'I' for Inactive)
REMARK    1  A    between atoms: C_1  and  O_2
REMARK    2  A    between atoms: O_2  and  C_3
REMARK    3  A    between atoms: C_6  and  C_7
REMARK    4  A    between atoms: C_7  and  C_8
REMARK    5  A    between atoms: C_7  and  O_9
REMARK    6  A    between atoms: C_7  and  C_10
REMARK    7  A    between atoms: C_12  and  C_13
REMARK    8  A    between atoms: C_16  and  O_17
REMARK                            x       y       z     vdW  Elec       q    Type
REMARK                         _______ _______ _______ _____ _____    ______ ____
ROOT
ATOM      1  C   UNL     1      -0.377  12.636  20.954  0.00  0.00    +0.000 A 
ATOM      2  N   UNL     1      -0.157  12.890  19.632  0.00  0.00    +0.000 NA
ATOM      3  C   UNL     1      -0.031  11.858  18.848  0.00  0.00    +0.000 A 
ATOM      4  N   UNL     1       0.876  10.979  19.238  0.00  0.00    +0.000 NA
ATOM      5  C   UNL     1       0.635  10.504  20.450  0.00  0.00    +0.000 A 
ATOM      6  C   UNL     1       0.926   9.140  20.500  0.00  0.00    +0.000 A 
ATOM      7  C   UNL     1       0.514   8.318  21.525  0.00  0.00    +0.000 A 
ATOM      8  C   UNL     1      -0.073   8.930  22.616  0.00  0.00    +0.000 A 
ATOM      9  C   UNL     1      -0.336  10.354  22.612  0.00  0.00    +0.000 A 
ATOM     10  C   UNL     1      -0.072  11.234  21.455  0.00  0.00    +0.000 A 
ENDROOT
BRANCH   3  11
ATOM     11  C   UNL     1      -1.357  11.179  18.539  0.00  0.00    +0.000 A 
ATOM     12  C   UNL     1      -1.424  10.071  17.664  0.00  0.00    +0.000 A 
ATOM     13  C   UNL     1      -2.508   9.909  16.801  0.00  0.00    +0.000 A 
ATOM     14  C   UNL     1      -3.569  10.798  16.880  0.00  0.00    +0.000 A 
ATOM     15  C   UNL     1      -3.616  11.765  17.875  0.00  0.00    +0.000 A 
ATOM     16  C   UNL     1      -2.536  11.920  18.738  0.00  0.00    +0.000 A 
BRANCH  14  17
ATOM     17  O   UNL     1      -4.575  10.785  15.960  0.00  0.00    +0.000 OA
ATOM     18  H   UNL     1      -5.359  10.391  16.376  0.00  0.00    +0.000 HD
ENDBRANCH  14  17
ENDBRANCH   3  11
BRANCH   1  19
ATOM     19  C   UNL     1      -1.186  13.882  21.521  0.00  0.00    +0.000 C 
ATOM     20  C   UNL     1      -1.518  14.961  20.481  0.00  0.00    +0.000 C 
BRANCH  19  24
ATOM     21  C   UNL     1      -5.157  12.749  23.441  0.00  0.00    +0.000 A 
ATOM     22  C   UNL     1      -3.932  12.622  24.089  0.00  0.00    +0.000 A 
ATOM     23  C   UNL     1      -2.722  12.964  23.458  0.00  0.00    +0.000 A 
ATOM     24  C   UNL     1      -2.657  13.456  22.135  0.00  0.00    +0.000 A 
ATOM     25  C   UNL     1      -3.913  13.575  21.485  0.00  0.00    +0.000 A 
ATOM     26  C   UNL     1      -5.147  13.223  22.130  0.00  0.00    +0.000 A 
BRANCH  21  28
ATOM     27  C   UNL     1      -7.534  12.770  23.887  0.00  0.00    +0.000 C 
ATOM     28  O   UNL     1      -6.222  12.307  24.176  0.00  0.00    +0.000 OA
ENDBRANCH  21  28
ENDBRANCH  19  24
BRANCH  19  29
ATOM     29  O   UNL     1      -0.444  14.541  22.567  0.00  0.00    +0.000 OA
ATOM     30  H   UNL     1      -1.026  14.544  23.361  0.00  0.00    +0.000 HD
ENDBRANCH  19  29
ENDBRANCH   1  19
TORSDOF 6
ENDMDL
MODEL 3
REMARK VINA RESULT:      -7.3      2.445      6.116
REMARK  Name = 
REMARK  8 active torsions:
REMARK  status: ('A' for Active; 'I' for Inactive)
REMARK    1  A    between atoms: C_1  and  O_2
REMARK    2  A    between atoms: O_2  and  C_3
REMARK    3  A    between atoms: C_6  and  C_7
REMARK    4  A    between atoms: C_7  and  C_8
REMARK    5  A    between atoms: C_7  and  O_9
REMARK    6  A    between atoms: C_7  and  C_10
REMARK    7  A    between atoms: C_12  and  C_13
REMARK    8  A    between atoms: C_16  and  O_17
REMARK                            x       y       z     vdW  Elec       q    Type
REMARK                         _______ _______ _______ _____ _____    ______ ____
ROOT
ATOM      1  C   UNL     1       2.874   6.288  18.927  0.00  0.00    +0.000 A 
ATOM      2  N   UNL     1       4.225   6.472  18.992  0.00  0.00    +0.000 NA
ATOM      3  C   UNL     1       4.972   5.430  18.762  0.00  0.00    +0.000 A 
ATOM      4  N   UNL     1       4.680   4.372  19.499  0.00  0.00    +0.000 NA
ATOM      5  C   UNL     1       3.426   3.976  19.347  0.00  0.00    +0.000 A 
ATOM      6  C   UNL     1       3.358   2.582  19.331  0.00  0.00    +0.000 A 
ATOM      7  C   UNL     1       2.248   1.886  18.908  0.00  0.00    +0.000 A 
ATOM      8  C   UNL     1       1.111   2.627  18.648  0.00  0.00    +0.000 A 
ATOM      9  C   UNL     1       1.140   4.074  18.713  0.00  0.00    +0.000 A 
ATOM     10  C   UNL     1       2.362   4.858  18.985  0.00  0.00    +0.000 A 
ENDROOT
BRANCH   3  11
ATOM     11  C   UNL     1       5.051   5.067  17.287  0.00  0.00    +0.000 A 
ATOM     12  C   UNL     1       5.735   3.908  16.855  0.00  0.00    +0.000 A 
ATOM     13  C   UNL     1       6.461   3.912  15.663  0.00  0.00    +0.000 A 
ATOM     14  C   UNL     1       6.424   5.039  14.856  0.00  0.00    +0.000 A 
ATOM     15  C   UNL     1       5.589   6.106  15.161  0.00  0.00    +0.000 A 
ATOM     16  C   UNL     1       4.862   6.097  16.347  0.00  0.00    +0.000 A 
BRANCH  14  17
ATOM     17  O   UNL     1       7.236   5.159  13.768  0.00  0.00    +0.000 OA
ATOM     18  H   UNL     1       7.951   4.508  13.853  0.00  0.00    +0.000 HD
ENDBRANCH  14  17
ENDBRANCH   3  11
BRANCH   1  19
ATOM     19  C   UNL     1       2.251   7.691  18.514  0.00  0.00    +0.000 C 
ATOM     20  C   UNL     1       1.065   7.608  17.542  0.00  0.00    +0.000 C 
BRANCH  19  24
ATOM     21  C   UNL     1       0.454  10.114  21.926  0.00  0.00    +0.000 A 
ATOM     22  C   UNL     1       0.594  10.606  20.631  0.00  0.00    +0.000 A 
ATOM     23  C   UNL     1       1.172   9.835  19.606  0.00  0.00    +0.000 A 
ATOM     24  C   UNL     1       1.649   8.521  19.806  0.00  0.00    +0.000 A 
ATOM     25  C   UNL     1       1.503   8.034  21.133  0.00  0.00    +0.000 A 
ATOM     26  C   UNL     1       0.915   8.823  22.178  0.00  0.00    +0.000 A 
BRANCH  21  28
ATOM     27  C   UNL     1      -1.446  10.995  23.135  0.00  0.00    +0.000 C 
ATOM     28  O   UNL     1      -0.063  11.020  22.809  0.00  0.00    +0.000 OA
ENDBRANCH  21  28
ENDBRANCH  19  24
BRANCH  19  29
ATOM     29  O   UNL     1       3.241   8.523  17.876  0.00  0.00    +0.000 OA
ATOM     30  H   UNL     1       3.704   7.953  17.222  0.00  0.00    +0.000 HD
ENDBRANCH  19  29
ENDBRANCH   1  19
TORSDOF 6
ENDMDL
MODEL 4
REMARK VINA RESULT:      -7.2      4.873      8.201
REMARK  Name = 
REMARK  8 active torsions:
REMARK  status: ('A' for Active; 'I' for Inactive)
REMARK    1  A    between atoms: C_1  and  O_2
REMARK    2  A    between atoms: O_2  and  C_3
REMARK    3  A    between atoms: C_6  and  C_7
REMARK    4  A    between atoms: C_7  and  C_8
REMARK    5  A    between atoms: C_7  and  O_9
REMARK    6  A    between atoms: C_7  and  C_10
REMARK    7  A    between atoms: C_12  and  C_13
REMARK    8  A    between atoms: C_16  and  O_17
REMARK                            x       y       z     vdW  Elec       q    Type
REMARK                         _______ _______ _______ _____ _____    ______ ____
ROOT
ATOM      1  C   UNL     1       0.449  10.233  20.490  0.00  0.00    +0.000 A 
ATOM      2  N   UNL     1       0.641  11.308  21.307  0.00  0.00    +0.000 NA
ATOM      3  C   UNL     1      -0.116  12.347  21.099  0.00  0.00    +0.000 A 
ATOM      4  N   UNL     1      -0.110  12.791  19.854  0.00  0.00    +0.000 NA
ATOM      5  C   UNL     1      -0.489  11.868  18.984  0.00  0.00    +0.000 A 
ATOM      6  C   UNL     1      -1.289  12.439  17.992  0.00  0.00    +0.000 A 
ATOM      7  C   UNL     1      -2.058  11.698  17.123  0.00  0.00    +0.000 A 
ATOM      8  C   UNL     1      -1.885  10.328  17.153  0.00  0.00    +0.000 A 
ATOM      9  C   UNL     1      -1.017   9.713  18.137  0.00  0.00    +0.000 A 
ATOM     10  C   UNL     1      -0.320  10.465  19.200  0.00  0.00    +0.000 A 
ENDROOT
BRANCH   3  11
ATOM     11  C   UNL     1      -1.537  12.161  21.608  0.00  0.00    +0.000 A 
ATOM     12  C   UNL     1      -2.599  12.955  21.118  0.00  0.00    +0.000 A 
ATOM     13  C   UNL     1      -3.627  13.372  21.965  0.00  0.00    +0.000 A 
ATOM     14  C   UNL     1      -3.646  12.917  23.275  0.00  0.00    +0.000 A 
ATOM     15  C   UNL     1      -2.730  11.971  23.713  0.00  0.00    +0.000 A 
ATOM     16  C   UNL     1      -1.710  11.552  22.865  0.00  0.00    +0.000 A 
BRANCH  14  17
ATOM     17  O   UNL     1      -4.529  13.416  24.186  0.00  0.00    +0.000 OA
ATOM     18  H   UNL     1      -4.058  14.057  24.742  0.00  0.00    +0.000 HD
ENDBRANCH  14  17
ENDBRANCH   3  11
BRANCH   1  19
ATOM     19  C   UNL     1       0.881   8.952  21.326  0.00  0.00    +0.000 C 
ATOM     20  C   UNL     1      -0.277   8.203  22.002  0.00  0.00    +0.000 C 
BRANCH  19  24
ATOM     21  C   UNL     1       2.745   5.610  18.858  0.00  0.00    +0.000 A 
ATOM     22  C   UNL     1       2.183   5.408  20.114  0.00  0.00    +0.000 A 
ATOM     23  C   UNL     1       1.633   6.468  20.858  0.00  0.00    +0.000 A 
ATOM     24  C   UNL     1       1.608   7.802  20.394  0.00  0.00    +0.000 A 
ATOM     25  C   UNL     1       2.189   7.994  19.112  0.00  0.00    +0.000 A 
ATOM     26  C   UNL     1       2.753   6.910  18.356  0.00  0.00    +0.000 A 
BRANCH  21  28
ATOM     27  C   UNL     1       4.591   4.056  18.697  0.00  0.00    +0.000 C 
ATOM     28  O   UNL     1       3.293   4.485  18.308  0.00  0.00    +0.000 OA
ENDBRANCH  21  28
ENDBRANCH  19  24
BRANCH  19  29
ATOM     29  O   UNL     1       1.799   9.313  22.379  0.00  0.00    +0.000 OA
ATOM     30  H   UNL     1       2.032   8.477  22.843  0.00  0.00    +0.000 HD
ENDBRANCH  19  29
ENDBRANCH   1  19
TORSDOF 6
ENDMDL
MODEL 5
REMARK VINA RESULT:      -7.1      4.896      8.129
REMARK  Name = 
REMARK  8 active torsions:
REMARK  status: ('A' for Active; 'I' for Inactive)
REMARK    1  A    between atoms: C_1  and  O_2
REMARK    2  A    between atoms: O_2  and  C_3
REMARK    3  A    between atoms: C_6  and  C_7
REMARK    4  A    between atoms: C_7  and  C_8
REMARK    5  A    between atoms: C_7  and  O_9
REMARK    6  A    between atoms: C_7  and  C_10
REMARK    7  A    between atoms: C_12  and  C_13
REMARK    8  A    between atoms: C_16  and  O_17
REMARK                            x       y       z     vdW  Elec       q    Type
REMARK                         _______ _______ _______ _____ _____    ______ ____
ROOT
ATOM      1  C   UNL     1       0.428  10.249  20.510  0.00  0.00    +0.000 A 
ATOM      2  N   UNL     1       0.632  11.326  21.322  0.00  0.00    +0.000 NA
ATOM      3  C   UNL     1      -0.123  12.368  21.118  0.00  0.00    +0.000 A 
ATOM      4  N   UNL     1      -0.127  12.807  19.872  0.00  0.00    +0.000 NA
ATOM      5  C   UNL     1      -0.519  11.883  19.008  0.00  0.00    +0.000 A 
ATOM      6  C   UNL     1      -1.327  12.454  18.023  0.00  0.00    +0.000 A 
ATOM      7  C   UNL     1      -2.108  11.713  17.165  0.00  0.00    +0.000 A 
ATOM      8  C   UNL     1      -1.940  10.342  17.198  0.00  0.00    +0.000 A 
ATOM      9  C   UNL     1      -1.065   9.727  18.175  0.00  0.00    +0.000 A 
ATOM     10  C   UNL     1      -0.354  10.480  19.228  0.00  0.00    +0.000 A 
ENDROOT
BRANCH   3  11
ATOM     11  C   UNL     1      -1.539  12.189  21.642  0.00  0.00    +0.000 A 
ATOM     12  C   UNL     1      -2.597  13.005  21.182  0.00  0.00    +0.000 A 
ATOM     13  C   UNL     1      -3.608  13.418  22.051  0.00  0.00    +0.000 A 
ATOM     14  C   UNL     1      -3.616  12.938  23.352  0.00  0.00    +0.000 A 
ATOM     15  C   UNL     1      -2.706  11.973  23.759  0.00  0.00    +0.000 A 
ATOM     16  C   UNL     1      -1.703  11.558  22.889  0.00  0.00    +0.000 A 
BRANCH  14  17
ATOM     17  O   UNL     1      -4.481  13.430  24.284  0.00  0.00    +0.000 OA
ATOM     18  H   UNL     1      -4.092  13.286  25.161  0.00  0.00    +0.000 HD
ENDBRANCH  14  17
ENDBRANCH   3  11
BRANCH   1  19
ATOM     19  C   UNL     1       0.863   8.969  21.347  0.00  0.00    +0.000 C 
ATOM     20  C   UNL     1      -0.288   8.242  22.058  0.00  0.00    +0.000 C 
BRANCH  19  24
ATOM     21  C   UNL     1       2.899   5.918  18.647  0.00  0.00    +0.000 A 
ATOM     22  C   UNL     1       2.762   7.262  18.313  0.00  0.00    +0.000 A 
ATOM     23  C   UNL     1       2.109   8.173  19.164  0.00  0.00    +0.000 A 
ATOM     24  C   UNL     1       1.550   7.801  20.406  0.00  0.00    +0.000 A 
ATOM     25  C   UNL     1       1.693   6.426  20.732  0.00  0.00    +0.000 A 
ATOM     26  C   UNL     1       2.357   5.497  19.861  0.00  0.00    +0.000 A 
BRANCH  21  28
ATOM     27  C   UNL     1       4.594   5.683  16.938  0.00  0.00    +0.000 C 
ATOM     28  O   UNL     1       3.497   5.163  17.677  0.00  0.00    +0.000 OA
ENDBRANCH  21  28
ENDBRANCH  19  24
BRANCH  19  29
ATOM     29  O   UNL     1       1.812   9.326  22.373  0.00  0.00    +0.000 OA
ATOM     30  H   UNL     1       2.516   9.850  21.929  0.00  0.00    +0.000 HD
ENDBRANCH  19  29
ENDBRANCH   1  19
TORSDOF 6
ENDMDL
MODEL 6
REMARK VINA RESULT:      -7.1      5.366      8.503
REMARK  Name = 
REMARK  8 active torsions:
REMARK  status: ('A' for Active; 'I' for Inactive)
REMARK    1  A    between atoms: C_1  and  O_2
REMARK    2  A    between atoms: O_2  and  C_3
REMARK    3  A    between atoms: C_6  and  C_7
REMARK    4  A    between atoms: C_7  and  C_8
REMARK    5  A    between atoms: C_7  and  O_9
REMARK    6  A    between atoms: C_7  and  C_10
REMARK    7  A    between atoms: C_12  and  C_13
REMARK    8  A    between atoms: C_16  and  O_17
REMARK                            x       y       z     vdW  Elec       q    Type
REMARK                         _______ _______ _______ _____ _____    ______ ____
ROOT
ATOM      1  C   UNL     1      -0.374  10.657  20.068  0.00  0.00    +0.000 A 
ATOM      2  N   UNL     1      -0.258  11.866  20.690  0.00  0.00    +0.000 NA
ATOM      3  C   UNL     1      -1.252  12.696  20.553  0.00  0.00    +0.000 A 
ATOM      4  N   UNL     1      -1.603  12.929  19.300  0.00  0.00    +0.000 NA
ATOM      5  C   UNL     1      -1.943  11.825  18.654  0.00  0.00    +0.000 A 
ATOM      6  C   UNL     1      -3.037  12.069  17.823  0.00  0.00    +0.000 A 
ATOM      7  C   UNL     1      -3.788  11.067  17.250  0.00  0.00    +0.000 A 
ATOM      8  C   UNL     1      -3.315   9.777  17.391  0.00  0.00    +0.000 A 
ATOM      9  C   UNL     1      -2.148   9.502  18.204  0.00  0.00    +0.000 A 
ATOM     10  C   UNL     1      -1.427  10.532  18.980  0.00  0.00    +0.000 A 
ENDROOT
BRANCH   3  11
ATOM     11  C   UNL     1      -2.458  12.328  21.402  0.00  0.00    +0.000 A 
ATOM     12  C   UNL     1      -3.742  12.841  21.110  0.00  0.00    +0.000 A 
ATOM     13  C   UNL     1      -4.626  13.178  22.136  0.00  0.00    +0.000 A 
ATOM     14  C   UNL     1      -4.266  12.912  23.448  0.00  0.00    +0.000 A 
ATOM     15  C   UNL     1      -3.101  12.216  23.739  0.00  0.00    +0.000 A 
ATOM     16  C   UNL     1      -2.224  11.876  22.714  0.00  0.00    +0.000 A 
BRANCH  14  17
ATOM     17  O   UNL     1      -5.015  13.363  24.494  0.00  0.00    +0.000 OA
ATOM     18  H   UNL     1      -5.596  12.640  24.782  0.00  0.00    +0.000 HD
ENDBRANCH  14  17
ENDBRANCH   3  11
BRANCH   1  19
ATOM     19  C   UNL     1       0.495   9.631  20.916  0.00  0.00    +0.000 C 
ATOM     20  C   UNL     1      -0.320   8.660  21.783  0.00  0.00    +0.000 C 
BRANCH  19  24
ATOM     21  C   UNL     1       2.935   6.711  18.414  0.00  0.00    +0.000 A 
ATOM     22  C   UNL     1       2.501   6.432  19.707  0.00  0.00    +0.000 A 
ATOM     23  C   UNL     1       1.765   7.366  20.458  0.00  0.00    +0.000 A 
ATOM     24  C   UNL     1       1.413   8.643  19.967  0.00  0.00    +0.000 A 
ATOM     25  C   UNL     1       1.866   8.916  18.649  0.00  0.00    +0.000 A 
ATOM     26  C   UNL     1       2.620   7.962  17.885  0.00  0.00    +0.000 A 
BRANCH  21  28
ATOM     27  C   UNL     1       4.878   5.274  18.505  0.00  0.00    +0.000 C 
ATOM     28  O   UNL     1       3.694   5.720  17.858  0.00  0.00    +0.000 OA
ENDBRANCH  21  28
ENDBRANCH  19  24
BRANCH  19  29
ATOM     29  O   UNL     1       1.381  10.330  21.814  0.00  0.00    +0.000 OA
ATOM     30  H   UNL     1       1.813  11.036  21.284  0.00  0.00    +0.000 HD
ENDBRANCH  19  29
ENDBRANCH   1  19
TORSDOF 6
ENDMDL
MODEL 7
REMARK VINA RESULT:      -7.0      2.580      5.311
REMARK  Name = 
REMARK  8 active torsions:
REMARK  status: ('A' for Active; 'I' for Inactive)
REMARK    1  A    between atoms: C_1  and  O_2
REMARK    2  A    between atoms: O_2  and  C_3
REMARK    3  A    between atoms: C_6  and  C_7
REMARK    4  A    between atoms: C_7  and  C_8
REMARK    5  A    between atoms: C_7  and  O_9
REMARK    6  A    between atoms: C_7  and  C_10
REMARK    7  A    between atoms: C_12  and  C_13
REMARK    8  A    between atoms: C_16  and  O_17
REMARK                            x       y       z     vdW  Elec       q    Type
REMARK                         _______ _______ _______ _____ _____    ______ ____
ROOT
ATOM      1  C   UNL     1       5.763   5.819  18.091  0.00  0.00    +0.000 A 
ATOM      2  N   UNL     1       5.798   4.822  19.022  0.00  0.00    +0.000 NA
ATOM      3  C   UNL     1       4.671   4.515  19.597  0.00  0.00    +0.000 A 
ATOM      4  N   UNL     1       4.033   5.539  20.137  0.00  0.00    +0.000 NA
ATOM      5  C   UNL     1       3.760   6.490  19.257  0.00  0.00    +0.000 A 
ATOM      6  C   UNL     1       2.492   7.021  19.498  0.00  0.00    +0.000 A 
ATOM      7  C   UNL     1       1.820   7.811  18.592  0.00  0.00    +0.000 A 
ATOM      8  C   UNL     1       2.526   8.212  17.473  0.00  0.00    +0.000 A 
ATOM      9  C   UNL     1       3.865   7.719  17.228  0.00  0.00    +0.000 A 
ATOM     10  C   UNL     1       4.545   6.726  18.086  0.00  0.00    +0.000 A 
ENDROOT
BRANCH   3  11
ATOM     11  C   UNL     1       3.747   3.703  18.702  0.00  0.00    +0.000 A 
ATOM     12  C   UNL     1       2.626   4.296  18.079  0.00  0.00    +0.000 A 
ATOM     13  C   UNL     1       1.435   3.584  17.927  0.00  0.00    +0.000 A 
ATOM     14  C   UNL     1       1.395   2.251  18.308  0.00  0.00    +0.000 A 
ATOM     15  C   UNL     1       2.545   1.595  18.725  0.00  0.00    +0.000 A 
ATOM     16  C   UNL     1       3.733   2.307  18.870  0.00  0.00    +0.000 A 
BRANCH  14  17
ATOM     17  O   UNL     1       0.223   1.556  18.332  0.00  0.00    +0.000 OA
ATOM     18  H   UNL     1      -0.293   1.808  17.550  0.00  0.00    +0.000 HD
ENDBRANCH  14  17
ENDBRANCH   3  11
BRANCH   1  19
ATOM     19  C   UNL     1       6.951   5.525  17.075  0.00  0.00    +0.000 C 
ATOM     20  C   UNL     1       7.992   4.514  17.577  0.00  0.00    +0.000 C 
BRANCH  19  24
ATOM     21  C   UNL     1       5.725   3.708  13.084  0.00  0.00    +0.000 A 
ATOM     22  C   UNL     1       6.934   4.368  13.283  0.00  0.00    +0.000 A 
ATOM     23  C   UNL     1       7.271   4.934  14.525  0.00  0.00    +0.000 A 
ATOM     24  C   UNL     1       6.422   4.878  15.653  0.00  0.00    +0.000 A 
ATOM     25  C   UNL     1       5.191   4.206  15.434  0.00  0.00    +0.000 A 
ATOM     26  C   UNL     1       4.847   3.631  14.164  0.00  0.00    +0.000 A 
BRANCH  21  28
ATOM     27  C   UNL     1       4.220   3.219  11.254  0.00  0.00    +0.000 C 
ATOM     28  O   UNL     1       5.531   3.280  11.800  0.00  0.00    +0.000 OA
ENDBRANCH  21  28
ENDBRANCH  19  24
BRANCH  19  29
ATOM     29  O   UNL     1       7.675   6.734  16.770  0.00  0.00    +0.000 OA
ATOM     30  H   UNL     1       7.613   7.304  17.569  0.00  0.00    +0.000 HD
ENDBRANCH  19  29
ENDBRANCH   1  19
TORSDOF 6
ENDMDL
MODEL 8
REMARK VINA RESULT:      -6.9      5.547      8.633
REMARK  Name = 
REMARK  8 active torsions:
REMARK  status: ('A' for Active; 'I' for Inactive)
REMARK    1  A    between atoms: C_1  and  O_2
REMARK    2  A    between atoms: O_2  and  C_3
REMARK    3  A    between atoms: C_6  and  C_7
REMARK    4  A    between atoms: C_7  and  C_8
REMARK    5  A    between atoms: C_7  and  O_9
REMARK    6  A    between atoms: C_7  and  C_10
REMARK    7  A    between atoms: C_12  and  C_13
REMARK    8  A    between atoms: C_16  and  O_17
REMARK                            x       y       z     vdW  Elec       q    Type
REMARK                         _______ _______ _______ _____ _____    ______ ____
ROOT
ATOM      1  C   UNL     1      -0.539  10.902  20.101  0.00  0.00    +0.000 A 
ATOM      2  N   UNL     1      -0.534  12.148  20.658  0.00  0.00    +0.000 NA
ATOM      3  C   UNL     1      -1.599  12.875  20.478  0.00  0.00    +0.000 A 
ATOM      4  N   UNL     1      -1.968  13.007  19.216  0.00  0.00    +0.000 NA
ATOM      5  C   UNL     1      -2.205  11.843  18.631  0.00  0.00    +0.000 A 
ATOM      6  C   UNL     1      -3.315  11.941  17.791  0.00  0.00    +0.000 A 
ATOM      7  C   UNL     1      -3.971  10.846  17.276  0.00  0.00    +0.000 A 
ATOM      8  C   UNL     1      -3.382   9.613  17.485  0.00  0.00    +0.000 A 
ATOM      9  C   UNL     1      -2.196   9.490  18.308  0.00  0.00    +0.000 A 
ATOM     10  C   UNL     1      -1.574  10.622  19.025  0.00  0.00    +0.000 A 
ENDROOT
BRANCH   3  11
ATOM     11  C   UNL     1      -2.769  12.444  21.350  0.00  0.00    +0.000 A 
ATOM     12  C   UNL     1      -4.092  12.841  21.047  0.00  0.00    +0.000 A 
ATOM     13  C   UNL     1      -4.996  13.146  22.065  0.00  0.00    +0.000 A 
ATOM     14  C   UNL     1      -4.610  12.961  23.384  0.00  0.00    +0.000 A 
ATOM     15  C   UNL     1      -3.392  12.374  23.694  0.00  0.00    +0.000 A 
ATOM     16  C   UNL     1      -2.494  12.065  22.676  0.00  0.00    +0.000 A 
BRANCH  14  17
ATOM     17  O   UNL     1      -5.389  13.392  24.417  0.00  0.00    +0.000 OA
ATOM     18  H   UNL     1      -5.504  14.352  24.327  0.00  0.00    +0.000 HD
ENDBRANCH  14  17
ENDBRANCH   3  11
BRANCH   1  19
ATOM     19  C   UNL     1       0.418  10.006  21.001  0.00  0.00    +0.000 C 
ATOM     20  C   UNL     1      -0.297   9.192  22.089  0.00  0.00    +0.000 C 
BRANCH  19  24
ATOM     21  C   UNL     1       2.759   7.051  18.446  0.00  0.00    +0.000 A 
ATOM     22  C   UNL     1       2.343   8.297  17.985  0.00  0.00    +0.000 A 
ATOM     23  C   UNL     1       1.604   9.177  18.797  0.00  0.00    +0.000 A 
ATOM     24  C   UNL     1       1.232   8.870  20.124  0.00  0.00    +0.000 A 
ATOM     25  C   UNL     1       1.660   7.595  20.580  0.00  0.00    +0.000 A 
ATOM     26  C   UNL     1       2.411   6.697  19.748  0.00  0.00    +0.000 A 
BRANCH  21  28
ATOM     27  C   UNL     1       4.770   6.549  17.200  0.00  0.00    +0.000 C 
ATOM     28  O   UNL     1       3.405   6.299  17.505  0.00  0.00    +0.000 OA
ENDBRANCH  21  28
ENDBRANCH  19  24
BRANCH  19  29
ATOM     29  O   UNL     1       1.394  10.823  21.681  0.00  0.00    +0.000 OA
ATOM     30  H   UNL     1       0.945  11.672  21.895  0.00  0.00    +0.000 HD
ENDBRANCH  19  29
ENDBRANCH   1  19
TORSDOF 6
ENDMDL
MODEL 9
REMARK VINA RESULT:      -6.9      4.619      8.038
REMARK  Name = 
REMARK  8 active torsions:
REMARK  status: ('A' for Active; 'I' for Inactive)
REMARK    1  A    between atoms: C_1  and  O_2
REMARK    2  A    between atoms: O_2  and  C_3
REMARK    3  A    between atoms: C_6  and  C_7
REMARK    4  A    between atoms: C_7  and  C_8
REMARK    5  A    between atoms: C_7  and  O_9
REMARK    6  A    between atoms: C_7  and  C_10
REMARK    7  A    between atoms: C_12  and  C_13
REMARK    8  A    between atoms: C_16  and  O_17
REMARK                            x       y       z     vdW  Elec       q    Type
REMARK                         _______ _______ _______ _____ _____    ______ ____
ROOT
ATOM      1  C   UNL     1       0.672  10.219  20.528  0.00  0.00    +0.000 A 
ATOM      2  N   UNL     1       1.369  11.253  21.082  0.00  0.00    +0.000 NA
ATOM      3  C   UNL     1       0.898  12.451  20.885  0.00  0.00    +0.000 A 
ATOM      4  N   UNL     1       0.681  12.755  19.617  0.00  0.00    +0.000 NA
ATOM      5  C   UNL     1      -0.161  11.919  19.031  0.00  0.00    +0.000 A 
ATOM      6  C   UNL     1      -1.016  12.616  18.175  0.00  0.00    +0.000 A 
ATOM      7  C   UNL     1      -2.168  12.072  17.652  0.00  0.00    +0.000 A 
ATOM      8  C   UNL     1      -2.375  10.724  17.872  0.00  0.00    +0.000 A 
ATOM      9  C   UNL     1      -1.472   9.964  18.713  0.00  0.00    +0.000 A 
ATOM     10  C   UNL     1      -0.330  10.559  19.437  0.00  0.00    +0.000 A 
ENDROOT
BRANCH   3  11
ATOM     11  C   UNL     1      -0.321  12.761  21.740  0.00  0.00    +0.000 A 
ATOM     12  C   UNL     1      -0.798  11.835  22.696  0.00  0.00    +0.000 A 
ATOM     13  C   UNL     1      -2.167  11.683  22.920  0.00  0.00    +0.000 A 
ATOM     14  C   UNL     1      -3.053  12.522  22.262  0.00  0.00    +0.000 A 
ATOM     15  C   UNL     1      -2.593  13.574  21.483  0.00  0.00    +0.000 A 
ATOM     16  C   UNL     1      -1.226  13.727  21.266  0.00  0.00    +0.000 A 
BRANCH  14  17
ATOM     17  O   UNL     1      -4.400  12.316  22.318  0.00  0.00    +0.000 OA
ATOM     18  H   UNL     1      -4.582  11.718  23.061  0.00  0.00    +0.000 HD
ENDBRANCH  14  17
ENDBRANCH   3  11
BRANCH   1  19
ATOM     19  C   UNL     1       0.950   8.950  21.444  0.00  0.00    +0.000 C 
ATOM     20  C   UNL     1      -0.288   8.383  22.153  0.00  0.00    +0.000 C 
BRANCH  19  24
ATOM     21  C   UNL     1       2.729   5.567  18.966  0.00  0.00    +0.000 A 
ATOM     22  C   UNL     1       2.692   6.891  18.537  0.00  0.00    +0.000 A 
ATOM     23  C   UNL     1       2.117   7.907  19.321  0.00  0.00    +0.000 A 
ATOM     24  C   UNL     1       1.540   7.669  20.588  0.00  0.00    +0.000 A 
ATOM     25  C   UNL     1       1.580   6.314  21.011  0.00  0.00    +0.000 A 
ATOM     26  C   UNL     1       2.165   5.277  20.208  0.00  0.00    +0.000 A 
BRANCH  21  28
ATOM     27  C   UNL     1       4.110   3.644  18.475  0.00  0.00    +0.000 C 
ATOM     28  O   UNL     1       3.261   4.702  18.052  0.00  0.00    +0.000 OA
ENDBRANCH  21  28
ENDBRANCH  19  24
BRANCH  19  29
ATOM     29  O   UNL     1       1.902   9.265  22.480  0.00  0.00    +0.000 OA
ATOM     30  H   UNL     1       1.419   9.188  23.334  0.00  0.00    +0.000 HD
ENDBRANCH  19  29
ENDBRANCH   1  19
TORSDOF 6
ENDMDL
