MODEL 1
REMARK VINA RESULT:      -7.3      0.000      0.000
REMARK  Name = 
REMARK  6 active torsions:
REMARK  status: ('A' for Active; 'I' for Inactive)
REMARK    1  A    between atoms: C_1  and  O_2
REMARK    2  A    between atoms: O_2  and  C_3
REMARK    3  A    between atoms: C_5  and  O_6
REMARK    4  A    between atoms: O_6  and  C_7
REMARK    5  A    between atoms: N_13  and  C_14
REMARK    6  A    between atoms: C_14  and  C_15
REMARK                            x       y       z     vdW  Elec       q    Type
REMARK                         _______ _______ _______ _____ _____    ______ ____
ROOT
ATOM      1  C   UNL     1       0.581   9.733  21.955  0.00  0.00    +0.000 A 
ATOM      2  C   UNL     1       0.577  10.664  20.899  0.00  0.00    +0.000 A 
ATOM      3  C   UNL     1       1.053  10.358  19.603  0.00  0.00    +0.000 A 
ATOM      4  C   UNL     1       1.536   9.074  19.401  0.00  0.00    +0.000 A 
ATOM      5  C   UNL     1       1.554   8.175  20.467  0.00  0.00    +0.000 A 
ATOM      6  C   UNL     1       1.087   8.461  21.739  0.00  0.00    +0.000 A 
ATOM      7  C   UNL     1       2.123   6.911  20.013  0.00  0.00    +0.000 C 
ATOM      8  O   UNL     1       2.315   5.951  20.737  0.00  0.00    +0.000 OA
ATOM      9  N   UNL     1       2.381   7.059  18.687  0.00  0.00    +0.000 N 
ATOM     10  C   UNL     1       2.083   8.323  18.254  0.00  0.00    +0.000 C 
ATOM     11  O   UNL     1       2.258   8.741  17.125  0.00  0.00    +0.000 OA
ENDROOT
BRANCH   1  13
ATOM     12  C   UNL     1      -1.128  10.970  23.051  0.00  0.00    +0.000 C 
ATOM     13  O   UNL     1       0.061  10.190  23.137  0.00  0.00    +0.000 OA
ENDBRANCH   1  13
BRANCH   3  14
ATOM     14  O   UNL     1       0.947  11.421  18.757  0.00  0.00    +0.000 OA
ATOM     15  C   UNL     1       2.090  12.204  18.471  0.00  0.00    +0.000 C 
ENDBRANCH   3  14
BRANCH   9  16
ATOM     16  C   UNL     1       2.914   6.016  17.826  0.00  0.00    +0.000 C 
BRANCH  16  17
ATOM     17  C   UNL     1       4.427   5.960  17.879  0.00  0.00    +0.000 A 
ATOM     18  C   UNL     1       5.155   6.984  17.238  0.00  0.00    +0.000 A 
ATOM     19  C   UNL     1       6.547   7.043  17.315  0.00  0.00    +0.000 A 
ATOM     20  C   UNL     1       7.244   6.074  18.027  0.00  0.00    +0.000 A 
ATOM     21  C   UNL     1       6.550   5.029  18.633  0.00  0.00    +0.000 A 
ATOM     22  C   UNL     1       5.153   4.963  18.554  0.00  0.00    +0.000 A 
ATOM     23 BR   UNL     1       4.332   3.459  19.376  0.00  0.00    +0.000 Br
ENDBRANCH  16  17
ENDBRANCH   9  16
TORSDOF 4
ENDMDL
MODEL 2
REMARK VINA RESULT:      -6.7      3.231      6.609
REMARK  Name = 
REMARK  6 active torsions:
REMARK  status: ('A' for Active; 'I' for Inactive)
REMARK    1  A    between atoms: C_1  and  O_2
REMARK    2  A    between atoms: O_2  and  C_3
REMARK    3  A    between atoms: C_5  and  O_6
REMARK    4  A    between atoms: O_6  and  C_7
REMARK    5  A    between atoms: N_13  and  C_14
REMARK    6  A    between atoms: C_14  and  C_15
REMARK                            x       y       z     vdW  Elec       q    Type
REMARK                         _______ _______ _______ _____ _____    ______ ____
ROOT
ATOM      1  C   UNL     1       2.432   4.910  20.497  0.00  0.00    +0.000 A 
ATOM      2  C   UNL     1       3.031   4.892  19.223  0.00  0.00    +0.000 A 
ATOM      3  C   UNL     1       3.028   6.010  18.356  0.00  0.00    +0.000 A 
ATOM      4  C   UNL     1       2.398   7.156  18.816  0.00  0.00    +0.000 A 
ATOM      5  C   UNL     1       1.790   7.145  20.070  0.00  0.00    +0.000 A 
ATOM      6  C   UNL     1       1.790   6.059  20.930  0.00  0.00    +0.000 A 
ATOM      7  C   UNL     1       1.182   8.448  20.315  0.00  0.00    +0.000 C 
ATOM      8  O   UNL     1       0.533   8.721  21.308  0.00  0.00    +0.000 OA
ATOM      9  N   UNL     1       1.482   9.221  19.239  0.00  0.00    +0.000 N 
ATOM     10  C   UNL     1       2.181   8.520  18.294  0.00  0.00    +0.000 C 
ATOM     11  O   UNL     1       2.539   8.953  17.215  0.00  0.00    +0.000 OA
ENDROOT
BRANCH   1  13
ATOM     12  C   UNL     1       1.399   2.911  21.262  0.00  0.00    +0.000 C 
ATOM     13  O   UNL     1       2.550   3.748  21.212  0.00  0.00    +0.000 OA
ENDBRANCH   1  13
BRANCH   3  14
ATOM     14  O   UNL     1       3.668   5.746  17.182  0.00  0.00    +0.000 OA
ATOM     15  C   UNL     1       4.967   6.263  16.963  0.00  0.00    +0.000 C 
ENDBRANCH   3  14
BRANCH   9  16
ATOM     16  C   UNL     1       1.108  10.618  19.093  0.00  0.00    +0.000 C 
BRANCH  16  17
ATOM     17  C   UNL     1      -0.355  10.775  18.730  0.00  0.00    +0.000 A 
ATOM     18  C   UNL     1      -0.862  10.010  17.659  0.00  0.00    +0.000 A 
ATOM     19  C   UNL     1      -2.216  10.040  17.322  0.00  0.00    +0.000 A 
ATOM     20  C   UNL     1      -3.092  10.843  18.041  0.00  0.00    +0.000 A 
ATOM     21  C   UNL     1      -2.607  11.640  19.076  0.00  0.00    +0.000 A 
ATOM     22  C   UNL     1      -1.248  11.616  19.415  0.00  0.00    +0.000 A 
ATOM     23 BR   UNL     1      -0.706  12.790  20.808  0.00  0.00    +0.000 Br
ENDBRANCH  16  17
ENDBRANCH   9  16
TORSDOF 4
ENDMDL
MODEL 3
REMARK VINA RESULT:      -6.7      1.567      2.386
REMARK  Name = 
REMARK  6 active torsions:
REMARK  status: ('A' for Active; 'I' for Inactive)
REMARK    1  A    between atoms: C_1  and  O_2
REMARK    2  A    between atoms: O_2  and  C_3
REMARK    3  A    between atoms: C_5  and  O_6
REMARK    4  A    between atoms: O_6  and  C_7
REMARK    5  A    between atoms: N_13  and  C_14
REMARK    6  A    between atoms: C_14  and  C_15
REMARK                            x       y       z     vdW  Elec       q    Type
REMARK                         _______ _______ _______ _____ _____    ______ ____
ROOT
ATOM      1  C   UNL     1      -0.093   9.579  21.907  0.00  0.00    +0.000 A 
ATOM      2  C   UNL     1      -0.242  10.541  20.891  0.00  0.00    +0.000 A 
ATOM      3  C   UNL     1       0.375  10.422  19.623  0.00  0.00    +0.000 A 
ATOM      4  C   UNL     1       1.150   9.293  19.409  0.00  0.00    +0.000 A 
ATOM      5  C   UNL     1       1.305   8.365  20.437  0.00  0.00    +0.000 A 
ATOM      6  C   UNL     1       0.704   8.468  21.680  0.00  0.00    +0.000 A 
ATOM      7  C   UNL     1       2.177   7.289  19.979  0.00  0.00    +0.000 C 
ATOM      8  O   UNL     1       2.536   6.359  20.677  0.00  0.00    +0.000 OA
ATOM      9  N   UNL     1       2.479   7.563  18.683  0.00  0.00    +0.000 N 
ATOM     10  C   UNL     1       1.928   8.749  18.278  0.00  0.00    +0.000 C 
ATOM     11  O   UNL     1       2.074   9.258  17.182  0.00  0.00    +0.000 OA
ENDROOT
BRANCH   1  13
ATOM     12  C   UNL     1      -1.414  11.113  23.153  0.00  0.00    +0.000 C 
ATOM     13  O   UNL     1      -0.778   9.842  23.063  0.00  0.00    +0.000 OA
ENDBRANCH   1  13
BRANCH   3  14
ATOM     14  O   UNL     1       0.082  11.479  18.814  0.00  0.00    +0.000 OA
ATOM     15  C   UNL     1      -1.255  11.696  18.403  0.00  0.00    +0.000 C 
ENDBRANCH   3  14
BRANCH   9  16
ATOM     16  C   UNL     1       3.290   6.716  17.824  0.00  0.00    +0.000 C 
BRANCH  16  17
ATOM     17  C   UNL     1       3.020   5.245  18.067  0.00  0.00    +0.000 A 
ATOM     18  C   UNL     1       1.726   4.752  17.803  0.00  0.00    +0.000 A 
ATOM     19  C   UNL     1       1.426   3.394  17.924  0.00  0.00    +0.000 A 
ATOM     20  C   UNL     1       2.412   2.500  18.322  0.00  0.00    +0.000 A 
ATOM     21  C   UNL     1       3.687   2.969  18.630  0.00  0.00    +0.000 A 
ATOM     22  C   UNL     1       3.991   4.333  18.514  0.00  0.00    +0.000 A 
ATOM     23 BR   UNL     1       5.749   4.851  19.016  0.00  0.00    +0.000 Br
ENDBRANCH  16  17
ENDBRANCH   9  16
TORSDOF 4
ENDMDL
MODEL 4
REMARK VINA RESULT:      -6.7      3.455      7.311
REMARK  Name = 
REMARK  6 active torsions:
REMARK  status: ('A' for Active; 'I' for Inactive)
REMARK    1  A    between atoms: C_1  and  O_2
REMARK    2  A    between atoms: O_2  and  C_3
REMARK    3  A    between atoms: C_5  and  O_6
REMARK    4  A    between atoms: O_6  and  C_7
REMARK    5  A    between atoms: N_13  and  C_14
REMARK    6  A    between atoms: C_14  and  C_15
REMARK                            x       y       z     vdW  Elec       q    Type
REMARK                         _______ _______ _______ _____ _____    ______ ____
ROOT
ATOM      1  C   UNL     1       3.644   6.099  17.929  0.00  0.00    +0.000 A 
ATOM      2  C   UNL     1       3.116   5.538  19.107  0.00  0.00    +0.000 A 
ATOM      3  C   UNL     1       2.247   6.243  19.972  0.00  0.00    +0.000 A 
ATOM      4  C   UNL     1       1.922   7.541  19.609  0.00  0.00    +0.000 A 
ATOM      5  C   UNL     1       2.475   8.087  18.452  0.00  0.00    +0.000 A 
ATOM      6  C   UNL     1       3.324   7.405  17.595  0.00  0.00    +0.000 A 
ATOM      7  C   UNL     1       2.005   9.459  18.300  0.00  0.00    +0.000 C 
ATOM      8  O   UNL     1       2.361  10.206  17.408  0.00  0.00    +0.000 OA
ATOM      9  N   UNL     1       1.146   9.687  19.328  0.00  0.00    +0.000 N 
ATOM     10  C   UNL     1       1.062   8.605  20.163  0.00  0.00    +0.000 C 
ATOM     11  O   UNL     1       0.403   8.553  21.184  0.00  0.00    +0.000 OA
ENDROOT
BRANCH   1  13
ATOM     12  C   UNL     1       5.207   5.869  16.153  0.00  0.00    +0.000 C 
ATOM     13  O   UNL     1       4.450   5.267  17.198  0.00  0.00    +0.000 OA
ENDBRANCH   1  13
BRANCH   3  14
ATOM     14  O   UNL     1       1.873   5.490  21.044  0.00  0.00    +0.000 OA
ATOM     15  C   UNL     1       2.245   4.125  21.103  0.00  0.00    +0.000 C 
ENDBRANCH   3  14
BRANCH   9  16
ATOM     16  C   UNL     1       0.408  10.922  19.531  0.00  0.00    +0.000 C 
BRANCH  16  17
ATOM     17  C   UNL     1      -0.938  10.895  18.835  0.00  0.00    +0.000 A 
ATOM     18  C   UNL     1      -1.122   9.983  17.775  0.00  0.00    +0.000 A 
ATOM     19  C   UNL     1      -2.358   9.844  17.143  0.00  0.00    +0.000 A 
ATOM     20  C   UNL     1      -3.436  10.622  17.549  0.00  0.00    +0.000 A 
ATOM     21  C   UNL     1      -3.267  11.560  18.565  0.00  0.00    +0.000 A 
ATOM     22  C   UNL     1      -2.026  11.705  19.200  0.00  0.00    +0.000 A 
ATOM     23 BR   UNL     1      -1.914  13.057  20.531  0.00  0.00    +0.000 Br
ENDBRANCH  16  17
ENDBRANCH   9  16
TORSDOF 4
ENDMDL
MODEL 5
REMARK VINA RESULT:      -6.7      1.460      1.624
REMARK  Name = 
REMARK  6 active torsions:
REMARK  status: ('A' for Active; 'I' for Inactive)
REMARK    1  A    between atoms: C_1  and  O_2
REMARK    2  A    between atoms: O_2  and  C_3
REMARK    3  A    between atoms: C_5  and  O_6
REMARK    4  A    between atoms: O_6  and  C_7
REMARK    5  A    between atoms: N_13  and  C_14
REMARK    6  A    between atoms: C_14  and  C_15
REMARK                            x       y       z     vdW  Elec       q    Type
REMARK                         _______ _______ _______ _____ _____    ______ ____
ROOT
ATOM      1  C   UNL     1       0.550   8.761  21.460  0.00  0.00    +0.000 A 
ATOM      2  C   UNL     1       0.769   9.727  20.460  0.00  0.00    +0.000 A 
ATOM      3  C   UNL     1       1.482   9.451  19.269  0.00  0.00    +0.000 A 
ATOM      4  C   UNL     1       1.968   8.162  19.115  0.00  0.00    +0.000 A 
ATOM      5  C   UNL     1       1.761   7.228  20.129  0.00  0.00    +0.000 A 
ATOM      6  C   UNL     1       1.062   7.484  21.297  0.00  0.00    +0.000 A 
ATOM      7  C   UNL     1       2.382   5.965  19.746  0.00  0.00    +0.000 C 
ATOM      8  O   UNL     1       2.410   4.977  20.456  0.00  0.00    +0.000 OA
ATOM      9  N   UNL     1       2.894   6.150  18.501  0.00  0.00    +0.000 N 
ATOM     10  C   UNL     1       2.711   7.435  18.067  0.00  0.00    +0.000 C 
ATOM     11  O   UNL     1       3.110   7.886  17.010  0.00  0.00    +0.000 OA
ENDROOT
BRANCH   1  13
ATOM     12  C   UNL     1      -0.453  10.589  22.602  0.00  0.00    +0.000 C 
ATOM     13  O   UNL     1      -0.179   9.193  22.536  0.00  0.00    +0.000 OA
ENDBRANCH   1  13
BRANCH   3  14
ATOM     14  O   UNL     1       1.562  10.545  18.459  0.00  0.00    +0.000 OA
ATOM     15  C   UNL     1       1.264  11.825  18.983  0.00  0.00    +0.000 C 
ENDBRANCH   3  14
BRANCH   9  16
ATOM     16  C   UNL     1       3.562   5.122  17.720  0.00  0.00    +0.000 C 
BRANCH  16  17
ATOM     17  C   UNL     1       5.065   5.162  17.905  0.00  0.00    +0.000 A 
ATOM     18  C   UNL     1       5.572   5.523  19.170  0.00  0.00    +0.000 A 
ATOM     19  C   UNL     1       6.942   5.501  19.438  0.00  0.00    +0.000 A 
ATOM     20  C   UNL     1       7.837   5.126  18.443  0.00  0.00    +0.000 A 
ATOM     21  C   UNL     1       7.363   4.806  17.173  0.00  0.00    +0.000 A 
ATOM     22  C   UNL     1       5.989   4.831  16.899  0.00  0.00    +0.000 A 
ATOM     23 BR   UNL     1       5.478   4.427  15.113  0.00  0.00    +0.000 Br
ENDBRANCH  16  17
ENDBRANCH   9  16
TORSDOF 4
ENDMDL
MODEL 6
REMARK VINA RESULT:      -6.5      3.309      6.835
REMARK  Name = 
REMARK  6 active torsions:
REMARK  status: ('A' for Active; 'I' for Inactive)
REMARK    1  A    between atoms: C_1  and  O_2
REMARK    2  A    between atoms: O_2  and  C_3
REMARK    3  A    between atoms: C_5  and  O_6
REMARK    4  A    between atoms: O_6  and  C_7
REMARK    5  A    between atoms: N_13  and  C_14
REMARK    6  A    between atoms: C_14  and  C_15
REMARK                            x       y       z     vdW  Elec       q    Type
REMARK                         _______ _______ _______ _____ _____    ______ ____
ROOT
ATOM      1  C   UNL     1       3.025   5.299  19.670  0.00  0.00    +0.000 A 
ATOM      2  C   UNL     1       3.636   5.688  18.463  0.00  0.00    +0.000 A 
ATOM      3  C   UNL     1       3.415   6.949  17.861  0.00  0.00    +0.000 A 
ATOM      4  C   UNL     1       2.554   7.814  18.519  0.00  0.00    +0.000 A 
ATOM      5  C   UNL     1       1.941   7.400  19.701  0.00  0.00    +0.000 A 
ATOM      6  C   UNL     1       2.152   6.170  20.302  0.00  0.00    +0.000 A 
ATOM      7  C   UNL     1       1.073   8.467  20.184  0.00  0.00    +0.000 C 
ATOM      8  O   UNL     1       0.365   8.375  21.171  0.00  0.00    +0.000 OA
ATOM      9  N   UNL     1       1.223   9.507  19.323  0.00  0.00    +0.000 N 
ATOM     10  C   UNL     1       2.068   9.189  18.294  0.00  0.00    +0.000 C 
ATOM     11  O   UNL     1       2.346   9.916  17.359  0.00  0.00    +0.000 OA
ENDROOT
BRANCH   1  13
ATOM     12  C   UNL     1       4.269   3.306  19.309  0.00  0.00    +0.000 C 
ATOM     13  O   UNL     1       3.369   4.053  20.122  0.00  0.00    +0.000 OA
ENDBRANCH   1  13
BRANCH   3  14
ATOM     14  O   UNL     1       4.115   7.088  16.700  0.00  0.00    +0.000 OA
ATOM     15  C   UNL     1       5.138   6.163  16.385  0.00  0.00    +0.000 C 
ENDBRANCH   3  14
BRANCH   9  16
ATOM     16  C   UNL     1       0.571  10.798  19.462  0.00  0.00    +0.000 C 
BRANCH  16  17
ATOM     17  C   UNL     1      -0.789  10.817  18.793  0.00  0.00    +0.000 A 
ATOM     18  C   UNL     1      -1.002   9.964  17.690  0.00  0.00    +0.000 A 
ATOM     19  C   UNL     1      -2.252   9.866  17.078  0.00  0.00    +0.000 A 
ATOM     20  C   UNL     1      -3.316  10.627  17.547  0.00  0.00    +0.000 A 
ATOM     21  C   UNL     1      -3.119  11.508  18.608  0.00  0.00    +0.000 A 
ATOM     22  C   UNL     1      -1.864  11.612  19.224  0.00  0.00    +0.000 A 
ATOM     23 BR   UNL     1      -1.715  12.890  20.623  0.00  0.00    +0.000 Br
ENDBRANCH  16  17
ENDBRANCH   9  16
TORSDOF 4
ENDMDL
MODEL 7
REMARK VINA RESULT:      -6.5      1.588      3.113
REMARK  Name = 
REMARK  6 active torsions:
REMARK  status: ('A' for Active; 'I' for Inactive)
REMARK    1  A    between atoms: C_1  and  O_2
REMARK    2  A    between atoms: O_2  and  C_3
REMARK    3  A    between atoms: C_5  and  O_6
REMARK    4  A    between atoms: O_6  and  C_7
REMARK    5  A    between atoms: N_13  and  C_14
REMARK    6  A    between atoms: C_14  and  C_15
REMARK                            x       y       z     vdW  Elec       q    Type
REMARK                         _______ _______ _______ _____ _____    ______ ____
ROOT
ATOM      1  C   UNL     1       1.350  10.552  18.972  0.00  0.00    +0.000 A 
ATOM      2  C   UNL     1       0.898   9.994  20.182  0.00  0.00    +0.000 A 
ATOM      3  C   UNL     1       1.123   8.643  20.537  0.00  0.00    +0.000 A 
ATOM      4  C   UNL     1       1.824   7.866  19.627  0.00  0.00    +0.000 A 
ATOM      5  C   UNL     1       2.241   8.432  18.424  0.00  0.00    +0.000 A 
ATOM      6  C   UNL     1       2.031   9.754  18.066  0.00  0.00    +0.000 A 
ATOM      7  C   UNL     1       2.930   7.417  17.635  0.00  0.00    +0.000 C 
ATOM      8  O   UNL     1       3.361   7.604  16.512  0.00  0.00    +0.000 OA
ATOM      9  N   UNL     1       2.960   6.292  18.396  0.00  0.00    +0.000 N 
ATOM     10  C   UNL     1       2.302   6.471  19.584  0.00  0.00    +0.000 C 
ATOM     11  O   UNL     1       2.138   5.616  20.434  0.00  0.00    +0.000 OA
ENDROOT
BRANCH   1  13
ATOM     12  C   UNL     1       0.912  12.657  19.985  0.00  0.00    +0.000 C 
ATOM     13  O   UNL     1       1.065  11.881  18.801  0.00  0.00    +0.000 OA
ENDBRANCH   1  13
BRANCH   3  14
ATOM     14  O   UNL     1       0.589   8.341  21.754  0.00  0.00    +0.000 OA
ATOM     15  C   UNL     1      -0.224   9.291  22.416  0.00  0.00    +0.000 C 
ENDBRANCH   3  14
BRANCH   9  16
ATOM     16  C   UNL     1       3.600   5.046  18.008  0.00  0.00    +0.000 C 
BRANCH  16  17
ATOM     17  C   UNL     1       5.110   5.141  18.088  0.00  0.00    +0.000 A 
ATOM     18  C   UNL     1       5.693   5.485  19.326  0.00  0.00    +0.000 A 
ATOM     19  C   UNL     1       7.077   5.510  19.495  0.00  0.00    +0.000 A 
ATOM     20  C   UNL     1       7.913   5.201  18.428  0.00  0.00    +0.000 A 
ATOM     21  C   UNL     1       7.362   4.899  17.185  0.00  0.00    +0.000 A 
ATOM     22  C   UNL     1       5.971   4.877  17.009  0.00  0.00    +0.000 A 
ATOM     23 BR   UNL     1       5.349   4.505  15.252  0.00  0.00    +0.000 Br
ENDBRANCH  16  17
ENDBRANCH   9  16
TORSDOF 4
ENDMDL
MODEL 8
REMARK VINA RESULT:      -6.5      2.167      4.021
REMARK  Name = 
REMARK  6 active torsions:
REMARK  status: ('A' for Active; 'I' for Inactive)
REMARK    1  A    between atoms: C_1  and  O_2
REMARK    2  A    between atoms: O_2  and  C_3
REMARK    3  A    between atoms: C_5  and  O_6
REMARK    4  A    between atoms: O_6  and  C_7
REMARK    5  A    between atoms: N_13  and  C_14
REMARK    6  A    between atoms: C_14  and  C_15
REMARK                            x       y       z     vdW  Elec       q    Type
REMARK                         _______ _______ _______ _____ _____    ______ ____
ROOT
ATOM      1  C   UNL     1      -0.293  11.265  18.769  0.00  0.00    +0.000 A 
ATOM      2  C   UNL     1      -0.660  11.080  20.116  0.00  0.00    +0.000 A 
ATOM      3  C   UNL     1      -0.151  10.029  20.914  0.00  0.00    +0.000 A 
ATOM      4  C   UNL     1       0.747   9.164  20.309  0.00  0.00    +0.000 A 
ATOM      5  C   UNL     1       1.078   9.349  18.968  0.00  0.00    +0.000 A 
ATOM      6  C   UNL     1       0.591  10.376  18.177  0.00  0.00    +0.000 A 
ATOM      7  C   UNL     1       2.014   8.307  18.561  0.00  0.00    +0.000 C 
ATOM      8  O   UNL     1       2.441   8.180  17.428  0.00  0.00    +0.000 OA
ATOM      9  N   UNL     1       2.264   7.560  19.667  0.00  0.00    +0.000 N 
ATOM     10  C   UNL     1       1.531   7.990  20.741  0.00  0.00    +0.000 C 
ATOM     11  O   UNL     1       1.526   7.475  21.843  0.00  0.00    +0.000 OA
ENDROOT
BRANCH   1  13
ATOM     12  C   UNL     1      -0.343  13.626  18.500  0.00  0.00    +0.000 C 
ATOM     13  O   UNL     1      -0.864  12.347  18.153  0.00  0.00    +0.000 OA
ENDBRANCH   1  13
BRANCH   3  14
ATOM     14  O   UNL     1      -0.656  10.061  22.179  0.00  0.00    +0.000 OA
ATOM     15  C   UNL     1      -1.126  11.284  22.714  0.00  0.00    +0.000 C 
ENDBRANCH   3  14
BRANCH   9  16
ATOM     16  C   UNL     1       3.186   6.438  19.718  0.00  0.00    +0.000 C 
BRANCH  16  17
ATOM     17  C   UNL     1       2.524   5.144  19.289  0.00  0.00    +0.000 A 
ATOM     18  C   UNL     1       1.498   4.618  20.102  0.00  0.00    +0.000 A 
ATOM     19  C   UNL     1       0.787   3.478  19.727  0.00  0.00    +0.000 A 
ATOM     20  C   UNL     1       1.093   2.830  18.536  0.00  0.00    +0.000 A 
ATOM     21  C   UNL     1       2.130   3.305  17.738  0.00  0.00    +0.000 A 
ATOM     22  C   UNL     1       2.849   4.449  18.112  0.00  0.00    +0.000 A 
ATOM     23 BR   UNL     1       4.275   4.961  16.964  0.00  0.00    +0.000 Br
ENDBRANCH  16  17
ENDBRANCH   9  16
TORSDOF 4
ENDMDL
MODEL 9
REMARK VINA RESULT:      -6.5      3.135      7.153
REMARK  Name = 
REMARK  6 active torsions:
REMARK  status: ('A' for Active; 'I' for Inactive)
REMARK    1  A    between atoms: C_1  and  O_2
REMARK    2  A    between atoms: O_2  and  C_3
REMARK    3  A    between atoms: C_5  and  O_6
REMARK    4  A    between atoms: O_6  and  C_7
REMARK    5  A    between atoms: N_13  and  C_14
REMARK    6  A    between atoms: C_14  and  C_15
REMARK                            x       y       z     vdW  Elec       q    Type
REMARK                         _______ _______ _______ _____ _____    ______ ____
ROOT
ATOM      1  C   UNL     1       3.071   4.592  18.022  0.00  0.00    +0.000 A 
ATOM      2  C   UNL     1       2.679   4.281  19.338  0.00  0.00    +0.000 A 
ATOM      3  C   UNL     1       2.179   5.250  20.239  0.00  0.00    +0.000 A 
ATOM      4  C   UNL     1       2.084   6.551  19.770  0.00  0.00    +0.000 A 
ATOM      5  C   UNL     1       2.501   6.842  18.472  0.00  0.00    +0.000 A 
ATOM      6  C   UNL     1       2.989   5.902  17.579  0.00  0.00    +0.000 A 
ATOM      7  C   UNL     1       2.326   8.268  18.225  0.00  0.00    +0.000 C 
ATOM      8  O   UNL     1       2.653   8.826  17.193  0.00  0.00    +0.000 OA
ATOM      9  N   UNL     1       1.763   8.787  19.347  0.00  0.00    +0.000 N 
ATOM     10  C   UNL     1       1.610   7.836  20.320  0.00  0.00    +0.000 C 
ATOM     11  O   UNL     1       1.174   8.035  21.438  0.00  0.00    +0.000 OA
ENDROOT
BRANCH   1  13
ATOM     12  C   UNL     1       3.684   2.296  17.971  0.00  0.00    +0.000 C 
ATOM     13  O   UNL     1       3.510   3.528  17.279  0.00  0.00    +0.000 OA
ENDBRANCH   1  13
BRANCH   3  14
ATOM     14  O   UNL     1       1.870   4.706  21.450  0.00  0.00    +0.000 OA
ATOM     15  C   UNL     1       2.094   3.327  21.675  0.00  0.00    +0.000 C 
ENDBRANCH   3  14
BRANCH   9  16
ATOM     16  C   UNL     1       1.373  10.178  19.510  0.00  0.00    +0.000 C 
BRANCH  16  17
ATOM     17  C   UNL     1      -0.034  10.431  19.008  0.00  0.00    +0.000 A 
ATOM     18  C   UNL     1      -0.438   9.804  17.811  0.00  0.00    +0.000 A 
ATOM     19  C   UNL     1      -1.744   9.923  17.333  0.00  0.00    +0.000 A 
ATOM     20  C   UNL     1      -2.673  10.682  18.035  0.00  0.00    +0.000 A 
ATOM     21  C   UNL     1      -2.286  11.346  19.197  0.00  0.00    +0.000 A 
ATOM     22  C   UNL     1      -0.974  11.232  19.679  0.00  0.00    +0.000 A 
ATOM     23 BR   UNL     1      -0.560  12.230  21.242  0.00  0.00    +0.000 Br
ENDBRANCH  16  17
ENDBRANCH   9  16
TORSDOF 4
ENDMDL
