MODEL 1
REMARK VINA RESULT:      -7.6      0.000      0.000
REMARK  Name = 
REMARK  2 active torsions:
REMARK  status: ('A' for Active; 'I' for Inactive)
REMARK    1  A    between atoms: C_1  and  C_2
REMARK    2  A    between atoms: C_6  and  C_7
REMARK                            x       y       z     vdW  Elec       q    Type
REMARK                         _______ _______ _______ _____ _____    ______ ____
ROOT
ATOM      1  C   UNL     1       3.982   3.923  17.321  0.00  0.00    +0.000 A 
ATOM      2  C   UNL     1       2.640   3.935  16.944  0.00  0.00    +0.000 A 
ATOM      3  N   UNL     1       1.597   3.669  17.766  0.00  0.00    +0.000 NA
ATOM      4  C   UNL     1       1.886   3.354  19.042  0.00  0.00    +0.000 A 
ATOM      5  C   UNL     1       0.861   3.077  19.932  0.00  0.00    +0.000 A 
ATOM      6  C   UNL     1       1.135   2.740  21.255  0.00  0.00    +0.000 A 
ATOM      7  C   UNL     1       2.456   2.693  21.651  0.00  0.00    +0.000 A 
ATOM      8  N   UNL     1       3.490   2.962  20.827  0.00  0.00    +0.000 NA
ATOM      9  C   UNL     1       3.197   3.288  19.549  0.00  0.00    +0.000 A 
ATOM     10  C   UNL     1       4.223   3.586  18.663  0.00  0.00    +0.000 A 
ENDROOT
BRANCH   1  16
ATOM     11  C   UNL     1       6.023   3.556  12.741  0.00  0.00    +0.000 C 
ATOM     12  C   UNL     1       6.090   4.083  14.144  0.00  0.00    +0.000 A 
ATOM     13  C   UNL     1       7.178   4.842  14.577  0.00  0.00    +0.000 A 
ATOM     14  C   UNL     1       7.227   5.302  15.890  0.00  0.00    +0.000 A 
ATOM     15  C   UNL     1       6.193   5.001  16.780  0.00  0.00    +0.000 A 
ATOM     16  C   UNL     1       5.075   4.246  16.379  0.00  0.00    +0.000 A 
ATOM     17  C   UNL     1       5.048   3.802  15.042  0.00  0.00    +0.000 A 
ENDBRANCH   1  16
TORSDOF 1
ENDMDL
MODEL 2
REMARK VINA RESULT:      -7.6      1.144      1.808
REMARK  Name = 
REMARK  2 active torsions:
REMARK  status: ('A' for Active; 'I' for Inactive)
REMARK    1  A    between atoms: C_1  and  C_2
REMARK    2  A    between atoms: C_6  and  C_7
REMARK                            x       y       z     vdW  Elec       q    Type
REMARK                         _______ _______ _______ _____ _____    ______ ____
ROOT
ATOM      1  C   UNL     1       4.589   4.470  17.126  0.00  0.00    +0.000 A 
ATOM      2  C   UNL     1       4.832   5.159  18.313  0.00  0.00    +0.000 A 
ATOM      3  N   UNL     1       4.054   5.099  19.422  0.00  0.00    +0.000 NA
ATOM      4  C   UNL     1       2.957   4.325  19.360  0.00  0.00    +0.000 A 
ATOM      5  C   UNL     1       2.125   4.219  20.464  0.00  0.00    +0.000 A 
ATOM      6  C   UNL     1       0.978   3.431  20.422  0.00  0.00    +0.000 A 
ATOM      7  C   UNL     1       0.697   2.758  19.249  0.00  0.00    +0.000 A 
ATOM      8  N   UNL     1       1.476   2.821  18.151  0.00  0.00    +0.000 NA
ATOM      9  C   UNL     1       2.585   3.591  18.218  0.00  0.00    +0.000 A 
ATOM     10  C   UNL     1       3.428   3.680  17.120  0.00  0.00    +0.000 A 
ENDROOT
BRANCH   1  16
ATOM     11  C   UNL     1       5.652   3.287  12.356  0.00  0.00    +0.000 C 
ATOM     12  C   UNL     1       6.029   3.996  13.624  0.00  0.00    +0.000 A 
ATOM     13  C   UNL     1       7.225   4.709  13.722  0.00  0.00    +0.000 A 
ATOM     14  C   UNL     1       7.561   5.342  14.915  0.00  0.00    +0.000 A 
ATOM     15  C   UNL     1       6.709   5.261  16.020  0.00  0.00    +0.000 A 
ATOM     16  C   UNL     1       5.490   4.560  15.957  0.00  0.00    +0.000 A 
ATOM     17  C   UNL     1       5.172   3.937  14.734  0.00  0.00    +0.000 A 
ENDBRANCH   1  16
TORSDOF 1
ENDMDL
MODEL 3
REMARK VINA RESULT:      -7.5      1.709      2.706
REMARK  Name = 
REMARK  2 active torsions:
REMARK  status: ('A' for Active; 'I' for Inactive)
REMARK    1  A    between atoms: C_1  and  C_2
REMARK    2  A    between atoms: C_6  and  C_7
REMARK                            x       y       z     vdW  Elec       q    Type
REMARK                         _______ _______ _______ _____ _____    ______ ____
ROOT
ATOM      1  C   UNL     1       5.245   4.935  15.786  0.00  0.00    +0.000 A 
ATOM      2  C   UNL     1       5.122   6.234  16.276  0.00  0.00    +0.000 A 
ATOM      3  N   UNL     1       4.541   6.570  17.454  0.00  0.00    +0.000 NA
ATOM      4  C   UNL     1       4.034   5.570  18.196  0.00  0.00    +0.000 A 
ATOM      5  C   UNL     1       3.432   5.851  19.412  0.00  0.00    +0.000 A 
ATOM      6  C   UNL     1       2.891   4.834  20.194  0.00  0.00    +0.000 A 
ATOM      7  C   UNL     1       2.974   3.539  19.721  0.00  0.00    +0.000 A 
ATOM      8  N   UNL     1       3.555   3.212  18.549  0.00  0.00    +0.000 NA
ATOM      9  C   UNL     1       4.075   4.217  17.810  0.00  0.00    +0.000 A 
ATOM     10  C   UNL     1       4.695   3.933  16.602  0.00  0.00    +0.000 A 
ENDROOT
BRANCH   1  16
ATOM     11  C   UNL     1       5.390   2.364  11.467  0.00  0.00    +0.000 C 
ATOM     12  C   UNL     1       6.000   3.387  12.380  0.00  0.00    +0.000 A 
ATOM     13  C   UNL     1       7.196   4.027  12.050  0.00  0.00    +0.000 A 
ATOM     14  C   UNL     1       7.752   4.957  12.923  0.00  0.00    +0.000 A 
ATOM     15  C   UNL     1       7.121   5.248  14.136  0.00  0.00    +0.000 A 
ATOM     16  C   UNL     1       5.911   4.630  14.501  0.00  0.00    +0.000 A 
ATOM     17  C   UNL     1       5.367   3.701  13.593  0.00  0.00    +0.000 A 
ENDBRANCH   1  16
TORSDOF 1
ENDMDL
MODEL 4
REMARK VINA RESULT:      -7.3      4.159      6.727
REMARK  Name = 
REMARK  2 active torsions:
REMARK  status: ('A' for Active; 'I' for Inactive)
REMARK    1  A    between atoms: C_1  and  C_2
REMARK    2  A    between atoms: C_6  and  C_7
REMARK                            x       y       z     vdW  Elec       q    Type
REMARK                         _______ _______ _______ _____ _____    ______ ____
ROOT
ATOM      1  C   UNL     1       2.998   6.866  18.019  0.00  0.00    +0.000 A 
ATOM      2  C   UNL     1       2.607   5.533  18.127  0.00  0.00    +0.000 A 
ATOM      3  N   UNL     1       3.282   4.478  17.610  0.00  0.00    +0.000 NA
ATOM      4  C   UNL     1       4.410   4.746  16.928  0.00  0.00    +0.000 A 
ATOM      5  C   UNL     1       5.148   3.709  16.380  0.00  0.00    +0.000 A 
ATOM      6  C   UNL     1       6.314   3.962  15.662  0.00  0.00    +0.000 A 
ATOM      7  C   UNL     1       6.712   5.276  15.516  0.00  0.00    +0.000 A 
ATOM      8  N   UNL     1       6.036   6.320  16.036  0.00  0.00    +0.000 NA
ATOM      9  C   UNL     1       4.908   6.048  16.729  0.00  0.00    +0.000 A 
ATOM     10  C   UNL     1       4.181   7.085  17.295  0.00  0.00    +0.000 A 
ENDROOT
BRANCH   1  16
ATOM     11  C   UNL     1       0.671   8.866  22.002  0.00  0.00    +0.000 C 
ATOM     12  C   UNL     1       1.086   8.972  20.564  0.00  0.00    +0.000 A 
ATOM     13  C   UNL     1       0.730  10.077  19.790  0.00  0.00    +0.000 A 
ATOM     14  C   UNL     1       1.110  10.142  18.453  0.00  0.00    +0.000 A 
ATOM     15  C   UNL     1       1.842   9.099  17.878  0.00  0.00    +0.000 A 
ATOM     16  C   UNL     1       2.227   7.972  18.627  0.00  0.00    +0.000 A 
ATOM     17  C   UNL     1       1.837   7.938  19.981  0.00  0.00    +0.000 A 
ENDBRANCH   1  16
TORSDOF 1
ENDMDL
MODEL 5
REMARK VINA RESULT:      -7.2      1.180      1.216
REMARK  Name = 
REMARK  2 active torsions:
REMARK  status: ('A' for Active; 'I' for Inactive)
REMARK    1  A    between atoms: C_1  and  C_2
REMARK    2  A    between atoms: C_6  and  C_7
REMARK                            x       y       z     vdW  Elec       q    Type
REMARK                         _______ _______ _______ _____ _____    ______ ____
ROOT
ATOM      1  C   UNL     1       4.478   4.709  17.384  0.00  0.00    +0.000 A 
ATOM      2  C   UNL     1       3.623   5.772  17.666  0.00  0.00    +0.000 A 
ATOM      3  N   UNL     1       2.773   5.830  18.720  0.00  0.00    +0.000 NA
ATOM      4  C   UNL     1       2.747   4.770  19.547  0.00  0.00    +0.000 A 
ATOM      5  C   UNL     1       1.903   4.772  20.646  0.00  0.00    +0.000 A 
ATOM      6  C   UNL     1       1.852   3.683  21.511  0.00  0.00    +0.000 A 
ATOM      7  C   UNL     1       2.669   2.603  21.242  0.00  0.00    +0.000 A 
ATOM      8  N   UNL     1       3.514   2.553  20.192  0.00  0.00    +0.000 NA
ATOM      9  C   UNL     1       3.546   3.624  19.368  0.00  0.00    +0.000 A 
ATOM     10  C   UNL     1       4.407   3.630  18.280  0.00  0.00    +0.000 A 
ENDROOT
BRANCH   1  16
ATOM     11  C   UNL     1       5.502   3.420  12.633  0.00  0.00    +0.000 C 
ATOM     12  C   UNL     1       5.921   4.100  13.904  0.00  0.00    +0.000 A 
ATOM     13  C   UNL     1       7.172   4.707  14.018  0.00  0.00    +0.000 A 
ATOM     14  C   UNL     1       7.545   5.314  15.214  0.00  0.00    +0.000 A 
ATOM     15  C   UNL     1       6.673   5.311  16.307  0.00  0.00    +0.000 A 
ATOM     16  C   UNL     1       5.400   4.716  16.228  0.00  0.00    +0.000 A 
ATOM     17  C   UNL     1       5.046   4.119  15.002  0.00  0.00    +0.000 A 
ENDBRANCH   1  16
TORSDOF 1
ENDMDL
MODEL 6
REMARK VINA RESULT:      -7.1      2.538      6.632
REMARK  Name = 
REMARK  2 active torsions:
REMARK  status: ('A' for Active; 'I' for Inactive)
REMARK    1  A    between atoms: C_1  and  C_2
REMARK    2  A    between atoms: C_6  and  C_7
REMARK                            x       y       z     vdW  Elec       q    Type
REMARK                         _______ _______ _______ _____ _____    ______ ____
ROOT
ATOM      1  C   UNL     1       5.113   4.760  16.535  0.00  0.00    +0.000 A 
ATOM      2  C   UNL     1       6.265   5.543  16.596  0.00  0.00    +0.000 A 
ATOM      3  N   UNL     1       7.161   5.690  15.590  0.00  0.00    +0.000 NA
ATOM      4  C   UNL     1       6.922   5.016  14.452  0.00  0.00    +0.000 A 
ATOM      5  C   UNL     1       7.799   5.131  13.385  0.00  0.00    +0.000 A 
ATOM      6  C   UNL     1       7.579   4.436  12.199  0.00  0.00    +0.000 A 
ATOM      7  C   UNL     1       6.459   3.631  12.119  0.00  0.00    +0.000 A 
ATOM      8  N   UNL     1       5.571   3.490  13.124  0.00  0.00    +0.000 NA
ATOM      9  C   UNL     1       5.807   4.177  14.263  0.00  0.00    +0.000 A 
ATOM     10  C   UNL     1       4.918   4.078  15.323  0.00  0.00    +0.000 A 
ENDROOT
BRANCH   1  16
ATOM     11  C   UNL     1       1.126   2.565  18.671  0.00  0.00    +0.000 C 
ATOM     12  C   UNL     1       2.215   3.596  18.728  0.00  0.00    +0.000 A 
ATOM     13  C   UNL     1       2.322   4.473  19.808  0.00  0.00    +0.000 A 
ATOM     14  C   UNL     1       3.329   5.434  19.828  0.00  0.00    +0.000 A 
ATOM     15  C   UNL     1       4.231   5.529  18.765  0.00  0.00    +0.000 A 
ATOM     16  C   UNL     1       4.162   4.658  17.662  0.00  0.00    +0.000 A 
ATOM     17  C   UNL     1       3.138   3.689  17.675  0.00  0.00    +0.000 A 
ENDBRANCH   1  16
TORSDOF 1
ENDMDL
MODEL 7
REMARK VINA RESULT:      -7.1      1.231      1.380
REMARK  Name = 
REMARK  2 active torsions:
REMARK  status: ('A' for Active; 'I' for Inactive)
REMARK    1  A    between atoms: C_1  and  C_2
REMARK    2  A    between atoms: C_6  and  C_7
REMARK                            x       y       z     vdW  Elec       q    Type
REMARK                         _______ _______ _______ _____ _____    ______ ____
ROOT
ATOM      1  C   UNL     1       4.377   3.686  17.136  0.00  0.00    +0.000 A 
ATOM      2  C   UNL     1       4.040   2.357  17.390  0.00  0.00    +0.000 A 
ATOM      3  N   UNL     1       3.155   1.943  18.329  0.00  0.00    +0.000 NA
ATOM      4  C   UNL     1       2.570   2.892  19.081  0.00  0.00    +0.000 A 
ATOM      5  C   UNL     1       1.652   2.531  20.055  0.00  0.00    +0.000 A 
ATOM      6  C   UNL     1       1.040   3.494  20.853  0.00  0.00    +0.000 A 
ATOM      7  C   UNL     1       1.374   4.817  20.642  0.00  0.00    +0.000 A 
ATOM      8  N   UNL     1       2.254   5.222  19.704  0.00  0.00    +0.000 NA
ATOM      9  C   UNL     1       2.833   4.268  18.942  0.00  0.00    +0.000 A 
ATOM     10  C   UNL     1       3.737   4.631  17.954  0.00  0.00    +0.000 A 
ENDROOT
BRANCH   1  16
ATOM     11  C   UNL     1       5.940   3.395  12.366  0.00  0.00    +0.000 C 
ATOM     12  C   UNL     1       6.116   3.950  13.749  0.00  0.00    +0.000 A 
ATOM     13  C   UNL     1       7.181   4.797  14.056  0.00  0.00    +0.000 A 
ATOM     14  C   UNL     1       7.334   5.283  15.351  0.00  0.00    +0.000 A 
ATOM     15  C   UNL     1       6.427   4.920  16.351  0.00  0.00    +0.000 A 
ATOM     16  C   UNL     1       5.335   4.074  16.079  0.00  0.00    +0.000 A 
ATOM     17  C   UNL     1       5.200   3.606  14.757  0.00  0.00    +0.000 A 
ENDBRANCH   1  16
TORSDOF 1
ENDMDL
MODEL 8
REMARK VINA RESULT:      -7.0      2.705      6.776
REMARK  Name = 
REMARK  2 active torsions:
REMARK  status: ('A' for Active; 'I' for Inactive)
REMARK    1  A    between atoms: C_1  and  C_2
REMARK    2  A    between atoms: C_6  and  C_7
REMARK                            x       y       z     vdW  Elec       q    Type
REMARK                         _______ _______ _______ _____ _____    ______ ____
ROOT
ATOM      1  C   UNL     1       5.378   4.916  16.572  0.00  0.00    +0.000 A 
ATOM      2  C   UNL     1       6.547   5.670  16.502  0.00  0.00    +0.000 A 
ATOM      3  N   UNL     1       7.359   5.750  15.420  0.00  0.00    +0.000 NA
ATOM      4  C   UNL     1       7.011   5.031  14.337  0.00  0.00    +0.000 A 
ATOM      5  C   UNL     1       7.799   5.076  13.198  0.00  0.00    +0.000 A 
ATOM      6  C   UNL     1       7.465   4.333  12.068  0.00  0.00    +0.000 A 
ATOM      7  C   UNL     1       6.326   3.555  12.118  0.00  0.00    +0.000 A 
ATOM      8  N   UNL     1       5.521   3.482  13.198  0.00  0.00    +0.000 NA
ATOM      9  C   UNL     1       5.866   4.214  14.281  0.00  0.00    +0.000 A 
ATOM     10  C   UNL     1       5.067   4.185  15.414  0.00  0.00    +0.000 A 
ENDROOT
BRANCH   1  16
ATOM     11  C   UNL     1       2.244   7.257  19.731  0.00  0.00    +0.000 C 
ATOM     12  C   UNL     1       2.983   6.013  19.334  0.00  0.00    +0.000 A 
ATOM     13  C   UNL     1       2.898   4.849  20.099  0.00  0.00    +0.000 A 
ATOM     14  C   UNL     1       3.609   3.714  19.720  0.00  0.00    +0.000 A 
ATOM     15  C   UNL     1       4.416   3.737  18.579  0.00  0.00    +0.000 A 
ATOM     16  C   UNL     1       4.521   4.889  17.778  0.00  0.00    +0.000 A 
ATOM     17  C   UNL     1       3.783   6.019  18.180  0.00  0.00    +0.000 A 
ENDBRANCH   1  16
TORSDOF 1
ENDMDL
MODEL 9
REMARK VINA RESULT:      -7.0      4.831      5.441
REMARK  Name = 
REMARK  2 active torsions:
REMARK  status: ('A' for Active; 'I' for Inactive)
REMARK    1  A    between atoms: C_1  and  C_2
REMARK    2  A    between atoms: C_6  and  C_7
REMARK                            x       y       z     vdW  Elec       q    Type
REMARK                         _______ _______ _______ _____ _____    ______ ____
ROOT
ATOM      1  C   UNL     1       2.358   7.506  18.512  0.00  0.00    +0.000 A 
ATOM      2  C   UNL     1       2.043   8.642  17.768  0.00  0.00    +0.000 A 
ATOM      3  N   UNL     1       1.424   9.745  18.254  0.00  0.00    +0.000 NA
ATOM      4  C   UNL     1       1.077   9.731  19.554  0.00  0.00    +0.000 A 
ATOM      5  C   UNL     1       0.446  10.832  20.111  0.00  0.00    +0.000 A 
ATOM      6  C   UNL     1       0.068  10.838  21.450  0.00  0.00    +0.000 A 
ATOM      7  C   UNL     1       0.344   9.716  22.206  0.00  0.00    +0.000 A 
ATOM      8  N   UNL     1       0.962   8.622  21.715  0.00  0.00    +0.000 NA
ATOM      9  C   UNL     1       1.320   8.642  20.413  0.00  0.00    +0.000 A 
ATOM     10  C   UNL     1       1.970   7.548  19.861  0.00  0.00    +0.000 A 
ENDROOT
BRANCH   1  16
ATOM     11  C   UNL     1       2.557   2.565  17.600  0.00  0.00    +0.000 C 
ATOM     12  C   UNL     1       3.172   3.927  17.465  0.00  0.00    +0.000 A 
ATOM     13  C   UNL     1       4.401   4.103  16.827  0.00  0.00    +0.000 A 
ATOM     14  C   UNL     1       4.960   5.374  16.732  0.00  0.00    +0.000 A 
ATOM     15  C   UNL     1       4.300   6.477  17.282  0.00  0.00    +0.000 A 
ATOM     16  C   UNL     1       3.056   6.341  17.926  0.00  0.00    +0.000 A 
ATOM     17  C   UNL     1       2.510   5.045  17.998  0.00  0.00    +0.000 A 
ENDBRANCH   1  16
TORSDOF 1
ENDMDL
