MODEL 1
REMARK VINA RESULT:      -7.9      0.000      0.000
REMARK  Name = 
REMARK  8 active torsions:
REMARK  status: ('A' for Active; 'I' for Inactive)
REMARK    1  A    between atoms: C_1  and  C_2
REMARK    2  A    between atoms: C_2  and  C_3
REMARK    3  A    between atoms: C_2  and  C_4
REMARK    4  A    between atoms: C_4  and  C_5
REMARK    5  A    between atoms: C_5  and  N_6
REMARK    6  A    between atoms: C_5  and  C_14
REMARK    7  A    between atoms: C_7  and  C_9
REMARK    8  A    between atoms: C_20  and  C_21
REMARK                            x       y       z     vdW  Elec       q    Type
REMARK                         _______ _______ _______ _____ _____    ______ ____
ROOT
ATOM      1  C   UNL     1       4.861   5.683  17.435  0.00  0.00    +0.000 C 
ENDROOT
BRANCH   1   2
ATOM      2  C   UNL     1       4.749   4.647  18.584  0.00  0.00    +0.000 C 
ATOM      3  O   UNL     1       5.594   4.594  19.485  0.00  0.00    +0.000 OA
ATOM      4  N   UNL     1       3.685   3.769  18.602  0.00  0.00    +0.000 N 
ATOM      5  C   UNL     1       2.637   3.580  17.617  0.00  0.00    +0.000 C 
ATOM      6  C   UNL     1       1.424   3.245  18.465  0.00  0.00    +0.000 C 
ATOM      7  C   UNL     1       2.001   2.402  19.600  0.00  0.00    +0.000 C 
ATOM      8  C   UNL     1       3.456   2.883  19.754  0.00  0.00    +0.000 C 
BRANCH   8   9
ATOM      9  C   UNL     1       4.411   1.664  19.808  0.00  0.00    +0.000 C 
ATOM     10  N   UNL     1       4.343   0.786  18.765  0.00  0.00    +0.000 N 
ATOM     11  O   UNL     1       5.289   1.527  20.653  0.00  0.00    +0.000 OA
ATOM     12  H   UNL     1       3.988   1.144  17.878  0.00  0.00    +0.000 HD
ATOM     13  H   UNL     1       5.082   0.099  18.712  0.00  0.00    +0.000 HD
ENDBRANCH   8   9
ENDBRANCH   1   2
BRANCH   1  14
ATOM     14  N   UNL     1       5.318   5.008  16.208  0.00  0.00    +0.000 N 
ATOM     15  C   UNL     1       6.578   5.180  15.667  0.00  0.00    +0.000 C 
ATOM     16  O   UNL     1       7.400   5.991  16.081  0.00  0.00    +0.000 OA
ATOM     17  H   UNL     1       4.839   4.172  15.878  0.00  0.00    +0.000 HD
BRANCH  15  18
ATOM     18  C   UNL     1       6.869   4.338  14.418  0.00  0.00    +0.000 C 
ATOM     19  C   UNL     1       7.462   5.172  13.301  0.00  0.00    +0.000 C 
ATOM     20  C   UNL     1       7.230   4.306  12.081  0.00  0.00    +0.000 C 
ATOM     21  C   UNL     1       5.951   3.540  12.394  0.00  0.00    +0.000 C 
ATOM     22  N   UNL     1       5.628   3.796  13.806  0.00  0.00    +0.000 NA
ATOM     23  H   UNL     1       5.394   2.915  14.267  0.00  0.00    +0.000 HD
ENDBRANCH  15  18
ENDBRANCH   1  14
BRANCH   1  24
ATOM     24  C   UNL     1       3.544   6.465  17.209  0.00  0.00    +0.000 C 
BRANCH  24  26
ATOM     25  C   UNL     1       2.377   8.703  17.698  0.00  0.00    +0.000 C 
ATOM     26  C   UNL     1       3.188   7.540  18.266  0.00  0.00    +0.000 C 
ATOM     27  C   UNL     1       2.407   6.889  19.416  0.00  0.00    +0.000 C 
ENDBRANCH  24  26
ENDBRANCH   1  24
TORSDOF 6
ENDMDL
MODEL 2
REMARK VINA RESULT:      -7.8      1.223      1.519
REMARK  Name = 
REMARK  8 active torsions:
REMARK  status: ('A' for Active; 'I' for Inactive)
REMARK    1  A    between atoms: C_1  and  C_2
REMARK    2  A    between atoms: C_2  and  C_3
REMARK    3  A    between atoms: C_2  and  C_4
REMARK    4  A    between atoms: C_4  and  C_5
REMARK    5  A    between atoms: C_5  and  N_6
REMARK    6  A    between atoms: C_5  and  C_14
REMARK    7  A    between atoms: C_7  and  C_9
REMARK    8  A    between atoms: C_20  and  C_21
REMARK                            x       y       z     vdW  Elec       q    Type
REMARK                         _______ _______ _______ _____ _____    ______ ____
ROOT
ATOM      1  C   UNL     1       3.858   6.387  18.269  0.00  0.00    +0.000 C 
ENDROOT
BRANCH   1   2
ATOM      2  C   UNL     1       4.091   5.180  19.215  0.00  0.00    +0.000 C 
ATOM      3  O   UNL     1       5.133   5.068  19.869  0.00  0.00    +0.000 OA
ATOM      4  N   UNL     1       3.112   4.214  19.332  0.00  0.00    +0.000 N 
ATOM      5  C   UNL     1       1.865   4.081  18.603  0.00  0.00    +0.000 C 
ATOM      6  C   UNL     1       0.919   3.506  19.642  0.00  0.00    +0.000 C 
ATOM      7  C   UNL     1       1.804   2.557  20.446  0.00  0.00    +0.000 C 
ATOM      8  C   UNL     1       3.224   3.142  20.334  0.00  0.00    +0.000 C 
BRANCH   8   9
ATOM      9  C   UNL     1       4.227   2.025  19.950  0.00  0.00    +0.000 C 
ATOM     10  N   UNL     1       4.056   1.444  18.727  0.00  0.00    +0.000 N 
ATOM     11  O   UNL     1       5.213   1.740  20.620  0.00  0.00    +0.000 OA
ATOM     12  H   UNL     1       3.573   1.991  18.014  0.00  0.00    +0.000 HD
ATOM     13  H   UNL     1       4.809   0.850  18.407  0.00  0.00    +0.000 HD
ENDBRANCH   8   9
ENDBRANCH   1   2
BRANCH   1  14
ATOM     14  N   UNL     1       4.289   6.032  16.906  0.00  0.00    +0.000 N 
ATOM     15  C   UNL     1       5.598   6.120  16.472  0.00  0.00    +0.000 C 
ATOM     16  O   UNL     1       6.511   6.605  17.133  0.00  0.00    +0.000 OA
ATOM     17  H   UNL     1       3.703   5.435  16.326  0.00  0.00    +0.000 HD
BRANCH  15  18
ATOM     18  C   UNL     1       5.838   5.646  15.033  0.00  0.00    +0.000 C 
ATOM     19  C   UNL     1       5.347   4.228  14.818  0.00  0.00    +0.000 C 
ATOM     20  C   UNL     1       6.077   3.812  13.558  0.00  0.00    +0.000 C 
ATOM     21  C   UNL     1       7.389   4.584  13.604  0.00  0.00    +0.000 C 
ATOM     22  N   UNL     1       7.284   5.550  14.709  0.00  0.00    +0.000 NA
ATOM     23  H   UNL     1       7.610   6.466  14.393  0.00  0.00    +0.000 HD
ENDBRANCH  15  18
ENDBRANCH   1  14
BRANCH   1  24
ATOM     24  C   UNL     1       2.397   6.895  18.301  0.00  0.00    +0.000 C 
BRANCH  24  26
ATOM     25  C   UNL     1       1.326   9.207  17.958  0.00  0.00    +0.000 C 
ATOM     26  C   UNL     1       2.171   8.319  18.869  0.00  0.00    +0.000 C 
ATOM     27  C   UNL     1       1.503   8.221  20.247  0.00  0.00    +0.000 C 
ENDBRANCH  24  26
ENDBRANCH   1  24
TORSDOF 6
ENDMDL
MODEL 3
REMARK VINA RESULT:      -7.7      2.797      5.882
REMARK  Name = 
REMARK  8 active torsions:
REMARK  status: ('A' for Active; 'I' for Inactive)
REMARK    1  A    between atoms: C_1  and  C_2
REMARK    2  A    between atoms: C_2  and  C_3
REMARK    3  A    between atoms: C_2  and  C_4
REMARK    4  A    between atoms: C_4  and  C_5
REMARK    5  A    between atoms: C_5  and  N_6
REMARK    6  A    between atoms: C_5  and  C_14
REMARK    7  A    between atoms: C_7  and  C_9
REMARK    8  A    between atoms: C_20  and  C_21
REMARK                            x       y       z     vdW  Elec       q    Type
REMARK                         _______ _______ _______ _____ _____    ______ ____
ROOT
ATOM      1  C   UNL     1       3.260   6.435  18.042  0.00  0.00    +0.000 C 
ENDROOT
BRANCH   1   2
ATOM      2  C   UNL     1       3.575   5.175  18.890  0.00  0.00    +0.000 C 
ATOM      3  O   UNL     1       4.601   5.105  19.576  0.00  0.00    +0.000 OA
ATOM      4  N   UNL     1       2.693   4.115  18.881  0.00  0.00    +0.000 N 
ATOM      5  C   UNL     1       1.490   3.931  18.091  0.00  0.00    +0.000 C 
ATOM      6  C   UNL     1       0.570   3.180  19.035  0.00  0.00    +0.000 C 
ATOM      7  C   UNL     1       1.514   2.250  19.792  0.00  0.00    +0.000 C 
ATOM      8  C   UNL     1       2.873   2.974  19.792  0.00  0.00    +0.000 C 
BRANCH   8   9
ATOM      9  C   UNL     1       3.993   1.994  19.357  0.00  0.00    +0.000 C 
ATOM     10  N   UNL     1       5.127   1.986  20.117  0.00  0.00    +0.000 N 
ATOM     11  O   UNL     1       3.857   1.161  18.468  0.00  0.00    +0.000 OA
ATOM     12  H   UNL     1       5.042   2.300  21.084  0.00  0.00    +0.000 HD
ATOM     13  H   UNL     1       5.774   1.229  19.942  0.00  0.00    +0.000 HD
ENDBRANCH   8   9
ENDBRANCH   1   2
BRANCH   1  14
ATOM     14  N   UNL     1       2.650   7.465  18.902  0.00  0.00    +0.000 N 
ATOM     15  C   UNL     1       1.966   8.561  18.412  0.00  0.00    +0.000 C 
ATOM     16  O   UNL     1       1.891   8.850  17.222  0.00  0.00    +0.000 OA
ATOM     17  H   UNL     1       2.453   7.261  19.880  0.00  0.00    +0.000 HD
BRANCH  15  18
ATOM     18  C   UNL     1       1.360   9.479  19.481  0.00  0.00    +0.000 C 
ATOM     19  C   UNL     1       0.937   8.706  20.713  0.00  0.00    +0.000 C 
ATOM     20  C   UNL     1      -0.018   9.665  21.394  0.00  0.00    +0.000 C 
ATOM     21  C   UNL     1      -0.650  10.449  20.252  0.00  0.00    +0.000 C 
ATOM     22  N   UNL     1       0.091  10.104  19.028  0.00  0.00    +0.000 NA
ATOM     23  H   UNL     1       0.312  10.959  18.512  0.00  0.00    +0.000 HD
ENDBRANCH  15  18
ENDBRANCH   1  14
BRANCH   1  24
ATOM     24  C   UNL     1       4.500   6.971  17.287  0.00  0.00    +0.000 C 
BRANCH  24  26
ATOM     25  C   UNL     1       5.380   5.686  15.243  0.00  0.00    +0.000 C 
ATOM     26  C   UNL     1       5.493   5.912  16.749  0.00  0.00    +0.000 C 
ATOM     27  C   UNL     1       6.928   6.332  17.094  0.00  0.00    +0.000 C 
ENDBRANCH  24  26
ENDBRANCH   1  24
TORSDOF 6
ENDMDL
MODEL 4
REMARK VINA RESULT:      -7.7      2.625      6.666
REMARK  Name = 
REMARK  8 active torsions:
REMARK  status: ('A' for Active; 'I' for Inactive)
REMARK    1  A    between atoms: C_1  and  C_2
REMARK    2  A    between atoms: C_2  and  C_3
REMARK    3  A    between atoms: C_2  and  C_4
REMARK    4  A    between atoms: C_4  and  C_5
REMARK    5  A    between atoms: C_5  and  N_6
REMARK    6  A    between atoms: C_5  and  C_14
REMARK    7  A    between atoms: C_7  and  C_9
REMARK    8  A    between atoms: C_20  and  C_21
REMARK                            x       y       z     vdW  Elec       q    Type
REMARK                         _______ _______ _______ _____ _____    ______ ____
ROOT
ATOM      1  C   UNL     1       3.216   4.883  19.112  0.00  0.00    +0.000 C 
ENDROOT
BRANCH   1   2
ATOM      2  C   UNL     1       4.760   4.807  18.987  0.00  0.00    +0.000 C 
ATOM      3  O   UNL     1       5.439   4.175  19.803  0.00  0.00    +0.000 OA
ATOM      4  N   UNL     1       5.387   5.455  17.942  0.00  0.00    +0.000 N 
ATOM      5  C   UNL     1       4.818   6.325  16.931  0.00  0.00    +0.000 C 
ATOM      6  C   UNL     1       5.646   6.009  15.699  0.00  0.00    +0.000 C 
ATOM      7  C   UNL     1       7.047   5.779  16.258  0.00  0.00    +0.000 C 
ATOM      8  C   UNL     1       6.826   5.275  17.696  0.00  0.00    +0.000 C 
BRANCH   8   9
ATOM      9  C   UNL     1       7.734   6.061  18.676  0.00  0.00    +0.000 C 
ATOM     10  N   UNL     1       8.205   5.374  19.758  0.00  0.00    +0.000 N 
ATOM     11  O   UNL     1       8.140   7.197  18.461  0.00  0.00    +0.000 OA
ATOM     12  H   UNL     1       8.268   4.359  19.675  0.00  0.00    +0.000 HD
ATOM     13  H   UNL     1       8.932   5.830  20.292  0.00  0.00    +0.000 HD
ENDBRANCH   8   9
ENDBRANCH   1   2
BRANCH   1  14
ATOM     14  N   UNL     1       2.815   6.272  19.399  0.00  0.00    +0.000 N 
ATOM     15  C   UNL     1       1.886   6.615  20.363  0.00  0.00    +0.000 C 
ATOM     16  O   UNL     1       1.221   5.802  20.997  0.00  0.00    +0.000 OA
ATOM     17  H   UNL     1       3.413   7.044  19.111  0.00  0.00    +0.000 HD
BRANCH  15  18
ATOM     18  C   UNL     1       1.659   8.121  20.539  0.00  0.00    +0.000 C 
ATOM     19  C   UNL     1       0.378   8.413  21.294  0.00  0.00    +0.000 C 
ATOM     20  C   UNL     1       0.113   9.864  20.950  0.00  0.00    +0.000 C 
ATOM     21  C   UNL     1       0.692  10.037  19.553  0.00  0.00    +0.000 C 
ATOM     22  N   UNL     1       1.444   8.811  19.240  0.00  0.00    +0.000 NA
ATOM     23  H   UNL     1       2.354   9.060  18.847  0.00  0.00    +0.000 HD
ENDBRANCH  15  18
ENDBRANCH   1  14
BRANCH   1  24
ATOM     24  C   UNL     1       2.489   4.316  17.869  0.00  0.00    +0.000 C 
BRANCH  24  26
ATOM     25  C   UNL     1       3.084   1.835  18.185  0.00  0.00    +0.000 C 
ATOM     26  C   UNL     1       1.972   2.860  17.974  0.00  0.00    +0.000 C 
ATOM     27  C   UNL     1       0.960   2.757  19.124  0.00  0.00    +0.000 C 
ENDBRANCH  24  26
ENDBRANCH   1  24
TORSDOF 6
ENDMDL
MODEL 5
REMARK VINA RESULT:      -7.6      2.109      2.899
REMARK  Name = 
REMARK  8 active torsions:
REMARK  status: ('A' for Active; 'I' for Inactive)
REMARK    1  A    between atoms: C_1  and  C_2
REMARK    2  A    between atoms: C_2  and  C_3
REMARK    3  A    between atoms: C_2  and  C_4
REMARK    4  A    between atoms: C_4  and  C_5
REMARK    5  A    between atoms: C_5  and  N_6
REMARK    6  A    between atoms: C_5  and  C_14
REMARK    7  A    between atoms: C_7  and  C_9
REMARK    8  A    between atoms: C_20  and  C_21
REMARK                            x       y       z     vdW  Elec       q    Type
REMARK                         _______ _______ _______ _____ _____    ______ ____
ROOT
ATOM      1  C   UNL     1       5.545   5.661  17.336  0.00  0.00    +0.000 C 
ENDROOT
BRANCH   1   2
ATOM      2  C   UNL     1       4.136   5.658  17.986  0.00  0.00    +0.000 C 
ATOM      3  O   UNL     1       3.524   6.712  18.195  0.00  0.00    +0.000 OA
ATOM      4  N   UNL     1       3.554   4.457  18.334  0.00  0.00    +0.000 N 
ATOM      5  C   UNL     1       4.110   3.119  18.275  0.00  0.00    +0.000 C 
ATOM      6  C   UNL     1       2.911   2.263  17.913  0.00  0.00    +0.000 C 
ATOM      7  C   UNL     1       1.760   2.918  18.672  0.00  0.00    +0.000 C 
ATOM      8  C   UNL     1       2.160   4.400  18.802  0.00  0.00    +0.000 C 
BRANCH   8   9
ATOM      9  C   UNL     1       1.969   4.871  20.266  0.00  0.00    +0.000 C 
ATOM     10  N   UNL     1       2.241   3.958  21.244  0.00  0.00    +0.000 N 
ATOM     11  O   UNL     1       1.719   6.031  20.578  0.00  0.00    +0.000 OA
ATOM     12  H   UNL     1       2.885   3.203  21.009  0.00  0.00    +0.000 HD
ATOM     13  H   UNL     1       2.290   4.317  22.187  0.00  0.00    +0.000 HD
ENDBRANCH   8   9
ENDBRANCH   1   2
BRANCH   1  14
ATOM     14  N   UNL     1       5.494   4.936  16.054  0.00  0.00    +0.000 N 
ATOM     15  C   UNL     1       6.601   4.363  15.458  0.00  0.00    +0.000 C 
ATOM     16  O   UNL     1       7.749   4.491  15.871  0.00  0.00    +0.000 OA
ATOM     17  H   UNL     1       4.607   4.577  15.706  0.00  0.00    +0.000 HD
BRANCH  15  18
ATOM     18  C   UNL     1       6.316   3.605  14.154  0.00  0.00    +0.000 C 
ATOM     19  C   UNL     1       7.208   4.077  13.024  0.00  0.00    +0.000 C 
ATOM     20  C   UNL     1       6.475   3.580  11.794  0.00  0.00    +0.000 C 
ATOM     21  C   UNL     1       5.005   3.605  12.191  0.00  0.00    +0.000 C 
ATOM     22  N   UNL     1       4.951   3.875  13.636  0.00  0.00    +0.000 NA
ATOM     23  H   UNL     1       4.298   3.225  14.080  0.00  0.00    +0.000 HD
ENDBRANCH  15  18
ENDBRANCH   1  14
BRANCH   1  24
ATOM     24  C   UNL     1       6.122   7.087  17.173  0.00  0.00    +0.000 C 
BRANCH  24  26
ATOM     25  C   UNL     1       7.969   8.735  17.868  0.00  0.00    +0.000 C 
ATOM     26  C   UNL     1       7.607   7.282  17.567  0.00  0.00    +0.000 C 
ATOM     27  C   UNL     1       7.932   6.413  18.790  0.00  0.00    +0.000 C 
ENDBRANCH  24  26
ENDBRANCH   1  24
TORSDOF 6
ENDMDL
MODEL 6
REMARK VINA RESULT:      -7.6      2.965      6.720
REMARK  Name = 
REMARK  8 active torsions:
REMARK  status: ('A' for Active; 'I' for Inactive)
REMARK    1  A    between atoms: C_1  and  C_2
REMARK    2  A    between atoms: C_2  and  C_3
REMARK    3  A    between atoms: C_2  and  C_4
REMARK    4  A    between atoms: C_4  and  C_5
REMARK    5  A    between atoms: C_5  and  N_6
REMARK    6  A    between atoms: C_5  and  C_14
REMARK    7  A    between atoms: C_7  and  C_9
REMARK    8  A    between atoms: C_20  and  C_21
REMARK                            x       y       z     vdW  Elec       q    Type
REMARK                         _______ _______ _______ _____ _____    ______ ____
ROOT
ATOM      1  C   UNL     1       2.948   6.354  18.453  0.00  0.00    +0.000 C 
ENDROOT
BRANCH   1   2
ATOM      2  C   UNL     1       4.198   6.398  17.535  0.00  0.00    +0.000 C 
ATOM      3  O   UNL     1       4.156   6.930  16.420  0.00  0.00    +0.000 OA
ATOM      4  N   UNL     1       5.379   5.835  17.973  0.00  0.00    +0.000 N 
ATOM      5  C   UNL     1       5.640   5.081  19.184  0.00  0.00    +0.000 C 
ATOM      6  C   UNL     1       7.056   5.490  19.545  0.00  0.00    +0.000 C 
ATOM      7  C   UNL     1       7.747   5.625  18.190  0.00  0.00    +0.000 C 
ATOM      8  C   UNL     1       6.623   5.996  17.204  0.00  0.00    +0.000 C 
BRANCH   8   9
ATOM      9  C   UNL     1       6.706   5.095  15.947  0.00  0.00    +0.000 C 
ATOM     10  N   UNL     1       7.528   5.518  14.943  0.00  0.00    +0.000 N 
ATOM     11  O   UNL     1       6.182   3.988  15.870  0.00  0.00    +0.000 OA
ATOM     12  H   UNL     1       8.294   6.142  15.200  0.00  0.00    +0.000 HD
ATOM     13  H   UNL     1       7.718   4.848  14.210  0.00  0.00    +0.000 HD
ENDBRANCH   8   9
ENDBRANCH   1   2
BRANCH   1  14
ATOM     14  N   UNL     1       2.243   7.647  18.384  0.00  0.00    +0.000 N 
ATOM     15  C   UNL     1       1.751   8.308  19.493  0.00  0.00    +0.000 C 
ATOM     16  O   UNL     1       1.750   7.841  20.627  0.00  0.00    +0.000 OA
ATOM     17  H   UNL     1       2.348   8.240  17.563  0.00  0.00    +0.000 HD
BRANCH  15  18
ATOM     18  C   UNL     1       1.103   9.667  19.203  0.00  0.00    +0.000 C 
ATOM     19  C   UNL     1       0.037  10.012  20.224  0.00  0.00    +0.000 C 
ATOM     20  C   UNL     1      -0.761  11.089  19.519  0.00  0.00    +0.000 C 
ATOM     21  C   UNL     1      -0.650  10.740  18.041  0.00  0.00    +0.000 C 
ATOM     22  N   UNL     1       0.350   9.667  17.923  0.00  0.00    +0.000 NA
ATOM     23  H   UNL     1       0.997   9.887  17.162  0.00  0.00    +0.000 HD
ENDBRANCH  15  18
ENDBRANCH   1  14
BRANCH   1  24
ATOM     24  C   UNL     1       2.012   5.166  18.128  0.00  0.00    +0.000 C 
BRANCH  24  26
ATOM     25  C   UNL     1       1.686   4.415  20.564  0.00  0.00    +0.000 C 
ATOM     26  C   UNL     1       2.012   3.989  19.134  0.00  0.00    +0.000 C 
ATOM     27  C   UNL     1       1.004   2.924  18.679  0.00  0.00    +0.000 C 
ENDBRANCH  24  26
ENDBRANCH   1  24
TORSDOF 6
ENDMDL
MODEL 7
REMARK VINA RESULT:      -7.6      2.314      3.139
REMARK  Name = 
REMARK  8 active torsions:
REMARK  status: ('A' for Active; 'I' for Inactive)
REMARK    1  A    between atoms: C_1  and  C_2
REMARK    2  A    between atoms: C_2  and  C_3
REMARK    3  A    between atoms: C_2  and  C_4
REMARK    4  A    between atoms: C_4  and  C_5
REMARK    5  A    between atoms: C_5  and  N_6
REMARK    6  A    between atoms: C_5  and  C_14
REMARK    7  A    between atoms: C_7  and  C_9
REMARK    8  A    between atoms: C_20  and  C_21
REMARK                            x       y       z     vdW  Elec       q    Type
REMARK                         _______ _______ _______ _____ _____    ______ ____
ROOT
ATOM      1  C   UNL     1       5.499   6.160  17.348  0.00  0.00    +0.000 C 
ENDROOT
BRANCH   1   2
ATOM      2  C   UNL     1       4.052   6.009  17.888  0.00  0.00    +0.000 C 
ATOM      3  O   UNL     1       3.346   6.997  18.116  0.00  0.00    +0.000 OA
ATOM      4  N   UNL     1       3.543   4.746  18.115  0.00  0.00    +0.000 N 
ATOM      5  C   UNL     1       4.207   3.460  18.014  0.00  0.00    +0.000 C 
ATOM      6  C   UNL     1       3.107   2.544  17.509  0.00  0.00    +0.000 C 
ATOM      7  C   UNL     1       1.857   3.060  18.218  0.00  0.00    +0.000 C 
ATOM      8  C   UNL     1       2.129   4.554  18.471  0.00  0.00    +0.000 C 
BRANCH   8   9
ATOM      9  C   UNL     1       1.799   4.909  19.943  0.00  0.00    +0.000 C 
ATOM     10  N   UNL     1       2.585   5.854  20.536  0.00  0.00    +0.000 N 
ATOM     11  O   UNL     1       0.812   4.487  20.537  0.00  0.00    +0.000 OA
ATOM     12  H   UNL     1       3.058   6.519  19.923  0.00  0.00    +0.000 HD
ATOM     13  H   UNL     1       2.260   6.210  21.424  0.00  0.00    +0.000 HD
ENDBRANCH   8   9
ENDBRANCH   1   2
BRANCH   1  14
ATOM     14  N   UNL     1       5.519   5.852  15.907  0.00  0.00    +0.000 N 
ATOM     15  C   UNL     1       6.491   5.075  15.307  0.00  0.00    +0.000 C 
ATOM     16  O   UNL     1       7.491   4.657  15.883  0.00  0.00    +0.000 OA
ATOM     17  H   UNL     1       4.671   5.949  15.354  0.00  0.00    +0.000 HD
BRANCH  15  18
ATOM     18  C   UNL     1       6.292   4.830  13.806  0.00  0.00    +0.000 C 
ATOM     19  C   UNL     1       6.044   3.367  13.502  0.00  0.00    +0.000 C 
ATOM     20  C   UNL     1       6.344   3.281  12.019  0.00  0.00    +0.000 C 
ATOM     21  C   UNL     1       7.408   4.344  11.783  0.00  0.00    +0.000 C 
ATOM     22  N   UNL     1       7.517   5.131  13.021  0.00  0.00    +0.000 NA
ATOM     23  H   UNL     1       7.522   6.127  12.792  0.00  0.00    +0.000 HD
ENDBRANCH  15  18
ENDBRANCH   1  14
BRANCH   1  24
ATOM     24  C   UNL     1       6.105   7.551  17.652  0.00  0.00    +0.000 C 
BRANCH  24  26
ATOM     25  C   UNL     1       8.170   9.046  17.982  0.00  0.00    +0.000 C 
ATOM     26  C   UNL     1       7.650   7.637  17.703  0.00  0.00    +0.000 C 
ATOM     27  C   UNL     1       8.182   6.676  18.775  0.00  0.00    +0.000 C 
ENDBRANCH  24  26
ENDBRANCH   1  24
TORSDOF 6
ENDMDL
MODEL 8
REMARK VINA RESULT:      -7.5      2.082      3.432
REMARK  Name = 
REMARK  8 active torsions:
REMARK  status: ('A' for Active; 'I' for Inactive)
REMARK    1  A    between atoms: C_1  and  C_2
REMARK    2  A    between atoms: C_2  and  C_3
REMARK    3  A    between atoms: C_2  and  C_4
REMARK    4  A    between atoms: C_4  and  C_5
REMARK    5  A    between atoms: C_5  and  N_6
REMARK    6  A    between atoms: C_5  and  C_14
REMARK    7  A    between atoms: C_7  and  C_9
REMARK    8  A    between atoms: C_20  and  C_21
REMARK                            x       y       z     vdW  Elec       q    Type
REMARK                         _______ _______ _______ _____ _____    ______ ____
ROOT
ATOM      1  C   UNL     1       5.863   4.190  16.480  0.00  0.00    +0.000 C 
ENDROOT
BRANCH   1   2
ATOM      2  C   UNL     1       4.584   4.903  16.993  0.00  0.00    +0.000 C 
ATOM      3  O   UNL     1       4.394   6.107  16.786  0.00  0.00    +0.000 OA
ATOM      4  N   UNL     1       3.640   4.179  17.692  0.00  0.00    +0.000 N 
ATOM      5  C   UNL     1       3.689   2.798  18.134  0.00  0.00    +0.000 C 
ATOM      6  C   UNL     1       2.246   2.345  18.006  0.00  0.00    +0.000 C 
ATOM      7  C   UNL     1       1.445   3.579  18.412  0.00  0.00    +0.000 C 
ATOM      8  C   UNL     1       2.345   4.776  18.054  0.00  0.00    +0.000 C 
BRANCH   8   9
ATOM      9  C   UNL     1       2.420   5.758  19.250  0.00  0.00    +0.000 C 
ATOM     10  N   UNL     1       2.534   7.084  18.948  0.00  0.00    +0.000 N 
ATOM     11  O   UNL     1       2.254   5.419  20.417  0.00  0.00    +0.000 OA
ATOM     12  H   UNL     1       2.192   7.385  18.035  0.00  0.00    +0.000 HD
ATOM     13  H   UNL     1       2.402   7.729  19.715  0.00  0.00    +0.000 HD
ENDBRANCH   8   9
ENDBRANCH   1   2
BRANCH   1  14
ATOM     14  N   UNL     1       5.698   3.852  15.056  0.00  0.00    +0.000 N 
ATOM     15  C   UNL     1       6.423   4.447  14.041  0.00  0.00    +0.000 C 
ATOM     16  O   UNL     1       7.192   5.388  14.205  0.00  0.00    +0.000 OA
ATOM     17  H   UNL     1       5.263   2.971  14.789  0.00  0.00    +0.000 HD
BRANCH  15  18
ATOM     18  C   UNL     1       6.135   3.906  12.635  0.00  0.00    +0.000 C 
ATOM     19  C   UNL     1       4.648   3.775  12.375  0.00  0.00    +0.000 C 
ATOM     20  C   UNL     1       4.600   2.826  11.195  0.00  0.00    +0.000 C 
ATOM     21  C   UNL     1       5.822   1.936  11.371  0.00  0.00    +0.000 C 
ATOM     22  N   UNL     1       6.628   2.516  12.457  0.00  0.00    +0.000 NA
ATOM     23  H   UNL     1       7.609   2.550  12.173  0.00  0.00    +0.000 HD
ENDBRANCH  15  18
ENDBRANCH   1  14
BRANCH   1  24
ATOM     24  C   UNL     1       7.147   5.016  16.734  0.00  0.00    +0.000 C 
BRANCH  24  26
ATOM     25  C   UNL     1       7.910   5.586  19.122  0.00  0.00    +0.000 C 
ATOM     26  C   UNL     1       7.099   6.028  17.906  0.00  0.00    +0.000 C 
ATOM     27  C   UNL     1       7.607   7.394  17.425  0.00  0.00    +0.000 C 
ENDBRANCH  24  26
ENDBRANCH   1  24
TORSDOF 6
ENDMDL
MODEL 9
REMARK VINA RESULT:      -7.4      2.333      6.219
REMARK  Name = 
REMARK  8 active torsions:
REMARK  status: ('A' for Active; 'I' for Inactive)
REMARK    1  A    between atoms: C_1  and  C_2
REMARK    2  A    between atoms: C_2  and  C_3
REMARK    3  A    between atoms: C_2  and  C_4
REMARK    4  A    between atoms: C_4  and  C_5
REMARK    5  A    between atoms: C_5  and  N_6
REMARK    6  A    between atoms: C_5  and  C_14
REMARK    7  A    between atoms: C_7  and  C_9
REMARK    8  A    between atoms: C_20  and  C_21
REMARK                            x       y       z     vdW  Elec       q    Type
REMARK                         _______ _______ _______ _____ _____    ______ ____
ROOT
ATOM      1  C   UNL     1       3.642   5.023  19.595  0.00  0.00    +0.000 C 
ENDROOT
BRANCH   1   2
ATOM      2  C   UNL     1       5.131   5.135  19.174  0.00  0.00    +0.000 C 
ATOM      3  O   UNL     1       6.034   5.174  20.016  0.00  0.00    +0.000 OA
ATOM      4  N   UNL     1       5.453   5.189  17.833  0.00  0.00    +0.000 N 
ATOM      5  C   UNL     1       4.573   5.255  16.682  0.00  0.00    +0.000 C 
ATOM      6  C   UNL     1       5.316   4.448  15.634  0.00  0.00    +0.000 C 
ATOM      7  C   UNL     1       6.781   4.789  15.891  0.00  0.00    +0.000 C 
ATOM      8  C   UNL     1       6.855   5.133  17.390  0.00  0.00    +0.000 C 
BRANCH   8   9
ATOM      9  C   UNL     1       7.629   6.461  17.589  0.00  0.00    +0.000 C 
ATOM     10  N   UNL     1       8.216   6.650  18.807  0.00  0.00    +0.000 N 
ATOM     11  O   UNL     1       7.842   7.264  16.687  0.00  0.00    +0.000 OA
ATOM     12  H   UNL     1       8.444   5.816  19.349  0.00  0.00    +0.000 HD
ATOM     13  H   UNL     1       8.864   7.423  18.874  0.00  0.00    +0.000 HD
ENDBRANCH   8   9
ENDBRANCH   1   2
BRANCH   1  14
ATOM     14  N   UNL     1       2.894   6.177  19.065  0.00  0.00    +0.000 N 
ATOM     15  C   UNL     1       2.085   6.983  19.841  0.00  0.00    +0.000 C 
ATOM     16  O   UNL     1       1.816   6.760  21.017  0.00  0.00    +0.000 OA
ATOM     17  H   UNL     1       3.171   6.600  18.181  0.00  0.00    +0.000 HD
BRANCH  15  18
ATOM     18  C   UNL     1       1.444   8.165  19.102  0.00  0.00    +0.000 C 
ATOM     19  C   UNL     1       2.380   8.755  18.066  0.00  0.00    +0.000 C 
ATOM     20  C   UNL     1       1.778  10.122  17.815  0.00  0.00    +0.000 C 
ATOM     21  C   UNL     1       1.137  10.506  19.142  0.00  0.00    +0.000 C 
ATOM     22  N   UNL     1       1.180   9.314  20.005  0.00  0.00    +0.000 NA
ATOM     23  H   UNL     1       0.268   9.180  20.447  0.00  0.00    +0.000 HD
ENDBRANCH  15  18
ENDBRANCH   1  14
BRANCH   1  24
ATOM     24  C   UNL     1       3.005   3.677  19.174  0.00  0.00    +0.000 C 
BRANCH  24  26
ATOM     25  C   UNL     1       0.834   2.372  18.735  0.00  0.00    +0.000 C 
ATOM     26  C   UNL     1       1.517   3.468  19.551  0.00  0.00    +0.000 C 
ATOM     27  C   UNL     1       1.409   3.132  21.045  0.00  0.00    +0.000 C 
ENDBRANCH  24  26
ENDBRANCH   1  24
TORSDOF 6
ENDMDL
