MODEL 1
REMARK VINA RESULT:      -8.8      0.000      0.000
REMARK  Name = 
REMARK  8 active torsions:
REMARK  status: ('A' for Active; 'I' for Inactive)
REMARK    1  A    between atoms: C_1  and  O_2
REMARK    2  A    between atoms: O_2  and  C_3
REMARK    3  A    between atoms: C_6  and  C_7
REMARK    4  A    between atoms: C_7  and  N_8
REMARK    5  A    between atoms: C_13  and  C_14
REMARK    6  A    between atoms: C_15  and  C_16
REMARK    7  A    between atoms: N_18  and  C_19
REMARK    8  A    between atoms: C_19  and  C_20
REMARK                            x       y       z     vdW  Elec       q    Type
REMARK                         _______ _______ _______ _____ _____    ______ ____
ROOT
ATOM      1  N   UNL     1       2.848   6.268  18.983  0.00  0.00    +0.000 N 
ATOM      2  C   UNL     1       2.966   7.116  17.892  0.00  0.00    +0.000 A 
ATOM      3  C   UNL     1       2.427   8.337  17.880  0.00  0.00    +0.000 A 
ATOM      4  C   UNL     1       1.712   8.810  19.054  0.00  0.00    +0.000 A 
ATOM      5  N   UNL     1       1.259  10.082  19.017  0.00  0.00    +0.000 NA
ATOM      6  C   UNL     1       0.637  10.581  20.128  0.00  0.00    +0.000 A 
ATOM      7  C   UNL     1       0.186  12.005  19.987  0.00  0.00    +0.000 C 
ATOM      8  C   UNL     1       0.464   9.819  21.297  0.00  0.00    +0.000 A 
ATOM      9  C   UNL     1       0.909   8.490  21.283  0.00  0.00    +0.000 A 
ATOM     10  C   UNL     1       1.555   7.987  20.154  0.00  0.00    +0.000 A 
ATOM     11  C   UNL     1       2.128   6.623  20.128  0.00  0.00    +0.000 A 
ATOM     12  O   UNL     1       1.982   5.901  21.111  0.00  0.00    +0.000 OA
ENDROOT
BRANCH   8  13
ATOM     13  C   UNL     1      -0.183  10.366  22.531  0.00  0.00    +0.000 C 
ATOM     14  O   UNL     1       0.115   9.937  23.635  0.00  0.00    +0.000 OA
ATOM     15  N   UNL     1      -1.118  11.366  22.333  0.00  0.00    +0.000 N 
ATOM     16  H   UNL     1      -1.401  11.636  21.402  0.00  0.00    +0.000 HD
BRANCH  15  17
ATOM     17  C   UNL     1      -1.782  12.054  23.425  0.00  0.00    +0.000 C 
BRANCH  17  18
ATOM     18  C   UNL     1      -3.202  12.420  23.057  0.00  0.00    +0.000 A 
ATOM     19  C   UNL     1      -4.188  12.591  24.043  0.00  0.00    +0.000 A 
ATOM     20  C   UNL     1      -5.492  12.947  23.685  0.00  0.00    +0.000 A 
ATOM     21  C   UNL     1      -5.813  13.130  22.345  0.00  0.00    +0.000 A 
ATOM     22  F   UNL     1      -7.063  13.471  22.006  0.00  0.00    +0.000 F 
ATOM     23  C   UNL     1      -4.854  12.970  21.355  0.00  0.00    +0.000 A 
ATOM     24  C   UNL     1      -3.549  12.618  21.709  0.00  0.00    +0.000 A 
ENDBRANCH  17  18
ENDBRANCH  15  17
ENDBRANCH   8  13
BRANCH   1  25
ATOM     25  C   UNL     1       3.544   4.981  18.971  0.00  0.00    +0.000 C 
BRANCH  25  29
ATOM     26  C   UNL     1       6.805   4.903  16.130  0.00  0.00    +0.000 A 
ATOM     27  C   UNL     1       5.534   4.466  15.758  0.00  0.00    +0.000 A 
ATOM     28  C   UNL     1       4.481   4.477  16.676  0.00  0.00    +0.000 A 
ATOM     29  C   UNL     1       4.691   4.913  17.990  0.00  0.00    +0.000 A 
ATOM     30  C   UNL     1       5.981   5.307  18.370  0.00  0.00    +0.000 A 
ATOM     31  C   UNL     1       7.031   5.309  17.444  0.00  0.00    +0.000 A 
BRANCH  26  33
ATOM     32  C   UNL     1       7.247   4.852  13.810  0.00  0.00    +0.000 C 
ATOM     33  O   UNL     1       7.750   4.853  15.141  0.00  0.00    +0.000 OA
ENDBRANCH  26  33
ENDBRANCH  25  29
ENDBRANCH   1  25
TORSDOF 6
ENDMDL
MODEL 2
REMARK VINA RESULT:      -8.8      3.634     11.063
REMARK  Name = 
REMARK  8 active torsions:
REMARK  status: ('A' for Active; 'I' for Inactive)
REMARK    1  A    between atoms: C_1  and  O_2
REMARK    2  A    between atoms: O_2  and  C_3
REMARK    3  A    between atoms: C_6  and  C_7
REMARK    4  A    between atoms: C_7  and  N_8
REMARK    5  A    between atoms: C_13  and  C_14
REMARK    6  A    between atoms: C_15  and  C_16
REMARK    7  A    between atoms: N_18  and  C_19
REMARK    8  A    between atoms: C_19  and  C_20
REMARK                            x       y       z     vdW  Elec       q    Type
REMARK                         _______ _______ _______ _____ _____    ______ ____
ROOT
ATOM      1  N   UNL     1      -0.420  11.834  22.066  0.00  0.00    +0.000 N 
ATOM      2  C   UNL     1      -0.318  12.459  20.832  0.00  0.00    +0.000 A 
ATOM      3  C   UNL     1       0.264  11.871  19.784  0.00  0.00    +0.000 A 
ATOM      4  C   UNL     1       0.789  10.523  19.927  0.00  0.00    +0.000 A 
ATOM      5  N   UNL     1       1.293   9.947  18.814  0.00  0.00    +0.000 NA
ATOM      6  C   UNL     1       1.738   8.656  18.897  0.00  0.00    +0.000 A 
ATOM      7  C   UNL     1       2.263   8.108  17.602  0.00  0.00    +0.000 C 
ATOM      8  C   UNL     1       1.680   7.918  20.092  0.00  0.00    +0.000 A 
ATOM      9  C   UNL     1       1.190   8.563  21.236  0.00  0.00    +0.000 A 
ATOM     10  C   UNL     1       0.725   9.874  21.146  0.00  0.00    +0.000 A 
ATOM     11  C   UNL     1       0.110  10.562  22.304  0.00  0.00    +0.000 A 
ATOM     12  O   UNL     1       0.059   9.976  23.382  0.00  0.00    +0.000 OA
ENDROOT
BRANCH   8  13
ATOM     13  C   UNL     1       2.131   6.494  20.185  0.00  0.00    +0.000 C 
ATOM     14  O   UNL     1       1.370   5.622  20.577  0.00  0.00    +0.000 OA
ATOM     15  N   UNL     1       3.438   6.244  19.805  0.00  0.00    +0.000 N 
ATOM     16  H   UNL     1       4.063   7.001  19.568  0.00  0.00    +0.000 HD
BRANCH  15  17
ATOM     17  C   UNL     1       4.008   4.911  19.766  0.00  0.00    +0.000 C 
BRANCH  17  18
ATOM     18  C   UNL     1       4.815   4.699  18.505  0.00  0.00    +0.000 A 
ATOM     19  C   UNL     1       4.189   4.430  17.276  0.00  0.00    +0.000 A 
ATOM     20  C   UNL     1       4.950   4.255  16.117  0.00  0.00    +0.000 A 
ATOM     21  C   UNL     1       6.336   4.346  16.182  0.00  0.00    +0.000 A 
ATOM     22  F   UNL     1       7.061   4.178  15.069  0.00  0.00    +0.000 F 
ATOM     23  C   UNL     1       6.975   4.615  17.384  0.00  0.00    +0.000 A 
ATOM     24  C   UNL     1       6.217   4.794  18.544  0.00  0.00    +0.000 A 
ENDBRANCH  17  18
ENDBRANCH  15  17
ENDBRANCH   8  13
BRANCH   1  25
ATOM     25  C   UNL     1      -1.154  12.494  23.146  0.00  0.00    +0.000 C 
BRANCH  25  29
ATOM     26  C   UNL     1      -5.405  12.776  22.395  0.00  0.00    +0.000 A 
ATOM     27  C   UNL     1      -4.500  12.752  21.334  0.00  0.00    +0.000 A 
ATOM     28  C   UNL     1      -3.126  12.675  21.572  0.00  0.00    +0.000 A 
ATOM     29  C   UNL     1      -2.635  12.635  22.883  0.00  0.00    +0.000 A 
ATOM     30  C   UNL     1      -3.547  12.706  23.946  0.00  0.00    +0.000 A 
ATOM     31  C   UNL     1      -4.924  12.769  23.704  0.00  0.00    +0.000 A 
BRANCH  26  33
ATOM     32  C   UNL     1      -7.657  12.505  23.053  0.00  0.00    +0.000 C 
ATOM     33  O   UNL     1      -6.723  12.844  22.034  0.00  0.00    +0.000 OA
ENDBRANCH  26  33
ENDBRANCH  25  29
ENDBRANCH   1  25
TORSDOF 6
ENDMDL
MODEL 3
REMARK VINA RESULT:      -8.8      3.573     11.047
REMARK  Name = 
REMARK  8 active torsions:
REMARK  status: ('A' for Active; 'I' for Inactive)
REMARK    1  A    between atoms: C_1  and  O_2
REMARK    2  A    between atoms: O_2  and  C_3
REMARK    3  A    between atoms: C_6  and  C_7
REMARK    4  A    between atoms: C_7  and  N_8
REMARK    5  A    between atoms: C_13  and  C_14
REMARK    6  A    between atoms: C_15  and  C_16
REMARK    7  A    between atoms: N_18  and  C_19
REMARK    8  A    between atoms: C_19  and  C_20
REMARK                            x       y       z     vdW  Elec       q    Type
REMARK                         _______ _______ _______ _____ _____    ______ ____
ROOT
ATOM      1  N   UNL     1      -0.885  12.182  22.311  0.00  0.00    +0.000 N 
ATOM      2  C   UNL     1      -0.830  12.850  21.098  0.00  0.00    +0.000 A 
ATOM      3  C   UNL     1      -0.231  12.328  20.025  0.00  0.00    +0.000 A 
ATOM      4  C   UNL     1       0.364  11.005  20.119  0.00  0.00    +0.000 A 
ATOM      5  N   UNL     1       0.884  10.492  18.982  0.00  0.00    +0.000 NA
ATOM      6  C   UNL     1       1.396   9.224  19.018  0.00  0.00    +0.000 A 
ATOM      7  C   UNL     1       1.934   8.746  17.701  0.00  0.00    +0.000 C 
ATOM      8  C   UNL     1       1.391   8.446  20.189  0.00  0.00    +0.000 A 
ATOM      9  C   UNL     1       0.882   9.027  21.359  0.00  0.00    +0.000 A 
ATOM     10  C   UNL     1       0.349  10.315  21.317  0.00  0.00    +0.000 A 
ATOM     11  C   UNL     1      -0.287  10.933  22.502  0.00  0.00    +0.000 A 
ATOM     12  O   UNL     1      -0.296  10.310  23.561  0.00  0.00    +0.000 OA
ENDROOT
BRANCH   8  13
ATOM     13  C   UNL     1       1.915   7.045  20.231  0.00  0.00    +0.000 C 
ATOM     14  O   UNL     1       1.284   6.158  20.785  0.00  0.00    +0.000 OA
ATOM     15  N   UNL     1       3.135   6.835  19.613  0.00  0.00    +0.000 N 
ATOM     16  H   UNL     1       3.668   7.607  19.240  0.00  0.00    +0.000 HD
BRANCH  15  17
ATOM     17  C   UNL     1       3.748   5.524  19.500  0.00  0.00    +0.000 C 
BRANCH  17  18
ATOM     18  C   UNL     1       4.332   5.312  18.121  0.00  0.00    +0.000 A 
ATOM     19  C   UNL     1       4.518   4.020  17.601  0.00  0.00    +0.000 A 
ATOM     20  C   UNL     1       5.043   3.843  16.317  0.00  0.00    +0.000 A 
ATOM     21  C   UNL     1       5.384   4.953  15.553  0.00  0.00    +0.000 A 
ATOM     22  F   UNL     1       5.886   4.779  14.324  0.00  0.00    +0.000 F 
ATOM     23  C   UNL     1       5.204   6.238  16.045  0.00  0.00    +0.000 A 
ATOM     24  C   UNL     1       4.677   6.418  17.326  0.00  0.00    +0.000 A 
ENDBRANCH  17  18
ENDBRANCH  15  17
ENDBRANCH   8  13
BRANCH   1  25
ATOM     25  C   UNL     1      -1.640  12.768  23.420  0.00  0.00    +0.000 C 
BRANCH  25  29
ATOM     26  C   UNL     1      -5.929  12.830  22.860  0.00  0.00    +0.000 A 
ATOM     27  C   UNL     1      -5.385  12.653  24.132  0.00  0.00    +0.000 A 
ATOM     28  C   UNL     1      -4.001  12.618  24.315  0.00  0.00    +0.000 A 
ATOM     29  C   UNL     1      -3.137  12.747  23.221  0.00  0.00    +0.000 A 
ATOM     30  C   UNL     1      -3.690  12.879  21.939  0.00  0.00    +0.000 A 
ATOM     31  C   UNL     1      -5.078  12.927  21.760  0.00  0.00    +0.000 A 
BRANCH  26  33
ATOM     32  C   UNL     1      -7.917  11.661  22.350  0.00  0.00    +0.000 C 
ATOM     33  O   UNL     1      -7.296  12.856  22.810  0.00  0.00    +0.000 OA
ENDBRANCH  26  33
ENDBRANCH  25  29
ENDBRANCH   1  25
TORSDOF 6
ENDMDL
MODEL 4
REMARK VINA RESULT:      -8.7      4.537     11.096
REMARK  Name = 
REMARK  8 active torsions:
REMARK  status: ('A' for Active; 'I' for Inactive)
REMARK    1  A    between atoms: C_1  and  O_2
REMARK    2  A    between atoms: O_2  and  C_3
REMARK    3  A    between atoms: C_6  and  C_7
REMARK    4  A    between atoms: C_7  and  N_8
REMARK    5  A    between atoms: C_13  and  C_14
REMARK    6  A    between atoms: C_15  and  C_16
REMARK    7  A    between atoms: N_18  and  C_19
REMARK    8  A    between atoms: C_19  and  C_20
REMARK                            x       y       z     vdW  Elec       q    Type
REMARK                         _______ _______ _______ _____ _____    ______ ____
ROOT
ATOM      1  N   UNL     1       1.391   9.195  19.207  0.00  0.00    +0.000 N 
ATOM      2  C   UNL     1       0.896   8.683  20.397  0.00  0.00    +0.000 A 
ATOM      3  C   UNL     1       1.203   7.456  20.824  0.00  0.00    +0.000 A 
ATOM      4  C   UNL     1       2.104   6.633  20.034  0.00  0.00    +0.000 A 
ATOM      5  N   UNL     1       2.444   5.434  20.555  0.00  0.00    +0.000 NA
ATOM      6  C   UNL     1       3.338   4.660  19.869  0.00  0.00    +0.000 A 
ATOM      7  C   UNL     1       3.658   3.356  20.541  0.00  0.00    +0.000 C 
ATOM      8  C   UNL     1       3.914   5.074  18.655  0.00  0.00    +0.000 A 
ATOM      9  C   UNL     1       3.504   6.306  18.124  0.00  0.00    +0.000 A 
ATOM     10  C   UNL     1       2.602   7.099  18.832  0.00  0.00    +0.000 A 
ATOM     11  C   UNL     1       2.216   8.448  18.360  0.00  0.00    +0.000 A 
ATOM     12  O   UNL     1       2.665   8.852  17.290  0.00  0.00    +0.000 OA
ENDROOT
BRANCH   8  13
ATOM     13  C   UNL     1       4.920   4.252  17.914  0.00  0.00    +0.000 C 
ATOM     14  O   UNL     1       5.979   3.939  18.438  0.00  0.00    +0.000 OA
ATOM     15  N   UNL     1       4.573   3.881  16.627  0.00  0.00    +0.000 N 
ATOM     16  H   UNL     1       3.729   4.229  16.197  0.00  0.00    +0.000 HD
BRANCH  15  17
ATOM     17  C   UNL     1       5.403   3.024  15.801  0.00  0.00    +0.000 C 
BRANCH  17  18
ATOM     18  C   UNL     1       6.120   3.821  14.735  0.00  0.00    +0.000 A 
ATOM     19  C   UNL     1       6.961   4.895  15.071  0.00  0.00    +0.000 A 
ATOM     20  C   UNL     1       7.629   5.610  14.074  0.00  0.00    +0.000 A 
ATOM     21  C   UNL     1       7.459   5.256  12.740  0.00  0.00    +0.000 A 
ATOM     22  F   UNL     1       8.102   5.943  11.787  0.00  0.00    +0.000 F 
ATOM     23  C   UNL     1       6.636   4.196  12.385  0.00  0.00    +0.000 A 
ATOM     24  C   UNL     1       5.969   3.477  13.380  0.00  0.00    +0.000 A 
ENDBRANCH  17  18
ENDBRANCH  15  17
ENDBRANCH   8  13
BRANCH   1  25
ATOM     25  C   UNL     1       1.094  10.581  18.842  0.00  0.00    +0.000 C 
BRANCH  25  29
ATOM     26  C   UNL     1      -3.107  11.528  18.436  0.00  0.00    +0.000 A 
ATOM     27  C   UNL     1      -2.330  12.165  19.404  0.00  0.00    +0.000 A 
ATOM     28  C   UNL     1      -0.976  11.852  19.547  0.00  0.00    +0.000 A 
ATOM     29  C   UNL     1      -0.382  10.882  18.730  0.00  0.00    +0.000 A 
ATOM     30  C   UNL     1      -1.179  10.212  17.791  0.00  0.00    +0.000 A 
ATOM     31  C   UNL     1      -2.532  10.538  17.640  0.00  0.00    +0.000 A 
BRANCH  26  33
ATOM     32  C   UNL     1      -5.190  11.361  17.335  0.00  0.00    +0.000 C 
ATOM     33  O   UNL     1      -4.415  11.926  18.386  0.00  0.00    +0.000 OA
ENDBRANCH  26  33
ENDBRANCH  25  29
ENDBRANCH   1  25
TORSDOF 6
ENDMDL
MODEL 5
REMARK VINA RESULT:      -8.5      1.303      1.749
REMARK  Name = 
REMARK  8 active torsions:
REMARK  status: ('A' for Active; 'I' for Inactive)
REMARK    1  A    between atoms: C_1  and  O_2
REMARK    2  A    between atoms: O_2  and  C_3
REMARK    3  A    between atoms: C_6  and  C_7
REMARK    4  A    between atoms: C_7  and  N_8
REMARK    5  A    between atoms: C_13  and  C_14
REMARK    6  A    between atoms: C_15  and  C_16
REMARK    7  A    between atoms: N_18  and  C_19
REMARK    8  A    between atoms: C_19  and  C_20
REMARK                            x       y       z     vdW  Elec       q    Type
REMARK                         _______ _______ _______ _____ _____    ______ ____
ROOT
ATOM      1  N   UNL     1       2.246   7.444  19.268  0.00  0.00    +0.000 N 
ATOM      2  C   UNL     1       2.224   7.996  17.997  0.00  0.00    +0.000 A 
ATOM      3  C   UNL     1       1.638   9.169  17.742  0.00  0.00    +0.000 A 
ATOM      4  C   UNL     1       1.024   9.908  18.832  0.00  0.00    +0.000 A 
ATOM      5  N   UNL     1       0.520  11.125  18.532  0.00  0.00    +0.000 NA
ATOM      6  C   UNL     1      -0.010  11.875  19.546  0.00  0.00    +0.000 A 
ATOM      7  C   UNL     1      -0.529  13.213  19.107  0.00  0.00    +0.000 C 
ATOM      8  C   UNL     1      -0.038  11.424  20.877  0.00  0.00    +0.000 A 
ATOM      9  C   UNL     1       0.456  10.139  21.143  0.00  0.00    +0.000 A 
ATOM     10  C   UNL     1       1.007   9.381  20.110  0.00  0.00    +0.000 A 
ATOM     11  C   UNL     1       1.628   8.061  20.361  0.00  0.00    +0.000 A 
ATOM     12  O   UNL     1       1.607   7.604  21.500  0.00  0.00    +0.000 OA
ENDROOT
BRANCH   8  13
ATOM     13  C   UNL     1      -0.582  12.250  22.000  0.00  0.00    +0.000 C 
ATOM     14  O   UNL     1      -0.006  13.263  22.366  0.00  0.00    +0.000 OA
ATOM     15  N   UNL     1      -1.755  11.795  22.576  0.00  0.00    +0.000 N 
ATOM     16  H   UNL     1      -2.157  10.910  22.304  0.00  0.00    +0.000 HD
BRANCH  15  17
ATOM     17  C   UNL     1      -2.453  12.517  23.624  0.00  0.00    +0.000 C 
BRANCH  17  18
ATOM     18  C   UNL     1      -3.910  12.714  23.273  0.00  0.00    +0.000 A 
ATOM     19  C   UNL     1      -4.324  12.864  21.938  0.00  0.00    +0.000 A 
ATOM     20  C   UNL     1      -5.678  13.028  21.631  0.00  0.00    +0.000 A 
ATOM     21  C   UNL     1      -6.619  13.044  22.654  0.00  0.00    +0.000 A 
ATOM     22  F   UNL     1      -7.915  13.201  22.355  0.00  0.00    +0.000 F 
ATOM     23  C   UNL     1      -6.234  12.895  23.979  0.00  0.00    +0.000 A 
ATOM     24  C   UNL     1      -4.882  12.728  24.289  0.00  0.00    +0.000 A 
ENDBRANCH  17  18
ENDBRANCH  15  17
ENDBRANCH   8  13
BRANCH   1  25
ATOM     25  C   UNL     1       2.987   6.203  19.500  0.00  0.00    +0.000 C 
BRANCH  25  29
ATOM     26  C   UNL     1       5.096   4.851  15.973  0.00  0.00    +0.000 A 
ATOM     27  C   UNL     1       4.159   4.025  16.596  0.00  0.00    +0.000 A 
ATOM     28  C   UNL     1       3.486   4.453  17.743  0.00  0.00    +0.000 A 
ATOM     29  C   UNL     1       3.753   5.713  18.293  0.00  0.00    +0.000 A 
ATOM     30  C   UNL     1       4.729   6.519  17.689  0.00  0.00    +0.000 A 
ATOM     31  C   UNL     1       5.391   6.093  16.532  0.00  0.00    +0.000 A 
BRANCH  26  33
ATOM     32  C   UNL     1       7.025   4.727  14.616  0.00  0.00    +0.000 C 
ATOM     33  O   UNL     1       5.681   4.325  14.853  0.00  0.00    +0.000 OA
ENDBRANCH  26  33
ENDBRANCH  25  29
ENDBRANCH   1  25
TORSDOF 6
ENDMDL
MODEL 6
REMARK VINA RESULT:      -8.5      4.408     10.867
REMARK  Name = 
REMARK  8 active torsions:
REMARK  status: ('A' for Active; 'I' for Inactive)
REMARK    1  A    between atoms: C_1  and  O_2
REMARK    2  A    between atoms: O_2  and  C_3
REMARK    3  A    between atoms: C_6  and  C_7
REMARK    4  A    between atoms: C_7  and  N_8
REMARK    5  A    between atoms: C_13  and  C_14
REMARK    6  A    between atoms: C_15  and  C_16
REMARK    7  A    between atoms: N_18  and  C_19
REMARK    8  A    between atoms: C_19  and  C_20
REMARK                            x       y       z     vdW  Elec       q    Type
REMARK                         _______ _______ _______ _____ _____    ______ ____
ROOT
ATOM      1  N   UNL     1       1.118   9.338  19.713  0.00  0.00    +0.000 N 
ATOM      2  C   UNL     1       0.515   8.846  20.860  0.00  0.00    +0.000 A 
ATOM      3  C   UNL     1       0.716   7.598  21.289  0.00  0.00    +0.000 A 
ATOM      4  C   UNL     1       1.615   6.728  20.548  0.00  0.00    +0.000 A 
ATOM      5  N   UNL     1       1.844   5.505  21.073  0.00  0.00    +0.000 NA
ATOM      6  C   UNL     1       2.733   4.683  20.436  0.00  0.00    +0.000 A 
ATOM      7  C   UNL     1       2.926   3.355  21.109  0.00  0.00    +0.000 C 
ATOM      8  C   UNL     1       3.412   5.073  19.268  0.00  0.00    +0.000 A 
ATOM      9  C   UNL     1       3.116   6.333  18.730  0.00  0.00    +0.000 A 
ATOM     10  C   UNL     1       2.219   7.174  19.388  0.00  0.00    +0.000 A 
ATOM     11  C   UNL     1       1.950   8.550  18.911  0.00  0.00    +0.000 A 
ATOM     12  O   UNL     1       2.493   8.935  17.879  0.00  0.00    +0.000 OA
ENDROOT
BRANCH   8  13
ATOM     13  C   UNL     1       4.413   4.197  18.584  0.00  0.00    +0.000 C 
ATOM     14  O   UNL     1       5.423   3.830  19.165  0.00  0.00    +0.000 OA
ATOM     15  N   UNL     1       4.118   3.842  17.279  0.00  0.00    +0.000 N 
ATOM     16  H   UNL     1       3.318   4.233  16.803  0.00  0.00    +0.000 HD
BRANCH  15  17
ATOM     17  C   UNL     1       4.945   2.940  16.500  0.00  0.00    +0.000 C 
BRANCH  17  18
ATOM     18  C   UNL     1       5.794   3.700  15.505  0.00  0.00    +0.000 A 
ATOM     19  C   UNL     1       6.800   4.583  15.932  0.00  0.00    +0.000 A 
ATOM     20  C   UNL     1       7.587   5.264  14.999  0.00  0.00    +0.000 A 
ATOM     21  C   UNL     1       7.370   5.066  13.640  0.00  0.00    +0.000 A 
ATOM     22  F   UNL     1       8.127   5.720  12.749  0.00  0.00    +0.000 F 
ATOM     23  C   UNL     1       6.385   4.195  13.196  0.00  0.00    +0.000 A 
ATOM     24  C   UNL     1       5.599   3.511  14.126  0.00  0.00    +0.000 A 
ENDBRANCH  17  18
ENDBRANCH  15  17
ENDBRANCH   8  13
BRANCH   1  25
ATOM     25  C   UNL     1       0.933  10.743  19.350  0.00  0.00    +0.000 C 
BRANCH  25  29
ATOM     26  C   UNL     1      -3.180  11.677  18.387  0.00  0.00    +0.000 A 
ATOM     27  C   UNL     1      -2.461  10.770  17.609  0.00  0.00    +0.000 A 
ATOM     28  C   UNL     1      -1.129  10.476  17.908  0.00  0.00    +0.000 A 
ATOM     29  C   UNL     1      -0.490  11.100  18.987  0.00  0.00    +0.000 A 
ATOM     30  C   UNL     1      -1.204  12.045  19.737  0.00  0.00    +0.000 A 
ATOM     31  C   UNL     1      -2.543  12.327  19.443  0.00  0.00    +0.000 A 
BRANCH  26  33
ATOM     32  C   UNL     1      -5.375  10.810  18.292  0.00  0.00    +0.000 C 
ATOM     33  O   UNL     1      -4.478  11.875  18.000  0.00  0.00    +0.000 OA
ENDBRANCH  26  33
ENDBRANCH  25  29
ENDBRANCH   1  25
TORSDOF 6
ENDMDL
MODEL 7
REMARK VINA RESULT:      -8.5      3.874     11.142
REMARK  Name = 
REMARK  8 active torsions:
REMARK  status: ('A' for Active; 'I' for Inactive)
REMARK    1  A    between atoms: C_1  and  O_2
REMARK    2  A    between atoms: O_2  and  C_3
REMARK    3  A    between atoms: C_6  and  C_7
REMARK    4  A    between atoms: C_7  and  N_8
REMARK    5  A    between atoms: C_13  and  C_14
REMARK    6  A    between atoms: C_15  and  C_16
REMARK    7  A    between atoms: N_18  and  C_19
REMARK    8  A    between atoms: C_19  and  C_20
REMARK                            x       y       z     vdW  Elec       q    Type
REMARK                         _______ _______ _______ _____ _____    ______ ____
ROOT
ATOM      1  N   UNL     1      -0.831  11.045  22.038  0.00  0.00    +0.000 N 
ATOM      2  C   UNL     1      -0.709  11.765  20.860  0.00  0.00    +0.000 A 
ATOM      3  C   UNL     1       0.014  11.322  19.828  0.00  0.00    +0.000 A 
ATOM      4  C   UNL     1       0.677  10.032  19.927  0.00  0.00    +0.000 A 
ATOM      5  N   UNL     1       1.325   9.597  18.825  0.00  0.00    +0.000 NA
ATOM      6  C   UNL     1       1.907   8.360  18.861  0.00  0.00    +0.000 A 
ATOM      7  C   UNL     1       2.587   7.968  17.582  0.00  0.00    +0.000 C 
ATOM      8  C   UNL     1       1.845   7.534  19.998  0.00  0.00    +0.000 A 
ATOM      9  C   UNL     1       1.200   8.037  21.137  0.00  0.00    +0.000 A 
ATOM     10  C   UNL     1       0.596   9.294  21.093  0.00  0.00    +0.000 A 
ATOM     11  C   UNL     1      -0.179   9.824  22.237  0.00  0.00    +0.000 A 
ATOM     12  O   UNL     1      -0.244   9.159  23.268  0.00  0.00    +0.000 OA
ENDROOT
BRANCH   8  13
ATOM     13  C   UNL     1       2.446   6.165  20.037  0.00  0.00    +0.000 C 
ATOM     14  O   UNL     1       1.780   5.199  20.378  0.00  0.00    +0.000 OA
ATOM     15  N   UNL     1       3.777   6.076  19.668  0.00  0.00    +0.000 N 
ATOM     16  H   UNL     1       4.318   6.906  19.474  0.00  0.00    +0.000 HD
BRANCH  15  17
ATOM     17  C   UNL     1       4.489   4.815  19.580  0.00  0.00    +0.000 C 
BRANCH  17  18
ATOM     18  C   UNL     1       5.210   4.686  18.257  0.00  0.00    +0.000 A 
ATOM     19  C   UNL     1       6.611   4.766  18.181  0.00  0.00    +0.000 A 
ATOM     20  C   UNL     1       7.262   4.627  16.951  0.00  0.00    +0.000 A 
ATOM     21  C   UNL     1       6.517   4.411  15.798  0.00  0.00    +0.000 A 
ATOM     22  F   UNL     1       7.144   4.277  14.622  0.00  0.00    +0.000 F 
ATOM     23  C   UNL     1       5.132   4.324  15.851  0.00  0.00    +0.000 A 
ATOM     24  C   UNL     1       4.479   4.459  17.078  0.00  0.00    +0.000 A 
ENDBRANCH  17  18
ENDBRANCH  15  17
ENDBRANCH   8  13
BRANCH   1  25
ATOM     25  C   UNL     1      -1.715  11.540  23.094  0.00  0.00    +0.000 C 
BRANCH  25  29
ATOM     26  C   UNL     1      -2.476  15.785  22.747  0.00  0.00    +0.000 A 
ATOM     27  C   UNL     1      -1.279  15.324  23.297  0.00  0.00    +0.000 A 
ATOM     28  C   UNL     1      -1.036  13.955  23.423  0.00  0.00    +0.000 A 
ATOM     29  C   UNL     1      -1.997  13.023  23.012  0.00  0.00    +0.000 A 
ATOM     30  C   UNL     1      -3.216  13.492  22.504  0.00  0.00    +0.000 A 
ATOM     31  C   UNL     1      -3.451  14.865  22.365  0.00  0.00    +0.000 A 
BRANCH  26  33
ATOM     32  C   UNL     1      -2.245  17.863  23.846  0.00  0.00    +0.000 C 
ATOM     33  O   UNL     1      -2.594  17.146  22.667  0.00  0.00    +0.000 OA
ENDBRANCH  26  33
ENDBRANCH  25  29
ENDBRANCH   1  25
TORSDOF 6
ENDMDL
MODEL 8
REMARK VINA RESULT:      -8.4      3.795      5.220
REMARK  Name = 
REMARK  8 active torsions:
REMARK  status: ('A' for Active; 'I' for Inactive)
REMARK    1  A    between atoms: C_1  and  O_2
REMARK    2  A    between atoms: O_2  and  C_3
REMARK    3  A    between atoms: C_6  and  C_7
REMARK    4  A    between atoms: C_7  and  N_8
REMARK    5  A    between atoms: C_13  and  C_14
REMARK    6  A    between atoms: C_15  and  C_16
REMARK    7  A    between atoms: N_18  and  C_19
REMARK    8  A    between atoms: C_19  and  C_20
REMARK                            x       y       z     vdW  Elec       q    Type
REMARK                         _______ _______ _______ _____ _____    ______ ____
ROOT
ATOM      1  N   UNL     1       2.192   7.985  18.825  0.00  0.00    +0.000 N 
ATOM      2  C   UNL     1       2.024   7.370  20.056  0.00  0.00    +0.000 A 
ATOM      3  C   UNL     1       1.352   7.950  21.054  0.00  0.00    +0.000 A 
ATOM      4  C   UNL     1       0.754   9.258  20.842  0.00  0.00    +0.000 A 
ATOM      5  N   UNL     1       0.017   9.759  21.857  0.00  0.00    +0.000 NA
ATOM      6  C   UNL     1      -0.612  10.959  21.669  0.00  0.00    +0.000 A 
ATOM      7  C   UNL     1      -1.415  11.418  22.851  0.00  0.00    +0.000 C 
ATOM      8  C   UNL     1      -0.521  11.674  20.462  0.00  0.00    +0.000 A 
ATOM      9  C   UNL     1       0.287  11.142  19.447  0.00  0.00    +0.000 A 
ATOM     10  C   UNL     1       0.917   9.913  19.636  0.00  0.00    +0.000 A 
ATOM     11  C   UNL     1       1.700   9.267  18.558  0.00  0.00    +0.000 A 
ATOM     12  O   UNL     1       1.838   9.858  17.491  0.00  0.00    +0.000 OA
ENDROOT
BRANCH   8  13
ATOM     13  C   UNL     1      -1.234  12.969  20.233  0.00  0.00    +0.000 C 
ATOM     14  O   UNL     1      -2.379  12.986  19.809  0.00  0.00    +0.000 OA
ATOM     15  N   UNL     1      -0.519  14.117  20.530  0.00  0.00    +0.000 N 
ATOM     16  H   UNL     1       0.453  14.067  20.798  0.00  0.00    +0.000 HD
BRANCH  15  17
ATOM     17  C   UNL     1      -1.088  15.448  20.435  0.00  0.00    +0.000 C 
BRANCH  17  18
ATOM     18  C   UNL     1      -0.388  16.265  19.372  0.00  0.00    +0.000 A 
ATOM     19  C   UNL     1      -1.088  17.207  18.600  0.00  0.00    +0.000 A 
ATOM     20  C   UNL     1      -0.422  17.967  17.634  0.00  0.00    +0.000 A 
ATOM     21  C   UNL     1       0.943  17.786  17.436  0.00  0.00    +0.000 A 
ATOM     22  F   UNL     1       1.578  18.516  16.510  0.00  0.00    +0.000 F 
ATOM     23  C   UNL     1       1.655  16.864  18.190  0.00  0.00    +0.000 A 
ATOM     24  C   UNL     1       0.992  16.106  19.159  0.00  0.00    +0.000 A 
ENDBRANCH  17  18
ENDBRANCH  15  17
ENDBRANCH   8  13
BRANCH   1  25
ATOM     25  C   UNL     1       2.856   7.257  17.743  0.00  0.00    +0.000 C 
BRANCH  25  29
ATOM     26  C   UNL     1       4.322   3.393  19.022  0.00  0.00    +0.000 A 
ATOM     27  C   UNL     1       5.134   4.523  19.116  0.00  0.00    +0.000 A 
ATOM     28  C   UNL     1       4.669   5.770  18.692  0.00  0.00    +0.000 A 
ATOM     29  C   UNL     1       3.384   5.901  18.151  0.00  0.00    +0.000 A 
ATOM     30  C   UNL     1       2.591   4.754  18.016  0.00  0.00    +0.000 A 
ATOM     31  C   UNL     1       3.054   3.508  18.455  0.00  0.00    +0.000 A 
BRANCH  26  33
ATOM     32  C   UNL     1       4.511   1.843  20.794  0.00  0.00    +0.000 C 
ATOM     33  O   UNL     1       4.885   2.232  19.478  0.00  0.00    +0.000 OA
ENDBRANCH  26  33
ENDBRANCH  25  29
ENDBRANCH   1  25
TORSDOF 6
ENDMDL
MODEL 9
REMARK VINA RESULT:      -8.4      0.876      1.443
REMARK  Name = 
REMARK  8 active torsions:
REMARK  status: ('A' for Active; 'I' for Inactive)
REMARK    1  A    between atoms: C_1  and  O_2
REMARK    2  A    between atoms: O_2  and  C_3
REMARK    3  A    between atoms: C_6  and  C_7
REMARK    4  A    between atoms: C_7  and  N_8
REMARK    5  A    between atoms: C_13  and  C_14
REMARK    6  A    between atoms: C_15  and  C_16
REMARK    7  A    between atoms: N_18  and  C_19
REMARK    8  A    between atoms: C_19  and  C_20
REMARK                            x       y       z     vdW  Elec       q    Type
REMARK                         _______ _______ _______ _____ _____    ______ ____
ROOT
ATOM      1  N   UNL     1       2.592   7.052  18.956  0.00  0.00    +0.000 N 
ATOM      2  C   UNL     1       2.632   7.869  17.836  0.00  0.00    +0.000 A 
ATOM      3  C   UNL     1       2.005   9.047  17.793  0.00  0.00    +0.000 A 
ATOM      4  C   UNL     1       1.276   9.507  18.964  0.00  0.00    +0.000 A 
ATOM      5  N   UNL     1       0.731  10.741  18.893  0.00  0.00    +0.000 NA
ATOM      6  C   UNL     1       0.091  11.231  19.998  0.00  0.00    +0.000 A 
ATOM      7  C   UNL     1      -0.464  12.614  19.818  0.00  0.00    +0.000 C 
ATOM      8  C   UNL     1      -0.008  10.498  21.194  0.00  0.00    +0.000 A 
ATOM      9  C   UNL     1       0.532   9.205  21.216  0.00  0.00    +0.000 A 
ATOM     10  C   UNL     1       1.195   8.712  20.092  0.00  0.00    +0.000 A 
ATOM     11  C   UNL     1       1.866   7.392  20.102  0.00  0.00    +0.000 A 
ATOM     12  O   UNL     1       1.787   6.696  21.110  0.00  0.00    +0.000 OA
ENDROOT
BRANCH   8  13
ATOM     13  C   UNL     1      -0.674  11.039  22.420  0.00  0.00    +0.000 C 
ATOM     14  O   UNL     1      -0.378  10.619  23.529  0.00  0.00    +0.000 OA
ATOM     15  N   UNL     1      -1.623  12.024  22.212  0.00  0.00    +0.000 N 
ATOM     16  H   UNL     1      -1.902  12.286  21.277  0.00  0.00    +0.000 HD
BRANCH  15  17
ATOM     17  C   UNL     1      -2.307  12.704  23.295  0.00  0.00    +0.000 C 
BRANCH  17  18
ATOM     18  C   UNL     1      -3.800  12.748  23.056  0.00  0.00    +0.000 A 
ATOM     19  C   UNL     1      -4.329  12.720  21.755  0.00  0.00    +0.000 A 
ATOM     20  C   UNL     1      -5.712  12.744  21.553  0.00  0.00    +0.000 A 
ATOM     21  C   UNL     1      -6.568  12.797  22.647  0.00  0.00    +0.000 A 
ATOM     22  F   UNL     1      -7.892  12.819  22.450  0.00  0.00    +0.000 F 
ATOM     23  C   UNL     1      -6.067  12.822  23.942  0.00  0.00    +0.000 A 
ATOM     24  C   UNL     1      -4.685  12.795  24.147  0.00  0.00    +0.000 A 
ENDBRANCH  17  18
ENDBRANCH  15  17
ENDBRANCH   8  13
BRANCH   1  25
ATOM     25  C   UNL     1       3.378   5.818  18.974  0.00  0.00    +0.000 C 
BRANCH  25  29
ATOM     26  C   UNL     1       6.116   5.321  15.662  0.00  0.00    +0.000 A 
ATOM     27  C   UNL     1       6.204   6.441  16.489  0.00  0.00    +0.000 A 
ATOM     28  C   UNL     1       5.313   6.612  17.551  0.00  0.00    +0.000 A 
ATOM     29  C   UNL     1       4.308   5.667  17.793  0.00  0.00    +0.000 A 
ATOM     30  C   UNL     1       4.196   4.568  16.930  0.00  0.00    +0.000 A 
ATOM     31  C   UNL     1       5.099   4.392  15.875  0.00  0.00    +0.000 A 
BRANCH  26  33
ATOM     32  C   UNL     1       6.787   4.315  13.633  0.00  0.00    +0.000 C 
ATOM     33  O   UNL     1       7.049   5.261  14.663  0.00  0.00    +0.000 OA
ENDBRANCH  26  33
ENDBRANCH  25  29
ENDBRANCH   1  25
TORSDOF 6
ENDMDL
