MODEL 1
REMARK VINA RESULT:      -6.1      0.000      0.000
REMARK  Name = 
REMARK  6 active torsions:
REMARK  status: ('A' for Active; 'I' for Inactive)
REMARK    1  A    between atoms: C_1  and  S_2
REMARK    2  A    between atoms: S_2  and  C_3
REMARK    3  A    between atoms: N_11  and  C_12
REMARK    4  A    between atoms: C_12  and  C_13
REMARK    5  A    between atoms: C_13  and  C_14
REMARK    6  A    between atoms: C_14  and  O_16
REMARK                            x       y       z     vdW  Elec       q    Type
REMARK                         _______ _______ _______ _____ _____    ______ ____
ROOT
ATOM      1  C   UNL     1       6.224   4.267  15.955  0.00  0.00    +0.000 A 
ATOM      2  N   UNL     1       7.415   4.614  16.511  0.00  0.00    +0.000 NA
ATOM      3  C   UNL     1       7.486   4.695  17.853  0.00  0.00    +0.000 A 
ATOM      4  N   UNL     1       6.507   4.484  18.752  0.00  0.00    +0.000 NA
ATOM      5  C   UNL     1       5.357   4.145  18.149  0.00  0.00    +0.000 A 
ATOM      6  C   UNL     1       5.126   4.014  16.785  0.00  0.00    +0.000 A 
ATOM      7  N   UNL     1       3.812   3.649  16.558  0.00  0.00    +0.000 NA
ATOM      8  C   UNL     1       3.267   3.554  17.753  0.00  0.00    +0.000 A 
ATOM      9  N   UNL     1       4.157   3.863  18.743  0.00  0.00    +0.000 N 
ENDROOT
BRANCH   1  11
ATOM     10  C   UNL     1       7.547   4.996  13.656  0.00  0.00    +0.000 C 
ATOM     11  S   UNL     1       6.048   4.139  14.200  0.00  0.00    +0.000 S 
ENDBRANCH   1  11
BRANCH   9  12
ATOM     12  C   UNL     1       3.885   3.848  20.166  0.00  0.00    +0.000 C 
BRANCH  12  13
ATOM     13  C   UNL     1       2.531   4.452  20.522  0.00  0.00    +0.000 C 
BRANCH  13  14
ATOM     14  C   UNL     1       1.653   3.418  21.171  0.00  0.00    +0.000 C 
ATOM     15  O   UNL     1       1.895   2.861  22.230  0.00  0.00    +0.000 OA
BRANCH  14  16
ATOM     16  O   UNL     1       0.546   3.146  20.446  0.00  0.00    +0.000 OA
ATOM     17  H   UNL     1      -0.116   2.597  20.910  0.00  0.00    +0.000 HD
ENDBRANCH  14  16
ENDBRANCH  13  14
ENDBRANCH  12  13
ENDBRANCH   9  12
TORSDOF 5
ENDMDL
MODEL 2
REMARK VINA RESULT:      -6.0      2.110      3.038
REMARK  Name = 
REMARK  6 active torsions:
REMARK  status: ('A' for Active; 'I' for Inactive)
REMARK    1  A    between atoms: C_1  and  S_2
REMARK    2  A    between atoms: S_2  and  C_3
REMARK    3  A    between atoms: N_11  and  C_12
REMARK    4  A    between atoms: C_12  and  C_13
REMARK    5  A    between atoms: C_13  and  C_14
REMARK    6  A    between atoms: C_14  and  O_16
REMARK                            x       y       z     vdW  Elec       q    Type
REMARK                         _______ _______ _______ _____ _____    ______ ____
ROOT
ATOM      1  C   UNL     1       6.687   5.694  17.464  0.00  0.00    +0.000 A 
ATOM      2  N   UNL     1       6.609   5.860  16.118  0.00  0.00    +0.000 NA
ATOM      3  C   UNL     1       5.719   5.112  15.439  0.00  0.00    +0.000 A 
ATOM      4  N   UNL     1       4.874   4.182  15.922  0.00  0.00    +0.000 NA
ATOM      5  C   UNL     1       4.994   4.060  17.254  0.00  0.00    +0.000 A 
ATOM      6  C   UNL     1       5.855   4.760  18.091  0.00  0.00    +0.000 A 
ATOM      7  N   UNL     1       5.679   4.353  19.400  0.00  0.00    +0.000 NA
ATOM      8  C   UNL     1       4.733   3.438  19.356  0.00  0.00    +0.000 A 
ATOM      9  N   UNL     1       4.302   3.216  18.077  0.00  0.00    +0.000 N 
ENDROOT
BRANCH   1  11
ATOM     10  C   UNL     1       7.743   8.232  17.572  0.00  0.00    +0.000 C 
ATOM     11  S   UNL     1       7.830   6.639  18.427  0.00  0.00    +0.000 S 
ENDBRANCH   1  11
BRANCH   9  12
ATOM     12  C   UNL     1       3.266   2.283  17.680  0.00  0.00    +0.000 C 
BRANCH  12  13
ATOM     13  C   UNL     1       2.232   2.036  18.774  0.00  0.00    +0.000 C 
BRANCH  13  14
ATOM     14  C   UNL     1       1.164   3.094  18.729  0.00  0.00    +0.000 C 
ATOM     15  O   UNL     1       0.926   3.806  17.766  0.00  0.00    +0.000 OA
BRANCH  14  16
ATOM     16  O   UNL     1       0.481   3.194  19.891  0.00  0.00    +0.000 OA
ATOM     17  H   UNL     1      -0.025   4.023  19.992  0.00  0.00    +0.000 HD
ENDBRANCH  14  16
ENDBRANCH  13  14
ENDBRANCH  12  13
ENDBRANCH   9  12
TORSDOF 5
ENDMDL
MODEL 3
REMARK VINA RESULT:      -6.0      4.078      5.933
REMARK  Name = 
REMARK  6 active torsions:
REMARK  status: ('A' for Active; 'I' for Inactive)
REMARK    1  A    between atoms: C_1  and  S_2
REMARK    2  A    between atoms: S_2  and  C_3
REMARK    3  A    between atoms: N_11  and  C_12
REMARK    4  A    between atoms: C_12  and  C_13
REMARK    5  A    between atoms: C_13  and  C_14
REMARK    6  A    between atoms: C_14  and  O_16
REMARK                            x       y       z     vdW  Elec       q    Type
REMARK                         _______ _______ _______ _____ _____    ______ ____
ROOT
ATOM      1  C   UNL     1       2.261   3.764  19.148  0.00  0.00    +0.000 A 
ATOM      2  N   UNL     1       2.726   2.559  18.727  0.00  0.00    +0.000 NA
ATOM      3  C   UNL     1       3.695   2.547  17.791  0.00  0.00    +0.000 A 
ATOM      4  N   UNL     1       4.280   3.597  17.186  0.00  0.00    +0.000 NA
ATOM      5  C   UNL     1       3.783   4.759  17.640  0.00  0.00    +0.000 A 
ATOM      6  C   UNL     1       2.794   4.936  18.600  0.00  0.00    +0.000 A 
ATOM      7  N   UNL     1       2.559   6.284  18.796  0.00  0.00    +0.000 NA
ATOM      8  C   UNL     1       3.388   6.904  17.983  0.00  0.00    +0.000 A 
ATOM      9  N   UNL     1       4.135   6.022  17.252  0.00  0.00    +0.000 N 
ENDROOT
BRANCH   1  11
ATOM     10  C   UNL     1       1.612   2.678  21.591  0.00  0.00    +0.000 C 
ATOM     11  S   UNL     1       0.990   3.865  20.374  0.00  0.00    +0.000 S 
ENDBRANCH   1  11
BRANCH   9  12
ATOM     12  C   UNL     1       5.147   6.371  16.275  0.00  0.00    +0.000 C 
BRANCH  12  13
ATOM     13  C   UNL     1       6.557   6.393  16.857  0.00  0.00    +0.000 C 
BRANCH  13  14
ATOM     14  C   UNL     1       7.378   5.276  16.276  0.00  0.00    +0.000 C 
ATOM     15  O   UNL     1       7.884   4.372  16.921  0.00  0.00    +0.000 OA
BRANCH  14  16
ATOM     16  O   UNL     1       7.516   5.374  14.935  0.00  0.00    +0.000 OA
ATOM     17  H   UNL     1       7.973   4.618  14.519  0.00  0.00    +0.000 HD
ENDBRANCH  14  16
ENDBRANCH  13  14
ENDBRANCH  12  13
ENDBRANCH   9  12
TORSDOF 5
ENDMDL
MODEL 4
REMARK VINA RESULT:      -6.0      2.049      2.612
REMARK  Name = 
REMARK  6 active torsions:
REMARK  status: ('A' for Active; 'I' for Inactive)
REMARK    1  A    between atoms: C_1  and  S_2
REMARK    2  A    between atoms: S_2  and  C_3
REMARK    3  A    between atoms: N_11  and  C_12
REMARK    4  A    between atoms: C_12  and  C_13
REMARK    5  A    between atoms: C_13  and  C_14
REMARK    6  A    between atoms: C_14  and  O_16
REMARK                            x       y       z     vdW  Elec       q    Type
REMARK                         _______ _______ _______ _____ _____    ______ ____
ROOT
ATOM      1  C   UNL     1       5.095   5.527  16.929  0.00  0.00    +0.000 A 
ATOM      2  N   UNL     1       4.722   6.813  17.160  0.00  0.00    +0.000 NA
ATOM      3  C   UNL     1       3.528   7.030  17.742  0.00  0.00    +0.000 A 
ATOM      4  N   UNL     1       2.614   6.122  18.131  0.00  0.00    +0.000 NA
ATOM      5  C   UNL     1       3.034   4.871  17.880  0.00  0.00    +0.000 A 
ATOM      6  C   UNL     1       4.235   4.486  17.295  0.00  0.00    +0.000 A 
ATOM      7  N   UNL     1       4.299   3.108  17.209  0.00  0.00    +0.000 NA
ATOM      8  C   UNL     1       3.173   2.673  17.734  0.00  0.00    +0.000 A 
ATOM      9  N   UNL     1       2.370   3.703  18.136  0.00  0.00    +0.000 N 
ENDROOT
BRANCH   1  11
ATOM     10  C   UNL     1       7.606   4.638  17.615  0.00  0.00    +0.000 C 
ATOM     11  S   UNL     1       6.649   5.158  16.170  0.00  0.00    +0.000 S 
ENDBRANCH   1  11
BRANCH   9  12
ATOM     12  C   UNL     1       1.070   3.573  18.763  0.00  0.00    +0.000 C 
BRANCH  12  13
ATOM     13  C   UNL     1       1.115   2.808  20.082  0.00  0.00    +0.000 C 
BRANCH  13  14
ATOM     14  C   UNL     1       1.691   3.675  21.167  0.00  0.00    +0.000 C 
ATOM     15  O   UNL     1       2.251   3.260  22.168  0.00  0.00    +0.000 OA
BRANCH  14  16
ATOM     16  O   UNL     1       1.516   4.993  20.928  0.00  0.00    +0.000 OA
ATOM     17  H   UNL     1       0.626   5.231  20.604  0.00  0.00    +0.000 HD
ENDBRANCH  14  16
ENDBRANCH  13  14
ENDBRANCH  12  13
ENDBRANCH   9  12
TORSDOF 5
ENDMDL
MODEL 5
REMARK VINA RESULT:      -6.0      3.612      5.470
REMARK  Name = 
REMARK  6 active torsions:
REMARK  status: ('A' for Active; 'I' for Inactive)
REMARK    1  A    between atoms: C_1  and  S_2
REMARK    2  A    between atoms: S_2  and  C_3
REMARK    3  A    between atoms: N_11  and  C_12
REMARK    4  A    between atoms: C_12  and  C_13
REMARK    5  A    between atoms: C_13  and  C_14
REMARK    6  A    between atoms: C_14  and  O_16
REMARK                            x       y       z     vdW  Elec       q    Type
REMARK                         _______ _______ _______ _____ _____    ______ ____
ROOT
ATOM      1  C   UNL     1       2.220   3.414  19.052  0.00  0.00    +0.000 A 
ATOM      2  N   UNL     1       2.657   2.230  18.547  0.00  0.00    +0.000 NA
ATOM      3  C   UNL     1       3.729   2.247  17.733  0.00  0.00    +0.000 A 
ATOM      4  N   UNL     1       4.447   3.310  17.325  0.00  0.00    +0.000 NA
ATOM      5  C   UNL     1       3.972   4.450  17.853  0.00  0.00    +0.000 A 
ATOM      6  C   UNL     1       2.887   4.595  18.709  0.00  0.00    +0.000 A 
ATOM      7  N   UNL     1       2.714   5.928  19.034  0.00  0.00    +0.000 NA
ATOM      8  C   UNL     1       3.673   6.568  18.399  0.00  0.00    +0.000 A 
ATOM      9  N   UNL     1       4.447   5.718  17.658  0.00  0.00    +0.000 N 
ENDROOT
BRANCH   1  11
ATOM     10  C   UNL     1       1.518   2.729  21.622  0.00  0.00    +0.000 C 
ATOM     11  S   UNL     1       0.819   3.476  20.129  0.00  0.00    +0.000 S 
ENDBRANCH   1  11
BRANCH   9  12
ATOM     12  C   UNL     1       5.590   6.094  16.850  0.00  0.00    +0.000 C 
BRANCH  12  13
ATOM     13  C   UNL     1       6.810   6.477  17.682  0.00  0.00    +0.000 C 
BRANCH  13  14
ATOM     14  C   UNL     1       7.169   5.361  18.623  0.00  0.00    +0.000 C 
ATOM     15  O   UNL     1       7.159   5.445  19.841  0.00  0.00    +0.000 OA
BRANCH  14  16
ATOM     16  O   UNL     1       7.523   4.228  17.978  0.00  0.00    +0.000 OA
ATOM     17  H   UNL     1       6.773   3.666  17.706  0.00  0.00    +0.000 HD
ENDBRANCH  14  16
ENDBRANCH  13  14
ENDBRANCH  12  13
ENDBRANCH   9  12
TORSDOF 5
ENDMDL
MODEL 6
REMARK VINA RESULT:      -5.9      1.914      2.408
REMARK  Name = 
REMARK  6 active torsions:
REMARK  status: ('A' for Active; 'I' for Inactive)
REMARK    1  A    between atoms: C_1  and  S_2
REMARK    2  A    between atoms: S_2  and  C_3
REMARK    3  A    between atoms: N_11  and  C_12
REMARK    4  A    between atoms: C_12  and  C_13
REMARK    5  A    between atoms: C_13  and  C_14
REMARK    6  A    between atoms: C_14  and  O_16
REMARK                            x       y       z     vdW  Elec       q    Type
REMARK                         _______ _______ _______ _____ _____    ______ ____
ROOT
ATOM      1  C   UNL     1       5.176   5.274  16.773  0.00  0.00    +0.000 A 
ATOM      2  N   UNL     1       4.909   6.595  16.949  0.00  0.00    +0.000 NA
ATOM      3  C   UNL     1       3.774   6.931  17.591  0.00  0.00    +0.000 A 
ATOM      4  N   UNL     1       2.829   6.114  18.091  0.00  0.00    +0.000 NA
ATOM      5  C   UNL     1       3.144   4.824  17.890  0.00  0.00    +0.000 A 
ATOM      6  C   UNL     1       4.272   4.321  17.255  0.00  0.00    +0.000 A 
ATOM      7  N   UNL     1       4.236   2.939  17.247  0.00  0.00    +0.000 NA
ATOM      8  C   UNL     1       3.120   2.617  17.868  0.00  0.00    +0.000 A 
ATOM      9  N   UNL     1       2.419   3.724  18.257  0.00  0.00    +0.000 N 
ENDROOT
BRANCH   1  11
ATOM     10  C   UNL     1       5.960   4.266  14.337  0.00  0.00    +0.000 C 
ATOM     11  S   UNL     1       6.646   4.751  15.940  0.00  0.00    +0.000 S 
ENDBRANCH   1  11
BRANCH   9  12
ATOM     12  C   UNL     1       1.158   3.724  18.971  0.00  0.00    +0.000 C 
BRANCH  12  13
ATOM     13  C   UNL     1       1.186   2.869  20.235  0.00  0.00    +0.000 C 
BRANCH  13  14
ATOM     14  C   UNL     1       2.029   3.528  21.291  0.00  0.00    +0.000 C 
ATOM     15  O   UNL     1       2.222   4.730  21.380  0.00  0.00    +0.000 OA
BRANCH  14  16
ATOM     16  O   UNL     1       2.577   2.641  22.149  0.00  0.00    +0.000 OA
ATOM     17  H   UNL     1       3.537   2.754  22.291  0.00  0.00    +0.000 HD
ENDBRANCH  14  16
ENDBRANCH  13  14
ENDBRANCH  12  13
ENDBRANCH   9  12
TORSDOF 5
ENDMDL
MODEL 7
REMARK VINA RESULT:      -5.9      2.126      2.863
REMARK  Name = 
REMARK  6 active torsions:
REMARK  status: ('A' for Active; 'I' for Inactive)
REMARK    1  A    between atoms: C_1  and  S_2
REMARK    2  A    between atoms: S_2  and  C_3
REMARK    3  A    between atoms: N_11  and  C_12
REMARK    4  A    between atoms: C_12  and  C_13
REMARK    5  A    between atoms: C_13  and  C_14
REMARK    6  A    between atoms: C_14  and  O_16
REMARK                            x       y       z     vdW  Elec       q    Type
REMARK                         _______ _______ _______ _____ _____    ______ ____
ROOT
ATOM      1  C   UNL     1       6.992   5.576  17.603  0.00  0.00    +0.000 A 
ATOM      2  N   UNL     1       7.473   5.035  16.453  0.00  0.00    +0.000 NA
ATOM      3  C   UNL     1       6.663   4.222  15.749  0.00  0.00    +0.000 A 
ATOM      4  N   UNL     1       5.403   3.848  16.039  0.00  0.00    +0.000 NA
ATOM      5  C   UNL     1       4.980   4.410  17.183  0.00  0.00    +0.000 A 
ATOM      6  C   UNL     1       5.690   5.270  18.013  0.00  0.00    +0.000 A 
ATOM      7  N   UNL     1       4.910   5.635  19.095  0.00  0.00    +0.000 NA
ATOM      8  C   UNL     1       3.759   5.021  18.918  0.00  0.00    +0.000 A 
ATOM      9  N   UNL     1       3.762   4.255  17.786  0.00  0.00    +0.000 N 
ENDROOT
BRANCH   1  11
ATOM     10  C   UNL     1       7.813   8.200  17.661  0.00  0.00    +0.000 C 
ATOM     11  S   UNL     1       7.993   6.654  18.584  0.00  0.00    +0.000 S 
ENDBRANCH   1  11
BRANCH   9  12
ATOM     12  C   UNL     1       2.654   3.460  17.295  0.00  0.00    +0.000 C 
BRANCH  12  13
ATOM     13  C   UNL     1       1.362   3.690  18.072  0.00  0.00    +0.000 C 
BRANCH  13  14
ATOM     14  C   UNL     1       1.205   2.645  19.142  0.00  0.00    +0.000 C 
ATOM     15  O   UNL     1       0.817   2.863  20.278  0.00  0.00    +0.000 OA
BRANCH  14  16
ATOM     16  O   UNL     1       1.553   1.410  18.719  0.00  0.00    +0.000 OA
ATOM     17  H   UNL     1       1.731   1.346  17.761  0.00  0.00    +0.000 HD
ENDBRANCH  14  16
ENDBRANCH  13  14
ENDBRANCH  12  13
ENDBRANCH   9  12
TORSDOF 5
ENDMDL
MODEL 8
REMARK VINA RESULT:      -5.9      4.147      6.022
REMARK  Name = 
REMARK  6 active torsions:
REMARK  status: ('A' for Active; 'I' for Inactive)
REMARK    1  A    between atoms: C_1  and  S_2
REMARK    2  A    between atoms: S_2  and  C_3
REMARK    3  A    between atoms: N_11  and  C_12
REMARK    4  A    between atoms: C_12  and  C_13
REMARK    5  A    between atoms: C_13  and  C_14
REMARK    6  A    between atoms: C_14  and  O_16
REMARK                            x       y       z     vdW  Elec       q    Type
REMARK                         _______ _______ _______ _____ _____    ______ ____
ROOT
ATOM      1  C   UNL     1       2.693   4.038  19.762  0.00  0.00    +0.000 A 
ATOM      2  N   UNL     1       3.538   2.982  19.888  0.00  0.00    +0.000 NA
ATOM      3  C   UNL     1       4.721   3.038  19.247  0.00  0.00    +0.000 A 
ATOM      4  N   UNL     1       5.196   4.023  18.463  0.00  0.00    +0.000 NA
ATOM      5  C   UNL     1       4.322   5.039  18.374  0.00  0.00    +0.000 A 
ATOM      6  C   UNL     1       3.073   5.133  18.977  0.00  0.00    +0.000 A 
ATOM      7  N   UNL     1       2.475   6.334  18.645  0.00  0.00    +0.000 NA
ATOM      8  C   UNL     1       3.342   6.952  17.871  0.00  0.00    +0.000 A 
ATOM      9  N   UNL     1       4.464   6.200  17.664  0.00  0.00    +0.000 N 
ENDROOT
BRANCH   1  11
ATOM     10  C   UNL     1       1.340   2.660  21.721  0.00  0.00    +0.000 C 
ATOM     11  S   UNL     1       1.121   4.042  20.573  0.00  0.00    +0.000 S 
ENDBRANCH   1  11
BRANCH   9  12
ATOM     12  C   UNL     1       5.614   6.588  16.872  0.00  0.00    +0.000 C 
BRANCH  12  13
ATOM     13  C   UNL     1       5.680   5.875  15.525  0.00  0.00    +0.000 C 
BRANCH  13  14
ATOM     14  C   UNL     1       7.027   5.232  15.342  0.00  0.00    +0.000 C 
ATOM     15  O   UNL     1       7.693   5.286  14.320  0.00  0.00    +0.000 OA
BRANCH  14  16
ATOM     16  O   UNL     1       7.438   4.561  16.440  0.00  0.00    +0.000 OA
ATOM     17  H   UNL     1       8.296   4.107  16.339  0.00  0.00    +0.000 HD
ENDBRANCH  14  16
ENDBRANCH  13  14
ENDBRANCH  12  13
ENDBRANCH   9  12
TORSDOF 5
ENDMDL
MODEL 9
REMARK VINA RESULT:      -5.9      2.410      2.932
REMARK  Name = 
REMARK  6 active torsions:
REMARK  status: ('A' for Active; 'I' for Inactive)
REMARK    1  A    between atoms: C_1  and  S_2
REMARK    2  A    between atoms: S_2  and  C_3
REMARK    3  A    between atoms: N_11  and  C_12
REMARK    4  A    between atoms: C_12  and  C_13
REMARK    5  A    between atoms: C_13  and  C_14
REMARK    6  A    between atoms: C_14  and  O_16
REMARK                            x       y       z     vdW  Elec       q    Type
REMARK                         _______ _______ _______ _____ _____    ______ ____
ROOT
ATOM      1  C   UNL     1       5.724   5.701  18.206  0.00  0.00    +0.000 A 
ATOM      2  N   UNL     1       5.014   6.664  17.564  0.00  0.00    +0.000 NA
ATOM      3  C   UNL     1       3.687   6.483  17.423  0.00  0.00    +0.000 A 
ATOM      4  N   UNL     1       2.941   5.441  17.833  0.00  0.00    +0.000 NA
ATOM      5  C   UNL     1       3.693   4.522  18.460  0.00  0.00    +0.000 A 
ATOM      6  C   UNL     1       5.063   4.566  18.689  0.00  0.00    +0.000 A 
ATOM      7  N   UNL     1       5.467   3.431  19.368  0.00  0.00    +0.000 NA
ATOM      8  C   UNL     1       4.371   2.726  19.552  0.00  0.00    +0.000 A 
ATOM      9  N   UNL     1       3.277   3.337  19.004  0.00  0.00    +0.000 N 
ENDROOT
BRANCH   1  11
ATOM     10  C   UNL     1       7.740   7.511  17.734  0.00  0.00    +0.000 C 
ATOM     11  S   UNL     1       7.471   5.863  18.433  0.00  0.00    +0.000 S 
ENDBRANCH   1  11
BRANCH   9  12
ATOM     12  C   UNL     1       1.918   2.836  19.036  0.00  0.00    +0.000 C 
BRANCH  12  13
ATOM     13  C   UNL     1       1.043   3.546  20.064  0.00  0.00    +0.000 C 
BRANCH  13  14
ATOM     14  C   UNL     1       1.786   3.703  21.361  0.00  0.00    +0.000 C 
ATOM     15  O   UNL     1       1.924   2.824  22.197  0.00  0.00    +0.000 OA
BRANCH  14  16
ATOM     16  O   UNL     1       2.293   4.945  21.525  0.00  0.00    +0.000 OA
ATOM     17  H   UNL     1       1.698   5.665  21.241  0.00  0.00    +0.000 HD
ENDBRANCH  14  16
ENDBRANCH  13  14
ENDBRANCH  12  13
ENDBRANCH   9  12
TORSDOF 5
ENDMDL
