MODEL 1
REMARK VINA RESULT:      -9.5      0.000      0.000
REMARK  Name = 
REMARK  5 active torsions:
REMARK  status: ('A' for Active; 'I' for Inactive)
REMARK    1  A    between atoms: C_1  and  C_2
REMARK    2  A    between atoms: C_9  and  C_10
REMARK    3  A    between atoms: C_16  and  N_17
REMARK    4  A    between atoms: N_17  and  C_18
REMARK    5  A    between atoms: C_18  and  C_19
REMARK                            x       y       z     vdW  Elec       q    Type
REMARK                         _______ _______ _______ _____ _____    ______ ____
ROOT
ATOM      1  C   UNL     1      -1.719  11.590  23.197  0.00  0.00    +0.000 C 
ATOM      2  C   UNL     1      -0.836  10.703  22.365  0.00  0.00    +0.000 A 
ATOM      3  C   UNL     1      -0.476   9.417  22.772  0.00  0.00    +0.000 A 
ATOM      4  C   UNL     1       0.325   8.574  21.967  0.00  0.00    +0.000 A 
ATOM      5  C   UNL     1       0.777   9.042  20.716  0.00  0.00    +0.000 A 
ATOM      6  C   UNL     1       0.428  10.340  20.311  0.00  0.00    +0.000 A 
ATOM      7  C   UNL     1      -0.370  11.168  21.134  0.00  0.00    +0.000 A 
ATOM      8  C   UNL     1       1.000  10.562  19.045  0.00  0.00    +0.000 A 
ATOM      9  C   UNL     1       1.673   9.418  18.667  0.00  0.00    +0.000 A 
ATOM     10  C   UNL     1       2.376   9.224  17.373  0.00  0.00    +0.000 C 
ATOM     11  N   UNL     1       1.552   8.451  19.685  0.00  0.00    +0.000 N 
ATOM     12  C   UNL     1       2.110   7.094  19.625  0.00  0.00    +0.000 A 
ATOM     13  N   UNL     1       1.920   6.243  20.660  0.00  0.00    +0.000 NA
ATOM     14  C   UNL     1       2.366   4.965  20.505  0.00  0.00    +0.000 A 
ATOM     15  C   UNL     1       2.992   4.527  19.354  0.00  0.00    +0.000 A 
ATOM     16  C   UNL     1       3.213   5.470  18.359  0.00  0.00    +0.000 A 
ATOM     17  N   UNL     1       2.774   6.735  18.489  0.00  0.00    +0.000 NA
ATOM     18  C   UNL     1       3.229   3.065  19.106  0.00  0.00    +0.000 C 
ATOM     19  N   UNL     1       3.487   2.243  20.275  0.00  0.00    +0.000 NA
ATOM     20  C   UNL     1       2.732   2.582  21.470  0.00  0.00    +0.000 C 
ATOM     21  C   UNL     1       2.099   3.981  21.617  0.00  0.00    +0.000 C 
ATOM     22  H   UNL     1       4.485   2.200  20.467  0.00  0.00    +0.000 HD
ENDROOT
BRANCH  16  23
ATOM     23  N   UNL     1       3.850   5.011  17.199  0.00  0.00    +0.000 N 
ATOM     24  H   UNL     1       4.269   4.104  17.383  0.00  0.00    +0.000 HD
BRANCH  23  25
ATOM     25  C   UNL     1       4.766   5.806  16.414  0.00  0.00    +0.000 C 
BRANCH  25  26
ATOM     26  C   UNL     1       5.999   6.133  17.229  0.00  0.00    +0.000 A 
ATOM     27  C   UNL     1       6.627   7.386  17.132  0.00  0.00    +0.000 A 
ATOM     28  C   UNL     1       7.744   7.682  17.918  0.00  0.00    +0.000 A 
ATOM     29  C   UNL     1       8.251   6.727  18.797  0.00  0.00    +0.000 A 
ATOM     30  C   UNL     1       7.660   5.467  18.870  0.00  0.00    +0.000 A 
ATOM     31  C   UNL     1       6.548   5.170  18.084  0.00  0.00    +0.000 A 
ENDBRANCH  25  26
ENDBRANCH  23  25
ENDBRANCH  16  23
TORSDOF 3
ENDMDL
MODEL 2
REMARK VINA RESULT:      -8.6      1.480      2.238
REMARK  Name = 
REMARK  5 active torsions:
REMARK  status: ('A' for Active; 'I' for Inactive)
REMARK    1  A    between atoms: C_1  and  C_2
REMARK    2  A    between atoms: C_9  and  C_10
REMARK    3  A    between atoms: C_16  and  N_17
REMARK    4  A    between atoms: N_17  and  C_18
REMARK    5  A    between atoms: C_18  and  C_19
REMARK                            x       y       z     vdW  Elec       q    Type
REMARK                         _______ _______ _______ _____ _____    ______ ____
ROOT
ATOM      1  C   UNL     1      -1.720  11.550  23.143  0.00  0.00    +0.000 C 
ATOM      2  C   UNL     1      -0.818  10.676  22.315  0.00  0.00    +0.000 A 
ATOM      3  C   UNL     1      -0.468   9.383  22.708  0.00  0.00    +0.000 A 
ATOM      4  C   UNL     1       0.350   8.553  21.907  0.00  0.00    +0.000 A 
ATOM      5  C   UNL     1       0.831   9.043  20.675  0.00  0.00    +0.000 A 
ATOM      6  C   UNL     1       0.492  10.347  20.285  0.00  0.00    +0.000 A 
ATOM      7  C   UNL     1      -0.324  11.162  21.104  0.00  0.00    +0.000 A 
ATOM      8  C   UNL     1       1.093  10.590  19.036  0.00  0.00    +0.000 A 
ATOM      9  C   UNL     1       1.773   9.453  18.654  0.00  0.00    +0.000 A 
ATOM     10  C   UNL     1       2.506   9.281  17.373  0.00  0.00    +0.000 C 
ATOM     11  N   UNL     1       1.629   8.469  19.652  0.00  0.00    +0.000 N 
ATOM     12  C   UNL     1       2.187   7.112  19.582  0.00  0.00    +0.000 A 
ATOM     13  N   UNL     1       1.974   6.244  20.597  0.00  0.00    +0.000 NA
ATOM     14  C   UNL     1       2.422   4.968  20.430  0.00  0.00    +0.000 A 
ATOM     15  C   UNL     1       3.074   4.549  19.286  0.00  0.00    +0.000 A 
ATOM     16  C   UNL     1       3.318   5.509  18.313  0.00  0.00    +0.000 A 
ATOM     17  N   UNL     1       2.877   6.773  18.455  0.00  0.00    +0.000 NA
ATOM     18  C   UNL     1       3.315   3.091  19.018  0.00  0.00    +0.000 C 
ATOM     19  N   UNL     1       3.546   2.249  20.178  0.00  0.00    +0.000 NA
ATOM     20  C   UNL     1       2.765   2.569  21.361  0.00  0.00    +0.000 C 
ATOM     21  C   UNL     1       2.129   3.965  21.518  0.00  0.00    +0.000 C 
ATOM     22  H   UNL     1       4.540   2.202  20.392  0.00  0.00    +0.000 HD
ENDROOT
BRANCH  16  23
ATOM     23  N   UNL     1       3.981   5.069  17.159  0.00  0.00    +0.000 N 
ATOM     24  H   UNL     1       3.485   4.273  16.771  0.00  0.00    +0.000 HD
BRANCH  23  25
ATOM     25  C   UNL     1       5.403   4.821  17.093  0.00  0.00    +0.000 C 
BRANCH  25  26
ATOM     26  C   UNL     1       5.826   4.606  15.656  0.00  0.00    +0.000 A 
ATOM     27  C   UNL     1       5.038   3.857  14.767  0.00  0.00    +0.000 A 
ATOM     28  C   UNL     1       5.427   3.699  13.434  0.00  0.00    +0.000 A 
ATOM     29  C   UNL     1       6.612   4.275  12.982  0.00  0.00    +0.000 A 
ATOM     30  C   UNL     1       7.422   4.984  13.865  0.00  0.00    +0.000 A 
ATOM     31  C   UNL     1       7.036   5.140  15.196  0.00  0.00    +0.000 A 
ENDBRANCH  25  26
ENDBRANCH  23  25
ENDBRANCH  16  23
TORSDOF 3
ENDMDL
MODEL 3
REMARK VINA RESULT:      -8.2      1.917      5.022
REMARK  Name = 
REMARK  5 active torsions:
REMARK  status: ('A' for Active; 'I' for Inactive)
REMARK    1  A    between atoms: C_1  and  C_2
REMARK    2  A    between atoms: C_9  and  C_10
REMARK    3  A    between atoms: C_16  and  N_17
REMARK    4  A    between atoms: N_17  and  C_18
REMARK    5  A    between atoms: C_18  and  C_19
REMARK                            x       y       z     vdW  Elec       q    Type
REMARK                         _______ _______ _______ _____ _____    ______ ____
ROOT
ATOM      1  C   UNL     1      -0.137  12.373  18.759  0.00  0.00    +0.000 C 
ATOM      2  C   UNL     1       0.542  11.033  18.809  0.00  0.00    +0.000 A 
ATOM      3  C   UNL     1       1.349  10.568  17.770  0.00  0.00    +0.000 A 
ATOM      4  C   UNL     1       2.015   9.321  17.838  0.00  0.00    +0.000 A 
ATOM      5  C   UNL     1       1.860   8.521  18.989  0.00  0.00    +0.000 A 
ATOM      6  C   UNL     1       1.038   8.981  20.029  0.00  0.00    +0.000 A 
ATOM      7  C   UNL     1       0.378  10.228  19.937  0.00  0.00    +0.000 A 
ATOM      8  C   UNL     1       1.049   8.007  21.046  0.00  0.00    +0.000 A 
ATOM      9  C   UNL     1       1.875   6.977  20.649  0.00  0.00    +0.000 A 
ATOM     10  C   UNL     1       2.196   5.773  21.459  0.00  0.00    +0.000 C 
ATOM     11  N   UNL     1       2.399   7.266  19.373  0.00  0.00    +0.000 N 
ATOM     12  C   UNL     1       3.346   6.415  18.640  0.00  0.00    +0.000 A 
ATOM     13  N   UNL     1       3.792   6.801  17.423  0.00  0.00    +0.000 NA
ATOM     14  C   UNL     1       4.750   6.029  16.838  0.00  0.00    +0.000 A 
ATOM     15  C   UNL     1       5.260   4.892  17.434  0.00  0.00    +0.000 A 
ATOM     16  C   UNL     1       4.708   4.518  18.652  0.00  0.00    +0.000 A 
ATOM     17  N   UNL     1       3.768   5.271  19.251  0.00  0.00    +0.000 NA
ATOM     18  C   UNL     1       6.490   4.217  16.898  0.00  0.00    +0.000 C 
ATOM     19  N   UNL     1       6.685   4.274  15.460  0.00  0.00    +0.000 NA
ATOM     20  C   UNL     1       6.296   5.517  14.815  0.00  0.00    +0.000 C 
ATOM     21  C   UNL     1       5.315   6.481  15.514  0.00  0.00    +0.000 C 
ATOM     22  H   UNL     1       6.252   3.471  15.009  0.00  0.00    +0.000 HD
ENDROOT
BRANCH  16  23
ATOM     23  N   UNL     1       5.236   3.362  19.244  0.00  0.00    +0.000 N 
ATOM     24  H   UNL     1       6.189   3.226  18.922  0.00  0.00    +0.000 HD
BRANCH  23  25
ATOM     25  C   UNL     1       4.556   2.088  19.268  0.00  0.00    +0.000 C 
BRANCH  25  26
ATOM     26  C   UNL     1       3.090   2.286  19.588  0.00  0.00    +0.000 A 
ATOM     27  C   UNL     1       2.646   2.438  20.912  0.00  0.00    +0.000 A 
ATOM     28  C   UNL     1       1.293   2.656  21.186  0.00  0.00    +0.000 A 
ATOM     29  C   UNL     1       0.371   2.710  20.143  0.00  0.00    +0.000 A 
ATOM     30  C   UNL     1       0.795   2.519  18.830  0.00  0.00    +0.000 A 
ATOM     31  C   UNL     1       2.144   2.300  18.556  0.00  0.00    +0.000 A 
ENDBRANCH  25  26
ENDBRANCH  23  25
ENDBRANCH  16  23
TORSDOF 3
ENDMDL
MODEL 4
REMARK VINA RESULT:      -7.9      0.913      1.088
REMARK  Name = 
REMARK  5 active torsions:
REMARK  status: ('A' for Active; 'I' for Inactive)
REMARK    1  A    between atoms: C_1  and  C_2
REMARK    2  A    between atoms: C_9  and  C_10
REMARK    3  A    between atoms: C_16  and  N_17
REMARK    4  A    between atoms: N_17  and  C_18
REMARK    5  A    between atoms: C_18  and  C_19
REMARK                            x       y       z     vdW  Elec       q    Type
REMARK                         _______ _______ _______ _____ _____    ______ ____
ROOT
ATOM      1  C   UNL     1      -1.395  11.877  21.230  0.00  0.00    +0.000 C 
ATOM      2  C   UNL     1      -0.475  10.796  20.735  0.00  0.00    +0.000 A 
ATOM      3  C   UNL     1      -0.320   9.583  21.407  0.00  0.00    +0.000 A 
ATOM      4  C   UNL     1       0.519   8.556  20.916  0.00  0.00    +0.000 A 
ATOM      5  C   UNL     1       1.225   8.760  19.712  0.00  0.00    +0.000 A 
ATOM      6  C   UNL     1       1.081   9.984  19.041  0.00  0.00    +0.000 A 
ATOM      7  C   UNL     1       0.240  10.999  19.553  0.00  0.00    +0.000 A 
ATOM      8  C   UNL     1       1.882   9.935  17.885  0.00  0.00    +0.000 A 
ATOM      9  C   UNL     1       2.492   8.700  17.833  0.00  0.00    +0.000 A 
ATOM     10  C   UNL     1       3.385   8.229  16.743  0.00  0.00    +0.000 C 
ATOM     11  N   UNL     1       2.102   7.941  18.955  0.00  0.00    +0.000 N 
ATOM     12  C   UNL     1       2.524   6.561  19.224  0.00  0.00    +0.000 A 
ATOM     13  N   UNL     1       2.075   5.925  20.331  0.00  0.00    +0.000 NA
ATOM     14  C   UNL     1       2.410   4.612  20.474  0.00  0.00    +0.000 A 
ATOM     15  C   UNL     1       3.178   3.932  19.548  0.00  0.00    +0.000 A 
ATOM     16  C   UNL     1       3.661   4.664  18.471  0.00  0.00    +0.000 A 
ATOM     17  N   UNL     1       3.335   5.960  18.307  0.00  0.00    +0.000 NA
ATOM     18  C   UNL     1       3.307   2.437  19.592  0.00  0.00    +0.000 C 
ATOM     19  N   UNL     1       3.277   1.823  20.907  0.00  0.00    +0.000 NA
ATOM     20  C   UNL     1       2.366   2.422  21.868  0.00  0.00    +0.000 C 
ATOM     21  C   UNL     1       1.859   3.864  21.662  0.00  0.00    +0.000 C 
ATOM     22  H   UNL     1       4.218   1.746  21.287  0.00  0.00    +0.000 HD
ENDROOT
BRANCH  16  23
ATOM     23  N   UNL     1       4.439   3.961  17.541  0.00  0.00    +0.000 N 
ATOM     24  H   UNL     1       4.938   3.216  18.017  0.00  0.00    +0.000 HD
BRANCH  23  25
ATOM     25  C   UNL     1       5.325   4.594  16.591  0.00  0.00    +0.000 C 
BRANCH  25  26
ATOM     26  C   UNL     1       6.335   5.455  17.317  0.00  0.00    +0.000 A 
ATOM     27  C   UNL     1       6.646   6.750  16.870  0.00  0.00    +0.000 A 
ATOM     28  C   UNL     1       7.555   7.545  17.574  0.00  0.00    +0.000 A 
ATOM     29  C   UNL     1       8.172   7.049  18.721  0.00  0.00    +0.000 A 
ATOM     30  C   UNL     1       7.903   5.751  19.149  0.00  0.00    +0.000 A 
ATOM     31  C   UNL     1       6.997   4.957  18.446  0.00  0.00    +0.000 A 
ENDBRANCH  25  26
ENDBRANCH  23  25
ENDBRANCH  16  23
TORSDOF 3
ENDMDL
MODEL 5
REMARK VINA RESULT:      -7.9      1.903      4.654
REMARK  Name = 
REMARK  5 active torsions:
REMARK  status: ('A' for Active; 'I' for Inactive)
REMARK    1  A    between atoms: C_1  and  C_2
REMARK    2  A    between atoms: C_9  and  C_10
REMARK    3  A    between atoms: C_16  and  N_17
REMARK    4  A    between atoms: N_17  and  C_18
REMARK    5  A    between atoms: C_18  and  C_19
REMARK                            x       y       z     vdW  Elec       q    Type
REMARK                         _______ _______ _______ _____ _____    ______ ____
ROOT
ATOM      1  C   UNL     1      -0.065  15.438  18.834  0.00  0.00    +0.000 C 
ATOM      2  C   UNL     1       0.156  13.977  19.114  0.00  0.00    +0.000 A 
ATOM      3  C   UNL     1       0.949  13.172  18.296  0.00  0.00    +0.000 A 
ATOM      4  C   UNL     1       1.182  11.808  18.586  0.00  0.00    +0.000 A 
ATOM      5  C   UNL     1       0.596  11.239  19.736  0.00  0.00    +0.000 A 
ATOM      6  C   UNL     1      -0.213  12.043  20.553  0.00  0.00    +0.000 A 
ATOM      7  C   UNL     1      -0.437  13.404  20.241  0.00  0.00    +0.000 A 
ATOM      8  C   UNL     1      -0.673  11.245  21.617  0.00  0.00    +0.000 A 
ATOM      9  C   UNL     1      -0.143   9.980  21.471  0.00  0.00    +0.000 A 
ATOM     10  C   UNL     1      -0.348   8.849  22.413  0.00  0.00    +0.000 C 
ATOM     11  N   UNL     1       0.654   9.942  20.309  0.00  0.00    +0.000 N 
ATOM     12  C   UNL     1       1.409   8.771  19.845  0.00  0.00    +0.000 A 
ATOM     13  N   UNL     1       2.153   8.854  18.719  0.00  0.00    +0.000 NA
ATOM     14  C   UNL     1       2.917   7.773  18.396  0.00  0.00    +0.000 A 
ATOM     15  C   UNL     1       2.947   6.624  19.163  0.00  0.00    +0.000 A 
ATOM     16  C   UNL     1       2.107   6.582  20.268  0.00  0.00    +0.000 A 
ATOM     17  N   UNL     1       1.352   7.642  20.609  0.00  0.00    +0.000 NA
ATOM     18  C   UNL     1       3.986   5.564  18.935  0.00  0.00    +0.000 C 
ATOM     19  N   UNL     1       4.433   5.379  17.566  0.00  0.00    +0.000 NA
ATOM     20  C   UNL     1       4.557   6.588  16.769  0.00  0.00    +0.000 C 
ATOM     21  C   UNL     1       3.811   7.872  17.185  0.00  0.00    +0.000 C 
ATOM     22  H   UNL     1       3.862   4.682  17.095  0.00  0.00    +0.000 HD
ENDROOT
BRANCH  16  23
ATOM     23  N   UNL     1       2.149   5.410  21.035  0.00  0.00    +0.000 N 
ATOM     24  H   UNL     1       3.114   5.117  21.146  0.00  0.00    +0.000 HD
BRANCH  23  25
ATOM     25  C   UNL     1       1.327   4.250  20.777  0.00  0.00    +0.000 C 
BRANCH  25  26
ATOM     26  C   UNL     1       2.058   3.288  19.865  0.00  0.00    +0.000 A 
ATOM     27  C   UNL     1       1.593   3.016  18.568  0.00  0.00    +0.000 A 
ATOM     28  C   UNL     1       2.301   2.153  17.727  0.00  0.00    +0.000 A 
ATOM     29  C   UNL     1       3.469   1.542  18.180  0.00  0.00    +0.000 A 
ATOM     30  C   UNL     1       3.916   1.773  19.479  0.00  0.00    +0.000 A 
ATOM     31  C   UNL     1       3.209   2.632  20.319  0.00  0.00    +0.000 A 
ENDBRANCH  25  26
ENDBRANCH  23  25
ENDBRANCH  16  23
TORSDOF 3
ENDMDL
MODEL 6
REMARK VINA RESULT:      -7.5      2.798      7.525
REMARK  Name = 
REMARK  5 active torsions:
REMARK  status: ('A' for Active; 'I' for Inactive)
REMARK    1  A    between atoms: C_1  and  C_2
REMARK    2  A    between atoms: C_9  and  C_10
REMARK    3  A    between atoms: C_16  and  N_17
REMARK    4  A    between atoms: N_17  and  C_18
REMARK    5  A    between atoms: C_18  and  C_19
REMARK                            x       y       z     vdW  Elec       q    Type
REMARK                         _______ _______ _______ _____ _____    ______ ____
ROOT
ATOM      1  C   UNL     1       3.548   1.913  20.970  0.00  0.00    +0.000 C 
ATOM      2  C   UNL     1       3.120   3.305  20.597  0.00  0.00    +0.000 A 
ATOM      3  C   UNL     1       2.279   4.069  21.408  0.00  0.00    +0.000 A 
ATOM      4  C   UNL     1       1.910   5.391  21.069  0.00  0.00    +0.000 A 
ATOM      5  C   UNL     1       2.404   5.960  19.877  0.00  0.00    +0.000 A 
ATOM      6  C   UNL     1       3.240   5.190  19.054  0.00  0.00    +0.000 A 
ATOM      7  C   UNL     1       3.591   3.867  19.409  0.00  0.00    +0.000 A 
ATOM      8  C   UNL     1       3.586   5.977  17.940  0.00  0.00    +0.000 A 
ATOM      9  C   UNL     1       2.993   7.214  18.083  0.00  0.00    +0.000 A 
ATOM     10  C   UNL     1       3.149   8.354  17.143  0.00  0.00    +0.000 C 
ATOM     11  N   UNL     1       2.251   7.238  19.280  0.00  0.00    +0.000 N 
ATOM     12  C   UNL     1       1.508   8.400  19.786  0.00  0.00    +0.000 A 
ATOM     13  N   UNL     1       0.839   8.311  20.959  0.00  0.00    +0.000 NA
ATOM     14  C   UNL     1       0.259   9.449  21.432  0.00  0.00    +0.000 A 
ATOM     15  C   UNL     1       0.329  10.657  20.764  0.00  0.00    +0.000 A 
ATOM     16  C   UNL     1       0.974  10.660  19.534  0.00  0.00    +0.000 A 
ATOM     17  N   UNL     1       1.561   9.549  19.053  0.00  0.00    +0.000 NA
ATOM     18  C   UNL     1      -0.083  11.939  21.429  0.00  0.00    +0.000 C 
ATOM     19  N   UNL     1      -1.169  11.851  22.389  0.00  0.00    +0.000 NA
ATOM     20  C   UNL     1      -1.191  10.656  23.216  0.00  0.00    +0.000 C 
ATOM     21  C   UNL     1      -0.429   9.390  22.773  0.00  0.00    +0.000 C 
ATOM     22  H   UNL     1      -2.064  11.998  21.928  0.00  0.00    +0.000 HD
ENDROOT
BRANCH  16  23
ATOM     23  N   UNL     1       1.037  11.892  18.869  0.00  0.00    +0.000 N 
ATOM     24  H   UNL     1       0.347  11.906  18.124  0.00  0.00    +0.000 HD
BRANCH  23  25
ATOM     25  C   UNL     1       2.263  12.487  18.390  0.00  0.00    +0.000 C 
BRANCH  25  26
ATOM     26  C   UNL     1       2.137  13.995  18.377  0.00  0.00    +0.000 A 
ATOM     27  C   UNL     1       3.180  14.811  17.907  0.00  0.00    +0.000 A 
ATOM     28  C   UNL     1       3.033  16.200  17.869  0.00  0.00    +0.000 A 
ATOM     29  C   UNL     1       1.849  16.787  18.312  0.00  0.00    +0.000 A 
ATOM     30  C   UNL     1       0.825  15.990  18.819  0.00  0.00    +0.000 A 
ATOM     31  C   UNL     1       0.972  14.605  18.859  0.00  0.00    +0.000 A 
ENDBRANCH  25  26
ENDBRANCH  23  25
ENDBRANCH  16  23
TORSDOF 3
ENDMDL
MODEL 7
REMARK VINA RESULT:      -7.2      2.053      8.747
REMARK  Name = 
REMARK  5 active torsions:
REMARK  status: ('A' for Active; 'I' for Inactive)
REMARK    1  A    between atoms: C_1  and  C_2
REMARK    2  A    between atoms: C_9  and  C_10
REMARK    3  A    between atoms: C_16  and  N_17
REMARK    4  A    between atoms: N_17  and  C_18
REMARK    5  A    between atoms: C_18  and  C_19
REMARK                            x       y       z     vdW  Elec       q    Type
REMARK                         _______ _______ _______ _____ _____    ______ ____
ROOT
ATOM      1  C   UNL     1       6.058   3.830  15.297  0.00  0.00    +0.000 C 
ATOM      2  C   UNL     1       5.216   4.672  16.216  0.00  0.00    +0.000 A 
ATOM      3  C   UNL     1       5.095   6.053  16.058  0.00  0.00    +0.000 A 
ATOM      4  C   UNL     1       4.273   6.834  16.904  0.00  0.00    +0.000 A 
ATOM      5  C   UNL     1       3.553   6.202  17.939  0.00  0.00    +0.000 A 
ATOM      6  C   UNL     1       3.684   4.815  18.107  0.00  0.00    +0.000 A 
ATOM      7  C   UNL     1       4.516   4.055  17.254  0.00  0.00    +0.000 A 
ATOM      8  C   UNL     1       2.876   4.439  19.197  0.00  0.00    +0.000 A 
ATOM      9  C   UNL     1       2.245   5.566  19.678  0.00  0.00    +0.000 A 
ATOM     10  C   UNL     1       1.268   5.591  20.797  0.00  0.00    +0.000 C 
ATOM     11  N   UNL     1       2.643   6.682  18.915  0.00  0.00    +0.000 N 
ATOM     12  C   UNL     1       2.152   8.053  19.112  0.00  0.00    +0.000 A 
ATOM     13  N   UNL     1       2.596   9.047  18.309  0.00  0.00    +0.000 NA
ATOM     14  C   UNL     1       2.027  10.275  18.466  0.00  0.00    +0.000 A 
ATOM     15  C   UNL     1       1.040  10.527  19.399  0.00  0.00    +0.000 A 
ATOM     16  C   UNL     1       0.681   9.477  20.235  0.00  0.00    +0.000 A 
ATOM     17  N   UNL     1       1.225   8.255  20.091  0.00  0.00    +0.000 NA
ATOM     18  C   UNL     1       0.249  11.804  19.371  0.00  0.00    +0.000 C 
ATOM     19  N   UNL     1       0.950  12.989  18.909  0.00  0.00    +0.000 NA
ATOM     20  C   UNL     1       1.893  12.787  17.822  0.00  0.00    +0.000 C 
ATOM     21  C   UNL     1       2.454  11.379  17.532  0.00  0.00    +0.000 C 
ATOM     22  H   UNL     1       1.385  13.473  19.691  0.00  0.00    +0.000 HD
ENDROOT
BRANCH  16  23
ATOM     23  N   UNL     1      -0.321   9.749  21.177  0.00  0.00    +0.000 N 
ATOM     24  H   UNL     1      -1.045  10.312  20.743  0.00  0.00    +0.000 HD
BRANCH  23  25
ATOM     25  C   UNL     1      -0.061  10.253  22.506  0.00  0.00    +0.000 C 
BRANCH  25  26
ATOM     26  C   UNL     1      -0.963  11.433  22.799  0.00  0.00    +0.000 A 
ATOM     27  C   UNL     1      -2.229  11.257  23.382  0.00  0.00    +0.000 A 
ATOM     28  C   UNL     1      -3.032  12.361  23.679  0.00  0.00    +0.000 A 
ATOM     29  C   UNL     1      -2.586  13.648  23.383  0.00  0.00    +0.000 A 
ATOM     30  C   UNL     1      -1.350  13.830  22.766  0.00  0.00    +0.000 A 
ATOM     31  C   UNL     1      -0.548  12.729  22.468  0.00  0.00    +0.000 A 
ENDBRANCH  25  26
ENDBRANCH  23  25
ENDBRANCH  16  23
TORSDOF 3
ENDMDL
MODEL 8
REMARK VINA RESULT:      -7.2      2.984      7.862
REMARK  Name = 
REMARK  5 active torsions:
REMARK  status: ('A' for Active; 'I' for Inactive)
REMARK    1  A    between atoms: C_1  and  C_2
REMARK    2  A    between atoms: C_9  and  C_10
REMARK    3  A    between atoms: C_16  and  N_17
REMARK    4  A    between atoms: N_17  and  C_18
REMARK    5  A    between atoms: C_18  and  C_19
REMARK                            x       y       z     vdW  Elec       q    Type
REMARK                         _______ _______ _______ _____ _____    ______ ____
ROOT
ATOM      1  C   UNL     1       3.650   2.313  20.630  0.00  0.00    +0.000 C 
ATOM      2  C   UNL     1       3.163   3.704  20.333  0.00  0.00    +0.000 A 
ATOM      3  C   UNL     1       2.306   4.393  21.193  0.00  0.00    +0.000 A 
ATOM      4  C   UNL     1       1.881   5.715  20.926  0.00  0.00    +0.000 A 
ATOM      5  C   UNL     1       2.333   6.360  19.756  0.00  0.00    +0.000 A 
ATOM      6  C   UNL     1       3.184   5.665  18.883  0.00  0.00    +0.000 A 
ATOM      7  C   UNL     1       3.592   4.341  19.168  0.00  0.00    +0.000 A 
ATOM      8  C   UNL     1       3.481   6.519  17.805  0.00  0.00    +0.000 A 
ATOM      9  C   UNL     1       2.844   7.723  18.017  0.00  0.00    +0.000 A 
ATOM     10  C   UNL     1       2.940   8.913  17.132  0.00  0.00    +0.000 C 
ATOM     11  N   UNL     1       2.121   7.659  19.226  0.00  0.00    +0.000 N 
ATOM     12  C   UNL     1       1.343   8.765  19.799  0.00  0.00    +0.000 A 
ATOM     13  N   UNL     1       0.697   8.592  20.975  0.00  0.00    +0.000 NA
ATOM     14  C   UNL     1       0.082   9.683  21.513  0.00  0.00    +0.000 A 
ATOM     15  C   UNL     1       0.094  10.923  20.905  0.00  0.00    +0.000 A 
ATOM     16  C   UNL     1       0.718  11.012  19.667  0.00  0.00    +0.000 A 
ATOM     17  N   UNL     1       1.339   9.949  19.123  0.00  0.00    +0.000 NA
ATOM     18  C   UNL     1      -0.355  12.154  21.638  0.00  0.00    +0.000 C 
ATOM     19  N   UNL     1      -1.421  11.977  22.608  0.00  0.00    +0.000 NA
ATOM     20  C   UNL     1      -1.383  10.743  23.376  0.00  0.00    +0.000 C 
ATOM     21  C   UNL     1      -0.581   9.531  22.859  0.00  0.00    +0.000 C 
ATOM     22  H   UNL     1      -2.329  12.112  22.169  0.00  0.00    +0.000 HD
ENDROOT
BRANCH  16  23
ATOM     23  N   UNL     1       0.722  12.276  19.063  0.00  0.00    +0.000 N 
ATOM     24  H   UNL     1       0.289  12.211  18.147  0.00  0.00    +0.000 HD
BRANCH  23  25
ATOM     25  C   UNL     1       1.889  13.123  18.976  0.00  0.00    +0.000 C 
BRANCH  25  26
ATOM     26  C   UNL     1       1.472  14.558  18.730  0.00  0.00    +0.000 A 
ATOM     27  C   UNL     1       0.126  14.951  18.811  0.00  0.00    +0.000 A 
ATOM     28  C   UNL     1      -0.235  16.287  18.617  0.00  0.00    +0.000 A 
ATOM     29  C   UNL     1       0.741  17.237  18.325  0.00  0.00    +0.000 A 
ATOM     30  C   UNL     1       2.073  16.850  18.202  0.00  0.00    +0.000 A 
ATOM     31  C   UNL     1       2.435  15.518  18.393  0.00  0.00    +0.000 A 
ENDBRANCH  25  26
ENDBRANCH  23  25
ENDBRANCH  16  23
TORSDOF 3
ENDMDL
MODEL 9
REMARK VINA RESULT:      -7.1      2.344      7.725
REMARK  Name = 
REMARK  5 active torsions:
REMARK  status: ('A' for Active; 'I' for Inactive)
REMARK    1  A    between atoms: C_1  and  C_2
REMARK    2  A    between atoms: C_9  and  C_10
REMARK    3  A    between atoms: C_16  and  N_17
REMARK    4  A    between atoms: N_17  and  C_18
REMARK    5  A    between atoms: C_18  and  C_19
REMARK                            x       y       z     vdW  Elec       q    Type
REMARK                         _______ _______ _______ _____ _____    ______ ____
ROOT
ATOM      1  C   UNL     1       3.818   2.151  20.355  0.00  0.00    +0.000 C 
ATOM      2  C   UNL     1       3.301   3.544  20.123  0.00  0.00    +0.000 A 
ATOM      3  C   UNL     1       2.450   4.183  21.025  0.00  0.00    +0.000 A 
ATOM      4  C   UNL     1       1.997   5.507  20.819  0.00  0.00    +0.000 A 
ATOM      5  C   UNL     1       2.415   6.205  19.667  0.00  0.00    +0.000 A 
ATOM      6  C   UNL     1       3.260   5.560  18.752  0.00  0.00    +0.000 A 
ATOM      7  C   UNL     1       3.696   4.234  18.975  0.00  0.00    +0.000 A 
ATOM      8  C   UNL     1       3.522   6.461  17.702  0.00  0.00    +0.000 A 
ATOM      9  C   UNL     1       2.868   7.644  17.974  0.00  0.00    +0.000 A 
ATOM     10  C   UNL     1       2.926   8.869  17.136  0.00  0.00    +0.000 C 
ATOM     11  N   UNL     1       2.170   7.520  19.193  0.00  0.00    +0.000 N 
ATOM     12  C   UNL     1       1.385   8.588  19.824  0.00  0.00    +0.000 A 
ATOM     13  N   UNL     1       0.765   8.358  21.005  0.00  0.00    +0.000 NA
ATOM     14  C   UNL     1       0.142   9.415  21.597  0.00  0.00    +0.000 A 
ATOM     15  C   UNL     1       0.121  10.679  21.038  0.00  0.00    +0.000 A 
ATOM     16  C   UNL     1       0.719  10.827  19.794  0.00  0.00    +0.000 A 
ATOM     17  N   UNL     1       1.347   9.798  19.196  0.00  0.00    +0.000 NA
ATOM     18  C   UNL     1      -0.335  11.872  21.829  0.00  0.00    +0.000 C 
ATOM     19  N   UNL     1      -1.378  11.637  22.811  0.00  0.00    +0.000 NA
ATOM     20  C   UNL     1      -1.304  10.375  23.528  0.00  0.00    +0.000 C 
ATOM     21  C   UNL     1      -0.491   9.199  22.948  0.00  0.00    +0.000 C 
ATOM     22  H   UNL     1      -2.297  11.773  22.394  0.00  0.00    +0.000 HD
ENDROOT
BRANCH  16  23
ATOM     23  N   UNL     1       0.689  12.114  19.240  0.00  0.00    +0.000 N 
ATOM     24  H   UNL     1       0.468  12.787  19.967  0.00  0.00    +0.000 HD
BRANCH  23  25
ATOM     25  C   UNL     1      -0.038  12.458  18.039  0.00  0.00    +0.000 C 
BRANCH  25  26
ATOM     26  C   UNL     1      -1.376  11.751  18.023  0.00  0.00    +0.000 A 
ATOM     27  C   UNL     1      -2.471  12.243  18.752  0.00  0.00    +0.000 A 
ATOM     28  C   UNL     1      -3.709  11.597  18.696  0.00  0.00    +0.000 A 
ATOM     29  C   UNL     1      -3.860  10.447  17.924  0.00  0.00    +0.000 A 
ATOM     30  C   UNL     1      -2.770   9.927  17.231  0.00  0.00    +0.000 A 
ATOM     31  C   UNL     1      -1.534  10.570  17.288  0.00  0.00    +0.000 A 
ENDBRANCH  25  26
ENDBRANCH  23  25
ENDBRANCH  16  23
TORSDOF 3
ENDMDL
