MODEL 1
REMARK VINA RESULT:      -8.0      0.000      0.000
REMARK  Name = 
REMARK  3 active torsions:
REMARK  status: ('A' for Active; 'I' for Inactive)
REMARK    1  A    between atoms: C_2  and  C_3
REMARK    2  A    between atoms: C_7  and  N_8
REMARK    3  A    between atoms: C_18  and  C_19
REMARK                            x       y       z     vdW  Elec       q    Type
REMARK                         _______ _______ _______ _____ _____    ______ ____
ROOT
ATOM      1  O   UNL     1       4.316   6.803  19.369  0.00  0.00    +0.000 OA
ATOM      2  C   UNL     1       3.230   6.646  18.810  0.00  0.00    +0.000 C 
ATOM      3  N   UNL     1       2.874   5.427  18.222  0.00  0.00    +0.000 N 
ATOM      4  C   UNL     1       1.556   5.045  17.740  0.00  0.00    +0.000 C 
ATOM      5  C   UNL     1       1.407   3.597  18.156  0.00  0.00    +0.000 C 
ATOM      6  C   UNL     1       2.819   3.049  18.048  0.00  0.00    +0.000 C 
ATOM      7  C   UNL     1       3.729   4.247  18.380  0.00  0.00    +0.000 C 
ENDROOT
BRANCH   7   8
ATOM      8  C   UNL     1       4.958   4.208  17.491  0.00  0.00    +0.000 A 
ATOM      9  C   UNL     1       6.245   4.501  17.973  0.00  0.00    +0.000 A 
ATOM     10  C   UNL     1       7.344   4.538  17.109  0.00  0.00    +0.000 A 
ATOM     11  C   UNL     1       7.171   4.288  15.750  0.00  0.00    +0.000 A 
ATOM     12  C   UNL     1       5.902   4.004  15.266  0.00  0.00    +0.000 A 
ATOM     13  F   UNL     1       5.729   3.779  13.956  0.00  0.00    +0.000 F 
ATOM     14  C   UNL     1       4.801   3.964  16.117  0.00  0.00    +0.000 A 
ENDBRANCH   7   8
BRANCH   2  15
ATOM     15  C   UNL     1       2.235   7.773  18.848  0.00  0.00    +0.000 A 
ATOM     16  C   UNL     1       2.038   8.526  17.698  0.00  0.00    +0.000 A 
ATOM     17  C   UNL     1       1.239   9.664  17.771  0.00  0.00    +0.000 A 
ATOM     18  C   UNL     1       0.663  10.018  18.990  0.00  0.00    +0.000 A 
ATOM     19  C   UNL     1       0.888   9.200  20.094  0.00  0.00    +0.000 A 
ATOM     20  N   UNL     1       1.644   8.069  20.034  0.00  0.00    +0.000 NA
BRANCH  19  21
ATOM     21  N   UNL     1       0.361   9.577  21.366  0.00  0.00    +0.000 N 
ATOM     22  C   UNL     1      -0.516  10.619  21.604  0.00  0.00    +0.000 A 
ATOM     23  C   UNL     1      -0.776  10.630  22.952  0.00  0.00    +0.000 A 
ATOM     24  C   UNL     1      -0.023   9.561  23.462  0.00  0.00    +0.000 A 
ATOM     25  N   UNL     1       0.652   8.906  22.514  0.00  0.00    +0.000 NA
ENDBRANCH  19  21
ENDBRANCH   2  15
TORSDOF 3
ENDMDL
MODEL 2
REMARK VINA RESULT:      -7.5      0.962      1.358
REMARK  Name = 
REMARK  3 active torsions:
REMARK  status: ('A' for Active; 'I' for Inactive)
REMARK    1  A    between atoms: C_2  and  C_3
REMARK    2  A    between atoms: C_7  and  N_8
REMARK    3  A    between atoms: C_18  and  C_19
REMARK                            x       y       z     vdW  Elec       q    Type
REMARK                         _______ _______ _______ _____ _____    ______ ____
ROOT
ATOM      1  O   UNL     1       4.183   6.896  19.348  0.00  0.00    +0.000 OA
ATOM      2  C   UNL     1       3.093   6.741  18.794  0.00  0.00    +0.000 C 
ATOM      3  N   UNL     1       2.742   5.531  18.186  0.00  0.00    +0.000 N 
ATOM      4  C   UNL     1       1.423   5.149  17.706  0.00  0.00    +0.000 C 
ATOM      5  C   UNL     1       1.287   3.693  18.096  0.00  0.00    +0.000 C 
ATOM      6  C   UNL     1       2.702   3.156  17.967  0.00  0.00    +0.000 C 
ATOM      7  C   UNL     1       3.606   4.354  18.315  0.00  0.00    +0.000 C 
ENDROOT
BRANCH   7   8
ATOM      8  C   UNL     1       4.829   4.341  17.417  0.00  0.00    +0.000 A 
ATOM      9  C   UNL     1       4.740   4.165  16.027  0.00  0.00    +0.000 A 
ATOM     10  C   UNL     1       5.893   4.074  15.239  0.00  0.00    +0.000 A 
ATOM     11  C   UNL     1       7.151   4.152  15.832  0.00  0.00    +0.000 A 
ATOM     12  C   UNL     1       7.246   4.321  17.207  0.00  0.00    +0.000 A 
ATOM     13  F   UNL     1       8.454   4.380  17.783  0.00  0.00    +0.000 F 
ATOM     14  C   UNL     1       6.105   4.413  18.000  0.00  0.00    +0.000 A 
ENDBRANCH   7   8
BRANCH   2  15
ATOM     15  C   UNL     1       2.091   7.860  18.861  0.00  0.00    +0.000 A 
ATOM     16  C   UNL     1       1.864   8.619  17.720  0.00  0.00    +0.000 A 
ATOM     17  C   UNL     1       1.058   9.751  17.817  0.00  0.00    +0.000 A 
ATOM     18  C   UNL     1       0.506  10.092  19.051  0.00  0.00    +0.000 A 
ATOM     19  C   UNL     1       0.760   9.269  20.144  0.00  0.00    +0.000 A 
ATOM     20  N   UNL     1       1.524   8.145  20.060  0.00  0.00    +0.000 NA
BRANCH  19  21
ATOM     21  N   UNL     1       0.258   9.635  21.430  0.00  0.00    +0.000 N 
ATOM     22  C   UNL     1      -0.573  10.705  21.701  0.00  0.00    +0.000 A 
ATOM     23  C   UNL     1      -0.823  10.692  23.051  0.00  0.00    +0.000 A 
ATOM     24  C   UNL     1      -0.113   9.579  23.527  0.00  0.00    +0.000 A 
ATOM     25  N   UNL     1       0.528   8.922  22.558  0.00  0.00    +0.000 NA
ENDBRANCH  19  21
ENDBRANCH   2  15
TORSDOF 3
ENDMDL
MODEL 3
REMARK VINA RESULT:      -7.3      3.857      8.270
REMARK  Name = 
REMARK  3 active torsions:
REMARK  status: ('A' for Active; 'I' for Inactive)
REMARK    1  A    between atoms: C_2  and  C_3
REMARK    2  A    between atoms: C_7  and  N_8
REMARK    3  A    between atoms: C_18  and  C_19
REMARK                            x       y       z     vdW  Elec       q    Type
REMARK                         _______ _______ _______ _____ _____    ______ ____
ROOT
ATOM      1  O   UNL     1       5.541   3.756  18.497  0.00  0.00    +0.000 OA
ATOM      2  C   UNL     1       5.199   4.549  17.618  0.00  0.00    +0.000 C 
ATOM      3  N   UNL     1       4.117   5.419  17.793  0.00  0.00    +0.000 N 
ATOM      4  C   UNL     1       3.757   6.543  16.941  0.00  0.00    +0.000 C 
ATOM      5  C   UNL     1       3.332   7.628  17.907  0.00  0.00    +0.000 C 
ATOM      6  C   UNL     1       2.684   6.859  19.044  0.00  0.00    +0.000 C 
ATOM      7  C   UNL     1       3.443   5.519  19.090  0.00  0.00    +0.000 C 
ENDROOT
BRANCH   7   8
ATOM      8  C   UNL     1       2.470   4.398  19.407  0.00  0.00    +0.000 A 
ATOM      9  C   UNL     1       1.652   3.812  18.427  0.00  0.00    +0.000 A 
ATOM     10  C   UNL     1       0.707   2.839  18.769  0.00  0.00    +0.000 A 
ATOM     11  C   UNL     1       0.561   2.443  20.096  0.00  0.00    +0.000 A 
ATOM     12  C   UNL     1       1.363   3.023  21.071  0.00  0.00    +0.000 A 
ATOM     13  F   UNL     1       1.215   2.656  22.351  0.00  0.00    +0.000 F 
ATOM     14  C   UNL     1       2.308   3.991  20.742  0.00  0.00    +0.000 A 
ENDBRANCH   7   8
BRANCH   2  15
ATOM     15  C   UNL     1       6.029   4.635  16.367  0.00  0.00    +0.000 A 
ATOM     16  C   UNL     1       7.107   5.510  16.343  0.00  0.00    +0.000 A 
ATOM     17  C   UNL     1       7.782   5.709  15.141  0.00  0.00    +0.000 A 
ATOM     18  C   UNL     1       7.359   5.030  13.999  0.00  0.00    +0.000 A 
ATOM     19  C   UNL     1       6.284   4.151  14.109  0.00  0.00    +0.000 A 
ATOM     20  N   UNL     1       5.631   3.925  15.282  0.00  0.00    +0.000 NA
BRANCH  19  21
ATOM     21  N   UNL     1       5.793   3.494  12.939  0.00  0.00    +0.000 N 
ATOM     22  C   UNL     1       6.490   2.583  12.168  0.00  0.00    +0.000 A 
ATOM     23  C   UNL     1       5.655   2.190  11.152  0.00  0.00    +0.000 A 
ATOM     24  C   UNL     1       4.468   2.904  11.379  0.00  0.00    +0.000 A 
ATOM     25  N   UNL     1       4.531   3.679  12.464  0.00  0.00    +0.000 NA
ENDBRANCH  19  21
ENDBRANCH   2  15
TORSDOF 3
ENDMDL
MODEL 4
REMARK VINA RESULT:      -7.2      3.647      7.620
REMARK  Name = 
REMARK  3 active torsions:
REMARK  status: ('A' for Active; 'I' for Inactive)
REMARK    1  A    between atoms: C_2  and  C_3
REMARK    2  A    between atoms: C_7  and  N_8
REMARK    3  A    between atoms: C_18  and  C_19
REMARK                            x       y       z     vdW  Elec       q    Type
REMARK                         _______ _______ _______ _____ _____    ______ ____
ROOT
ATOM      1  O   UNL     1       1.379   9.501  17.530  0.00  0.00    +0.000 OA
ATOM      2  C   UNL     1       1.655   8.922  18.582  0.00  0.00    +0.000 C 
ATOM      3  N   UNL     1       1.128   9.337  19.810  0.00  0.00    +0.000 N 
ATOM      4  C   UNL     1       1.190   8.615  21.072  0.00  0.00    +0.000 C 
ATOM      5  C   UNL     1      -0.172   8.828  21.696  0.00  0.00    +0.000 C 
ATOM      6  C   UNL     1      -0.554  10.228  21.247  0.00  0.00    +0.000 C 
ATOM      7  C   UNL     1       0.110  10.389  19.867  0.00  0.00    +0.000 C 
ENDROOT
BRANCH   7   8
ATOM      8  C   UNL     1       0.629  11.807  19.719  0.00  0.00    +0.000 A 
ATOM      9  C   UNL     1       1.773  12.265  20.393  0.00  0.00    +0.000 A 
ATOM     10  C   UNL     1       2.175  13.601  20.299  0.00  0.00    +0.000 A 
ATOM     11  C   UNL     1       1.436  14.500  19.535  0.00  0.00    +0.000 A 
ATOM     12  C   UNL     1       0.301  14.056  18.870  0.00  0.00    +0.000 A 
ATOM     13  F   UNL     1      -0.422  14.922  18.147  0.00  0.00    +0.000 F 
ATOM     14  C   UNL     1      -0.108  12.728  18.956  0.00  0.00    +0.000 A 
ENDBRANCH   7   8
BRANCH   2  15
ATOM     15  C   UNL     1       2.509   7.686  18.517  0.00  0.00    +0.000 A 
ATOM     16  C   UNL     1       3.548   7.643  17.596  0.00  0.00    +0.000 A 
ATOM     17  C   UNL     1       4.239   6.446  17.422  0.00  0.00    +0.000 A 
ATOM     18  C   UNL     1       3.872   5.329  18.171  0.00  0.00    +0.000 A 
ATOM     19  C   UNL     1       2.835   5.458  19.091  0.00  0.00    +0.000 A 
ATOM     20  N   UNL     1       2.166   6.626  19.292  0.00  0.00    +0.000 NA
BRANCH  19  21
ATOM     21  N   UNL     1       2.400   4.311  19.822  0.00  0.00    +0.000 N 
ATOM     22  C   UNL     1       2.189   4.251  21.187  0.00  0.00    +0.000 A 
ATOM     23  C   UNL     1       1.769   2.977  21.476  0.00  0.00    +0.000 A 
ATOM     24  C   UNL     1       1.746   2.326  20.234  0.00  0.00    +0.000 A 
ATOM     25  N   UNL     1       2.106   3.123  19.225  0.00  0.00    +0.000 NA
ENDBRANCH  19  21
ENDBRANCH   2  15
TORSDOF 3
ENDMDL
MODEL 5
REMARK VINA RESULT:      -7.2      2.967      4.541
REMARK  Name = 
REMARK  3 active torsions:
REMARK  status: ('A' for Active; 'I' for Inactive)
REMARK    1  A    between atoms: C_2  and  C_3
REMARK    2  A    between atoms: C_7  and  N_8
REMARK    3  A    between atoms: C_18  and  C_19
REMARK                            x       y       z     vdW  Elec       q    Type
REMARK                         _______ _______ _______ _____ _____    ______ ____
ROOT
ATOM      1  O   UNL     1       4.841   7.244  15.562  0.00  0.00    +0.000 OA
ATOM      2  C   UNL     1       4.761   6.442  16.495  0.00  0.00    +0.000 C 
ATOM      3  N   UNL     1       5.725   5.448  16.695  0.00  0.00    +0.000 N 
ATOM      4  C   UNL     1       5.870   4.600  17.868  0.00  0.00    +0.000 C 
ATOM      5  C   UNL     1       7.365   4.511  18.088  0.00  0.00    +0.000 C 
ATOM      6  C   UNL     1       7.935   4.549  16.681  0.00  0.00    +0.000 C 
ATOM      7  C   UNL     1       6.945   5.419  15.883  0.00  0.00    +0.000 C 
ENDROOT
BRANCH   7   8
ATOM      8  C   UNL     1       6.785   4.849  14.486  0.00  0.00    +0.000 A 
ATOM      9  C   UNL     1       7.730   5.068  13.470  0.00  0.00    +0.000 A 
ATOM     10  C   UNL     1       7.511   4.598  12.171  0.00  0.00    +0.000 A 
ATOM     11  C   UNL     1       6.339   3.908  11.867  0.00  0.00    +0.000 A 
ATOM     12  C   UNL     1       5.398   3.693  12.865  0.00  0.00    +0.000 A 
ATOM     13  F   UNL     1       4.263   3.044  12.573  0.00  0.00    +0.000 F 
ATOM     14  C   UNL     1       5.607   4.155  14.162  0.00  0.00    +0.000 A 
ENDBRANCH   7   8
BRANCH   2  15
ATOM     15  C   UNL     1       3.643   6.607  17.486  0.00  0.00    +0.000 A 
ATOM     16  C   UNL     1       3.181   7.887  17.762  0.00  0.00    +0.000 A 
ATOM     17  C   UNL     1       2.258   8.059  18.791  0.00  0.00    +0.000 A 
ATOM     18  C   UNL     1       1.826   6.948  19.515  0.00  0.00    +0.000 A 
ATOM     19  C   UNL     1       2.317   5.694  19.163  0.00  0.00    +0.000 A 
ATOM     20  N   UNL     1       3.200   5.505  18.143  0.00  0.00    +0.000 NA
BRANCH  19  21
ATOM     21  N   UNL     1       1.938   4.551  19.931  0.00  0.00    +0.000 N 
ATOM     22  C   UNL     1       2.223   4.342  21.267  0.00  0.00    +0.000 A 
ATOM     23  C   UNL     1       1.673   3.133  21.614  0.00  0.00    +0.000 A 
ATOM     24  C   UNL     1       1.067   2.674  20.435  0.00  0.00    +0.000 A 
ATOM     25  N   UNL     1       1.203   3.527  19.418  0.00  0.00    +0.000 NA
ENDBRANCH  19  21
ENDBRANCH   2  15
TORSDOF 3
ENDMDL
MODEL 6
REMARK VINA RESULT:      -7.1      3.536      7.940
REMARK  Name = 
REMARK  3 active torsions:
REMARK  status: ('A' for Active; 'I' for Inactive)
REMARK    1  A    between atoms: C_2  and  C_3
REMARK    2  A    between atoms: C_7  and  N_8
REMARK    3  A    between atoms: C_18  and  C_19
REMARK                            x       y       z     vdW  Elec       q    Type
REMARK                         _______ _______ _______ _____ _____    ______ ____
ROOT
ATOM      1  O   UNL     1       5.668   4.090  18.813  0.00  0.00    +0.000 OA
ATOM      2  C   UNL     1       5.262   4.766  17.866  0.00  0.00    +0.000 C 
ATOM      3  N   UNL     1       4.130   5.582  17.976  0.00  0.00    +0.000 N 
ATOM      4  C   UNL     1       3.687   6.588  17.022  0.00  0.00    +0.000 C 
ATOM      5  C   UNL     1       3.211   7.739  17.882  0.00  0.00    +0.000 C 
ATOM      6  C   UNL     1       2.631   7.053  19.107  0.00  0.00    +0.000 C 
ATOM      7  C   UNL     1       3.473   5.774  19.272  0.00  0.00    +0.000 C 
ENDROOT
BRANCH   7   8
ATOM      8  C   UNL     1       2.578   4.635  19.723  0.00  0.00    +0.000 A 
ATOM      9  C   UNL     1       2.564   4.167  21.048  0.00  0.00    +0.000 A 
ATOM     10  C   UNL     1       1.788   3.062  21.411  0.00  0.00    +0.000 A 
ATOM     11  C   UNL     1       1.020   2.403  20.454  0.00  0.00    +0.000 A 
ATOM     12  C   UNL     1       1.034   2.856  19.141  0.00  0.00    +0.000 A 
ATOM     13  F   UNL     1       0.308   2.216  18.215  0.00  0.00    +0.000 F 
ATOM     14  C   UNL     1       1.801   3.957  18.769  0.00  0.00    +0.000 A 
ENDBRANCH   7   8
BRANCH   2  15
ATOM     15  C   UNL     1       6.064   4.772  16.595  0.00  0.00    +0.000 A 
ATOM     16  C   UNL     1       7.202   5.567  16.529  0.00  0.00    +0.000 A 
ATOM     17  C   UNL     1       7.858   5.698  15.308  0.00  0.00    +0.000 A 
ATOM     18  C   UNL     1       7.358   5.034  14.188  0.00  0.00    +0.000 A 
ATOM     19  C   UNL     1       6.227   4.237  14.339  0.00  0.00    +0.000 A 
ATOM     20  N   UNL     1       5.588   4.077  15.531  0.00  0.00    +0.000 NA
BRANCH  19  21
ATOM     21  N   UNL     1       5.660   3.599  13.193  0.00  0.00    +0.000 N 
ATOM     22  C   UNL     1       4.422   3.872  12.643  0.00  0.00    +0.000 A 
ATOM     23  C   UNL     1       4.272   3.049  11.555  0.00  0.00    +0.000 A 
ATOM     24  C   UNL     1       5.465   2.311  11.508  0.00  0.00    +0.000 A 
ATOM     25  N   UNL     1       6.318   2.646  12.479  0.00  0.00    +0.000 NA
ENDBRANCH  19  21
ENDBRANCH   2  15
TORSDOF 3
ENDMDL
MODEL 7
REMARK VINA RESULT:      -7.1      3.155      7.479
REMARK  Name = 
REMARK  3 active torsions:
REMARK  status: ('A' for Active; 'I' for Inactive)
REMARK    1  A    between atoms: C_2  and  C_3
REMARK    2  A    between atoms: C_7  and  N_8
REMARK    3  A    between atoms: C_18  and  C_19
REMARK                            x       y       z     vdW  Elec       q    Type
REMARK                         _______ _______ _______ _____ _____    ______ ____
ROOT
ATOM      1  O   UNL     1       5.366   4.955  20.010  0.00  0.00    +0.000 OA
ATOM      2  C   UNL     1       5.007   5.581  19.011  0.00  0.00    +0.000 C 
ATOM      3  N   UNL     1       3.714   6.103  18.895  0.00  0.00    +0.000 N 
ATOM      4  C   UNL     1       3.241   7.041  17.887  0.00  0.00    +0.000 C 
ATOM      5  C   UNL     1       2.339   7.988  18.648  0.00  0.00    +0.000 C 
ATOM      6  C   UNL     1       1.709   7.105  19.710  0.00  0.00    +0.000 C 
ATOM      7  C   UNL     1       2.784   6.048  20.026  0.00  0.00    +0.000 C 
ENDROOT
BRANCH   7   8
ATOM      8  C   UNL     1       2.118   4.704  20.258  0.00  0.00    +0.000 A 
ATOM      9  C   UNL     1       2.242   4.001  21.467  0.00  0.00    +0.000 A 
ATOM     10  C   UNL     1       1.684   2.727  21.618  0.00  0.00    +0.000 A 
ATOM     11  C   UNL     1       1.000   2.136  20.559  0.00  0.00    +0.000 A 
ATOM     12  C   UNL     1       0.878   2.823  19.359  0.00  0.00    +0.000 A 
ATOM     13  F   UNL     1       0.234   2.251  18.333  0.00  0.00    +0.000 F 
ATOM     14  C   UNL     1       1.428   4.092  19.198  0.00  0.00    +0.000 A 
ENDBRANCH   7   8
BRANCH   2  15
ATOM     15  C   UNL     1       6.022   5.860  17.938  0.00  0.00    +0.000 A 
ATOM     16  C   UNL     1       6.917   6.906  18.123  0.00  0.00    +0.000 A 
ATOM     17  C   UNL     1       7.753   7.267  17.069  0.00  0.00    +0.000 A 
ATOM     18  C   UNL     1       7.669   6.576  15.862  0.00  0.00    +0.000 A 
ATOM     19  C   UNL     1       6.763   5.523  15.761  0.00  0.00    +0.000 A 
ATOM     20  N   UNL     1       5.958   5.140  16.789  0.00  0.00    +0.000 NA
BRANCH  19  21
ATOM     21  N   UNL     1       6.615   4.843  14.514  0.00  0.00    +0.000 N 
ATOM     22  C   UNL     1       5.647   3.903  14.213  0.00  0.00    +0.000 A 
ATOM     23  C   UNL     1       5.855   3.510  12.914  0.00  0.00    +0.000 A 
ATOM     24  C   UNL     1       6.964   4.260  12.495  0.00  0.00    +0.000 A 
ATOM     25  N   UNL     1       7.421   5.081  13.443  0.00  0.00    +0.000 NA
ENDBRANCH  19  21
ENDBRANCH   2  15
TORSDOF 3
ENDMDL
MODEL 8
REMARK VINA RESULT:      -7.1      3.521      7.652
REMARK  Name = 
REMARK  3 active torsions:
REMARK  status: ('A' for Active; 'I' for Inactive)
REMARK    1  A    between atoms: C_2  and  C_3
REMARK    2  A    between atoms: C_7  and  N_8
REMARK    3  A    between atoms: C_18  and  C_19
REMARK                            x       y       z     vdW  Elec       q    Type
REMARK                         _______ _______ _______ _____ _____    ______ ____
ROOT
ATOM      1  O   UNL     1       1.030   9.478  17.744  0.00  0.00    +0.000 OA
ATOM      2  C   UNL     1       1.465   8.967  18.777  0.00  0.00    +0.000 C 
ATOM      3  N   UNL     1       1.057   9.403  20.042  0.00  0.00    +0.000 N 
ATOM      4  C   UNL     1       1.314   8.745  21.314  0.00  0.00    +0.000 C 
ATOM      5  C   UNL     1       0.022   8.901  22.087  0.00  0.00    +0.000 C 
ATOM      6  C   UNL     1      -0.504  10.251  21.634  0.00  0.00    +0.000 C 
ATOM      7  C   UNL     1      -0.017  10.390  20.179  0.00  0.00    +0.000 C 
ENDROOT
BRANCH   7   8
ATOM      8  C   UNL     1       0.383  11.830  19.916  0.00  0.00    +0.000 A 
ATOM      9  C   UNL     1      -0.367  12.680  19.086  0.00  0.00    +0.000 A 
ATOM     10  C   UNL     1       0.075  13.976  18.799  0.00  0.00    +0.000 A 
ATOM     11  C   UNL     1       1.276  14.438  19.332  0.00  0.00    +0.000 A 
ATOM     12  C   UNL     1       2.025  13.601  20.149  0.00  0.00    +0.000 A 
ATOM     13  F   UNL     1       3.188  14.036  20.651  0.00  0.00    +0.000 F 
ATOM     14  C   UNL     1       1.594  12.310  20.443  0.00  0.00    +0.000 A 
ENDBRANCH   7   8
BRANCH   2  15
ATOM     15  C   UNL     1       2.388   7.786  18.658  0.00  0.00    +0.000 A 
ATOM     16  C   UNL     1       3.384   7.815  17.691  0.00  0.00    +0.000 A 
ATOM     17  C   UNL     1       4.138   6.664  17.471  0.00  0.00    +0.000 A 
ATOM     18  C   UNL     1       3.874   5.520  18.222  0.00  0.00    +0.000 A 
ATOM     19  C   UNL     1       2.875   5.576  19.190  0.00  0.00    +0.000 A 
ATOM     20  N   UNL     1       2.146   6.700  19.435  0.00  0.00    +0.000 NA
BRANCH  19  21
ATOM     21  N   UNL     1       2.544   4.398  19.926  0.00  0.00    +0.000 N 
ATOM     22  C   UNL     1       2.076   4.359  21.226  0.00  0.00    +0.000 A 
ATOM     23  C   UNL     1       1.876   3.039  21.544  0.00  0.00    +0.000 A 
ATOM     24  C   UNL     1       2.240   2.340  20.384  0.00  0.00    +0.000 A 
ATOM     25  N   UNL     1       2.627   3.148  19.394  0.00  0.00    +0.000 NA
ENDBRANCH  19  21
ENDBRANCH   2  15
TORSDOF 3
ENDMDL
MODEL 9
REMARK VINA RESULT:      -7.1      3.003      4.595
REMARK  Name = 
REMARK  3 active torsions:
REMARK  status: ('A' for Active; 'I' for Inactive)
REMARK    1  A    between atoms: C_2  and  C_3
REMARK    2  A    between atoms: C_7  and  N_8
REMARK    3  A    between atoms: C_18  and  C_19
REMARK                            x       y       z     vdW  Elec       q    Type
REMARK                         _______ _______ _______ _____ _____    ______ ____
ROOT
ATOM      1  O   UNL     1       4.651   7.172  15.748  0.00  0.00    +0.000 OA
ATOM      2  C   UNL     1       4.636   6.382  16.694  0.00  0.00    +0.000 C 
ATOM      3  N   UNL     1       5.644   5.428  16.872  0.00  0.00    +0.000 N 
ATOM      4  C   UNL     1       5.864   4.604  18.051  0.00  0.00    +0.000 C 
ATOM      5  C   UNL     1       7.368   4.574  18.216  0.00  0.00    +0.000 C 
ATOM      6  C   UNL     1       7.884   4.612  16.788  0.00  0.00    +0.000 C 
ATOM      7  C   UNL     1       6.833   5.432  16.016  0.00  0.00    +0.000 C 
ENDROOT
BRANCH   7   8
ATOM      8  C   UNL     1       6.644   4.835  14.634  0.00  0.00    +0.000 A 
ATOM      9  C   UNL     1       5.867   3.687  14.409  0.00  0.00    +0.000 A 
ATOM     10  C   UNL     1       5.781   3.115  13.136  0.00  0.00    +0.000 A 
ATOM     11  C   UNL     1       6.477   3.680  12.069  0.00  0.00    +0.000 A 
ATOM     12  C   UNL     1       7.251   4.812  12.285  0.00  0.00    +0.000 A 
ATOM     13  F   UNL     1       7.934   5.349  11.265  0.00  0.00    +0.000 F 
ATOM     14  C   UNL     1       7.342   5.390  13.548  0.00  0.00    +0.000 A 
ENDBRANCH   7   8
BRANCH   2  15
ATOM     15  C   UNL     1       3.549   6.519  17.725  0.00  0.00    +0.000 A 
ATOM     16  C   UNL     1       3.090   7.791  18.042  0.00  0.00    +0.000 A 
ATOM     17  C   UNL     1       2.199   7.936  19.103  0.00  0.00    +0.000 A 
ATOM     18  C   UNL     1       1.797   6.808  19.817  0.00  0.00    +0.000 A 
ATOM     19  C   UNL     1       2.283   5.564  19.424  0.00  0.00    +0.000 A 
ATOM     20  N   UNL     1       3.133   5.402  18.372  0.00  0.00    +0.000 NA
BRANCH  19  21
ATOM     21  N   UNL     1       1.935   4.404  20.180  0.00  0.00    +0.000 N 
ATOM     22  C   UNL     1       2.335   4.130  21.474  0.00  0.00    +0.000 A 
ATOM     23  C   UNL     1       1.774   2.927  21.824  0.00  0.00    +0.000 A 
ATOM     24  C   UNL     1       1.045   2.537  20.691  0.00  0.00    +0.000 A 
ATOM     25  N   UNL     1       1.118   3.427  19.698  0.00  0.00    +0.000 NA
ENDBRANCH  19  21
ENDBRANCH   2  15
TORSDOF 3
ENDMDL
