MODEL 1
REMARK VINA RESULT:      -7.3      0.000      0.000
REMARK  Name = 
REMARK  1 active torsions:
REMARK  status: ('A' for Active; 'I' for Inactive)
REMARK    1  A    between atoms: N_24  and  C_25
REMARK                            x       y       z     vdW  Elec       q    Type
REMARK                         _______ _______ _______ _____ _____    ______ ____
ROOT
ATOM      1  O   UNL     1      -2.886  10.360  17.671  0.00  0.00    +0.000 OA
ATOM      2  C   UNL     1      -3.219  11.451  18.164  0.00  0.00    +0.000 C 
ATOM      3  N   UNL     1      -4.137  12.160  17.407  0.00  0.00    +0.000 N 
ATOM      4  C   UNL     1      -5.396  12.256  18.080  0.00  0.00    +0.000 C 
ATOM      5  C   UNL     1      -6.676  12.829  17.408  0.00  0.00    +0.000 C 
ATOM      6  C   UNL     1      -6.798  14.205  16.699  0.00  0.00    +0.000 C 
ATOM      7  C   UNL     1      -7.365  15.420  17.498  0.00  0.00    +0.000 C 
ATOM      8  C   UNL     1      -7.917  15.139  18.907  0.00  0.00    +0.000 C 
ATOM      9  C   UNL     1      -7.267  13.871  19.384  0.00  0.00    +0.000 C 
ATOM     10  C   UNL     1      -7.468  13.379  20.802  0.00  0.00    +0.000 C 
ATOM     11  C   UNL     1      -7.001  14.412  21.795  0.00  0.00    +0.000 C 
ATOM     12  O   UNL     1      -5.804  15.019  21.285  0.00  0.00    +0.000 OA
ATOM     13  C   UNL     1      -4.916  15.176  22.306  0.00  0.00    +0.000 A 
ATOM     14  C   UNL     1      -5.157  16.283  23.145  0.00  0.00    +0.000 A 
ATOM     15  C   UNL     1      -4.459  16.392  24.338  0.00  0.00    +0.000 A 
ATOM     16  C   UNL     1      -3.535  15.409  24.650  0.00  0.00    +0.000 A 
ATOM     17  C   UNL     1      -3.261  14.335  23.772  0.00  0.00    +0.000 A 
ATOM     18  C   UNL     1      -3.926  14.221  22.535  0.00  0.00    +0.000 A 
ATOM     19  C   UNL     1      -3.715  13.043  21.533  0.00  0.00    +0.000 C 
ATOM     20  O   UNL     1      -4.447  12.060  21.625  0.00  0.00    +0.000 OA
ATOM     21  N   UNL     1      -2.692  13.135  20.551  0.00  0.00    +0.000 N 
ATOM     22  C   UNL     1      -1.414  13.545  21.154  0.00  0.00    +0.000 C 
ATOM     23  C   UNL     1      -0.716  12.296  21.750  0.00  0.00    +0.000 C 
ATOM     24  N   UNL     1      -0.282  11.542  20.584  0.00  0.00    +0.000 NA
ATOM     25  C   UNL     1      -1.429  10.962  19.875  0.00  0.00    +0.000 C 
ATOM     26  C   UNL     1      -2.429  12.098  19.408  0.00  0.00    +0.000 C 
ATOM     27  O   UNL     1      -7.643  12.834  18.472  0.00  0.00    +0.000 OA
ATOM     28  H   UNL     1      -4.246  11.643  16.535  0.00  0.00    +0.000 HD
ENDROOT
BRANCH  24  29
ATOM     29  C   UNL     1       0.916  10.713  20.621  0.00  0.00    +0.000 C 
ATOM     30  C   UNL     1       0.743   9.621  21.691  0.00  0.00    +0.000 C 
ATOM     31  O   UNL     1       1.115   8.592  20.736  0.00  0.00    +0.000 OA
ATOM     32  C   UNL     1       0.988   9.546  19.641  0.00  0.00    +0.000 C 
ENDBRANCH  24  29
TORSDOF 1
ENDMDL
MODEL 2
REMARK VINA RESULT:      -7.1      2.439      5.842
REMARK  Name = 
REMARK  1 active torsions:
REMARK  status: ('A' for Active; 'I' for Inactive)
REMARK    1  A    between atoms: N_24  and  C_25
REMARK                            x       y       z     vdW  Elec       q    Type
REMARK                         _______ _______ _______ _____ _____    ______ ____
ROOT
ATOM      1  O   UNL     1      -5.823  14.540  23.867  0.00  0.00    +0.000 OA
ATOM      2  C   UNL     1      -5.340  13.608  23.203  0.00  0.00    +0.000 C 
ATOM      3  N   UNL     1      -6.260  12.649  22.815  0.00  0.00    +0.000 N 
ATOM      4  C   UNL     1      -6.440  12.650  21.395  0.00  0.00    +0.000 C 
ATOM      5  C   UNL     1      -7.541  11.817  20.678  0.00  0.00    +0.000 C 
ATOM      6  C   UNL     1      -7.786  10.293  20.843  0.00  0.00    +0.000 C 
ATOM      7  C   UNL     1      -7.167   9.310  19.801  0.00  0.00    +0.000 C 
ATOM      8  C   UNL     1      -6.474   9.931  18.575  0.00  0.00    +0.000 C 
ATOM      9  C   UNL     1      -6.075  11.327  18.961  0.00  0.00    +0.000 C 
ATOM     10  C   UNL     1      -5.230  12.179  18.038  0.00  0.00    +0.000 C 
ATOM     11  C   UNL     1      -3.915  11.503  17.744  0.00  0.00    +0.000 C 
ATOM     12  O   UNL     1      -3.454  10.870  18.947  0.00  0.00    +0.000 OA
ATOM     13  C   UNL     1      -2.113  11.072  19.070  0.00  0.00    +0.000 A 
ATOM     14  C   UNL     1      -1.305  10.230  18.281  0.00  0.00    +0.000 A 
ATOM     15  C   UNL     1       0.046  10.511  18.156  0.00  0.00    +0.000 A 
ATOM     16  C   UNL     1       0.553  11.609  18.830  0.00  0.00    +0.000 A 
ATOM     17  C   UNL     1      -0.257  12.412  19.666  0.00  0.00    +0.000 A 
ATOM     18  C   UNL     1      -1.625  12.126  19.843  0.00  0.00    +0.000 A 
ATOM     19  C   UNL     1      -2.595  12.989  20.709  0.00  0.00    +0.000 C 
ATOM     20  O   UNL     1      -3.213  13.900  20.161  0.00  0.00    +0.000 OA
ATOM     21  N   UNL     1      -2.738  12.704  22.094  0.00  0.00    +0.000 N 
ATOM     22  C   UNL     1      -1.427  12.576  22.747  0.00  0.00    +0.000 C 
ATOM     23  C   UNL     1      -0.903  13.991  23.103  0.00  0.00    +0.000 C 
ATOM     24  N   UNL     1      -1.757  14.419  24.200  0.00  0.00    +0.000 NA
ATOM     25  C   UNL     1      -3.121  14.690  23.731  0.00  0.00    +0.000 C 
ATOM     26  C   UNL     1      -3.750  13.396  23.068  0.00  0.00    +0.000 C 
ATOM     27  O   UNL     1      -7.275  12.037  19.283  0.00  0.00    +0.000 OA
ATOM     28  H   UNL     1      -7.136  12.892  23.278  0.00  0.00    +0.000 HD
ENDROOT
BRANCH  24  29
ATOM     29  C   UNL     1      -1.263  15.314  25.239  0.00  0.00    +0.000 C 
ATOM     30  C   UNL     1      -0.421  16.427  24.591  0.00  0.00    +0.000 C 
ATOM     31  O   UNL     1      -1.182  17.445  25.292  0.00  0.00    +0.000 OA
ATOM     32  C   UNL     1      -2.179  16.453  25.674  0.00  0.00    +0.000 C 
ENDBRANCH  24  29
TORSDOF 1
ENDMDL
MODEL 3
REMARK VINA RESULT:      -7.0      1.877      2.130
REMARK  Name = 
REMARK  1 active torsions:
REMARK  status: ('A' for Active; 'I' for Inactive)
REMARK    1  A    between atoms: N_24  and  C_25
REMARK                            x       y       z     vdW  Elec       q    Type
REMARK                         _______ _______ _______ _____ _____    ______ ____
ROOT
ATOM      1  O   UNL     1      -1.450  10.941  17.966  0.00  0.00    +0.000 OA
ATOM      2  C   UNL     1      -2.172  11.843  18.423  0.00  0.00    +0.000 C 
ATOM      3  N   UNL     1      -3.339  12.055  17.708  0.00  0.00    +0.000 N 
ATOM      4  C   UNL     1      -4.488  11.693  18.479  0.00  0.00    +0.000 C 
ATOM      5  C   UNL     1      -5.926  11.643  17.886  0.00  0.00    +0.000 C 
ATOM      6  C   UNL     1      -6.636  12.787  17.113  0.00  0.00    +0.000 C 
ATOM      7  C   UNL     1      -7.605  13.735  17.888  0.00  0.00    +0.000 C 
ATOM      8  C   UNL     1      -7.917  13.377  19.352  0.00  0.00    +0.000 C 
ATOM      9  C   UNL     1      -6.782  12.524  19.843  0.00  0.00    +0.000 C 
ATOM     10  C   UNL     1      -6.687  12.116  21.298  0.00  0.00    +0.000 C 
ATOM     11  C   UNL     1      -6.628  13.331  22.189  0.00  0.00    +0.000 C 
ATOM     12  O   UNL     1      -5.813  14.322  21.547  0.00  0.00    +0.000 OA
ATOM     13  C   UNL     1      -5.011  14.910  22.478  0.00  0.00    +0.000 A 
ATOM     14  C   UNL     1      -5.637  15.893  23.271  0.00  0.00    +0.000 A 
ATOM     15  C   UNL     1      -4.980  16.375  24.393  0.00  0.00    +0.000 A 
ATOM     16  C   UNL     1      -3.720  15.878  24.680  0.00  0.00    +0.000 A 
ATOM     17  C   UNL     1      -3.080  14.935  23.844  0.00  0.00    +0.000 A 
ATOM     18  C   UNL     1      -3.708  14.457  22.676  0.00  0.00    +0.000 A 
ATOM     19  C   UNL     1      -3.089  13.383  21.727  0.00  0.00    +0.000 C 
ATOM     20  O   UNL     1      -3.351  12.199  21.936  0.00  0.00    +0.000 OA
ATOM     21  N   UNL     1      -2.248  13.794  20.659  0.00  0.00    +0.000 N 
ATOM     22  C   UNL     1      -1.217  14.733  21.128  0.00  0.00    +0.000 C 
ATOM     23  C   UNL     1      -0.039  13.927  21.732  0.00  0.00    +0.000 C 
ATOM     24  N   UNL     1       0.600  13.315  20.577  0.00  0.00    +0.000 NA
ATOM     25  C   UNL     1      -0.248  12.264  20.002  0.00  0.00    +0.000 C 
ATOM     26  C   UNL     1      -1.648  12.857  19.558  0.00  0.00    +0.000 C 
ATOM     27  O   UNL     1      -6.751  11.350  19.026  0.00  0.00    +0.000 OA
ATOM     28  H   UNL     1      -3.275  11.465  16.878  0.00  0.00    +0.000 HD
ENDROOT
BRANCH  24  29
ATOM     29  C   UNL     1       2.032  13.045  20.560  0.00  0.00    +0.000 C 
ATOM     30  C   UNL     1       2.605  13.445  19.189  0.00  0.00    +0.000 C 
ATOM     31  O   UNL     1       3.644  14.234  19.827  0.00  0.00    +0.000 OA
ATOM     32  C   UNL     1       2.954  14.130  21.106  0.00  0.00    +0.000 C 
ENDBRANCH  24  29
TORSDOF 1
ENDMDL
MODEL 4
REMARK VINA RESULT:      -6.9      3.951      6.730
REMARK  Name = 
REMARK  1 active torsions:
REMARK  status: ('A' for Active; 'I' for Inactive)
REMARK    1  A    between atoms: N_24  and  C_25
REMARK                            x       y       z     vdW  Elec       q    Type
REMARK                         _______ _______ _______ _____ _____    ______ ____
ROOT
ATOM      1  O   UNL     1       0.542  17.986  20.186  0.00  0.00    +0.000 OA
ATOM      2  C   UNL     1       0.438  17.009  20.948  0.00  0.00    +0.000 C 
ATOM      3  N   UNL     1      -0.196  17.289  22.147  0.00  0.00    +0.000 N 
ATOM      4  C   UNL     1      -1.455  16.614  22.233  0.00  0.00    +0.000 C 
ATOM      5  C   UNL     1      -2.481  16.875  23.374  0.00  0.00    +0.000 C 
ATOM      6  C   UNL     1      -2.188  16.811  24.898  0.00  0.00    +0.000 C 
ATOM      7  C   UNL     1      -2.519  15.500  25.677  0.00  0.00    +0.000 C 
ATOM      8  C   UNL     1      -3.264  14.394  24.907  0.00  0.00    +0.000 C 
ATOM      9  C   UNL     1      -2.997  14.624  23.447  0.00  0.00    +0.000 C 
ATOM     10  C   UNL     1      -3.456  13.627  22.405  0.00  0.00    +0.000 C 
ATOM     11  C   UNL     1      -2.854  12.269  22.666  0.00  0.00    +0.000 C 
ATOM     12  O   UNL     1      -1.500  12.453  23.103  0.00  0.00    +0.000 OA
ATOM     13  C   UNL     1      -0.709  11.517  22.508  0.00  0.00    +0.000 A 
ATOM     14  C   UNL     1      -0.757  10.235  23.091  0.00  0.00    +0.000 A 
ATOM     15  C   UNL     1      -0.179   9.166  22.423  0.00  0.00    +0.000 A 
ATOM     16  C   UNL     1       0.439   9.409  21.208  0.00  0.00    +0.000 A 
ATOM     17  C   UNL     1       0.531  10.710  20.662  0.00  0.00    +0.000 A 
ATOM     18  C   UNL     1      -0.013  11.821  21.339  0.00  0.00    +0.000 A 
ATOM     19  C   UNL     1       0.005  13.279  20.783  0.00  0.00    +0.000 C 
ATOM     20  O   UNL     1      -0.952  13.659  20.110  0.00  0.00    +0.000 OA
ATOM     21  N   UNL     1       1.114  14.121  21.063  0.00  0.00    +0.000 N 
ATOM     22  C   UNL     1       2.385  13.437  20.778  0.00  0.00    +0.000 C 
ATOM     23  C   UNL     1       2.691  13.556  19.263  0.00  0.00    +0.000 C 
ATOM     24  N   UNL     1       3.044  14.955  19.082  0.00  0.00    +0.000 NA
ATOM     25  C   UNL     1       1.868  15.820  19.242  0.00  0.00    +0.000 C 
ATOM     26  C   UNL     1       1.231  15.634  20.679  0.00  0.00    +0.000 C 
ATOM     27  O   UNL     1      -3.520  15.916  23.119  0.00  0.00    +0.000 OA
ATOM     28  H   UNL     1      -0.339  18.299  22.164  0.00  0.00    +0.000 HD
ENDROOT
BRANCH  24  29
ATOM     29  C   UNL     1       3.992  15.370  18.056  0.00  0.00    +0.000 C 
ATOM     30  C   UNL     1       4.906  16.469  18.627  0.00  0.00    +0.000 C 
ATOM     31  O   UNL     1       6.088  15.745  18.195  0.00  0.00    +0.000 OA
ATOM     32  C   UNL     1       5.279  14.562  17.927  0.00  0.00    +0.000 C 
ENDBRANCH  24  29
TORSDOF 1
ENDMDL
MODEL 5
REMARK VINA RESULT:      -6.9      1.374      1.669
REMARK  Name = 
REMARK  1 active torsions:
REMARK  status: ('A' for Active; 'I' for Inactive)
REMARK    1  A    between atoms: N_24  and  C_25
REMARK                            x       y       z     vdW  Elec       q    Type
REMARK                         _______ _______ _______ _____ _____    ______ ____
ROOT
ATOM      1  O   UNL     1      -3.073  10.557  17.972  0.00  0.00    +0.000 OA
ATOM      2  C   UNL     1      -3.344  11.594  18.599  0.00  0.00    +0.000 C 
ATOM      3  N   UNL     1      -4.530  12.197  18.215  0.00  0.00    +0.000 N 
ATOM      4  C   UNL     1      -5.503  12.135  19.262  0.00  0.00    +0.000 C 
ATOM      5  C   UNL     1      -6.988  12.559  19.067  0.00  0.00    +0.000 C 
ATOM      6  C   UNL     1      -7.483  13.919  18.504  0.00  0.00    +0.000 C 
ATOM      7  C   UNL     1      -7.887  15.049  19.502  0.00  0.00    +0.000 C 
ATOM      8  C   UNL     1      -7.916  14.688  20.998  0.00  0.00    +0.000 C 
ATOM      9  C   UNL     1      -7.013  13.501  21.177  0.00  0.00    +0.000 C 
ATOM     10  C   UNL     1      -6.686  12.971  22.557  0.00  0.00    +0.000 C 
ATOM     11  C   UNL     1      -6.036  14.041  23.398  0.00  0.00    +0.000 C 
ATOM     12  O   UNL     1      -5.144  14.793  22.561  0.00  0.00    +0.000 OA
ATOM     13  C   UNL     1      -3.994  15.042  23.248  0.00  0.00    +0.000 A 
ATOM     14  C   UNL     1      -4.068  16.102  24.173  0.00  0.00    +0.000 A 
ATOM     15  C   UNL     1      -3.036  16.279  25.082  0.00  0.00    +0.000 A 
ATOM     16  C   UNL     1      -1.960  15.410  25.030  0.00  0.00    +0.000 A 
ATOM     17  C   UNL     1      -1.871  14.387  24.058  0.00  0.00    +0.000 A 
ATOM     18  C   UNL     1      -2.887  14.209  23.098  0.00  0.00    +0.000 A 
ATOM     19  C   UNL     1      -2.886  13.077  22.024  0.00  0.00    +0.000 C 
ATOM     20  O   UNL     1      -3.437  12.012  22.297  0.00  0.00    +0.000 OA
ATOM     21  N   UNL     1      -2.255  13.301  20.771  0.00  0.00    +0.000 N 
ATOM     22  C   UNL     1      -0.903  13.853  20.949  0.00  0.00    +0.000 C 
ATOM     23  C   UNL     1       0.082  12.689  21.226  0.00  0.00    +0.000 C 
ATOM     24  N   UNL     1       0.192  12.006  19.946  0.00  0.00    +0.000 NA
ATOM     25  C   UNL     1      -1.053  11.302  19.617  0.00  0.00    +0.000 C 
ATOM     26  C   UNL     1      -2.268  12.316  19.553  0.00  0.00    +0.000 C 
ATOM     27  O   UNL     1      -7.549  12.437  20.384  0.00  0.00    +0.000 OA
ATOM     28  H   UNL     1      -4.860  11.681  17.399  0.00  0.00    +0.000 HD
ENDROOT
BRANCH  24  29
ATOM     29  C   UNL     1       1.419  11.325  19.554  0.00  0.00    +0.000 C 
ATOM     30  C   UNL     1       1.065  10.089  18.709  0.00  0.00    +0.000 C 
ATOM     31  O   UNL     1       1.991  10.503  17.671  0.00  0.00    +0.000 OA
ATOM     32  C   UNL     1       2.117  11.816  18.289  0.00  0.00    +0.000 C 
ENDBRANCH  24  29
TORSDOF 1
ENDMDL
MODEL 6
REMARK VINA RESULT:      -6.8      9.055     12.222
REMARK  Name = 
REMARK  1 active torsions:
REMARK  status: ('A' for Active; 'I' for Inactive)
REMARK    1  A    between atoms: N_24  and  C_25
REMARK                            x       y       z     vdW  Elec       q    Type
REMARK                         _______ _______ _______ _____ _____    ______ ____
ROOT
ATOM      1  O   UNL     1       4.521  15.264  24.561  0.00  0.00    +0.000 OA
ATOM      2  C   UNL     1       4.937  14.719  23.525  0.00  0.00    +0.000 C 
ATOM      3  N   UNL     1       4.150  14.946  22.408  0.00  0.00    +0.000 N 
ATOM      4  C   UNL     1       4.844  15.742  21.442  0.00  0.00    +0.000 C 
ATOM      5  C   UNL     1       4.160  16.319  20.169  0.00  0.00    +0.000 C 
ATOM      6  C   UNL     1       3.351  15.508  19.120  0.00  0.00    +0.000 C 
ATOM      7  C   UNL     1       4.069  15.025  17.821  0.00  0.00    +0.000 C 
ATOM      8  C   UNL     1       5.508  15.520  17.587  0.00  0.00    +0.000 C 
ATOM      9  C   UNL     1       6.064  15.891  18.932  0.00  0.00    +0.000 C 
ATOM     10  C   UNL     1       7.519  16.277  19.094  0.00  0.00    +0.000 C 
ATOM     11  C   UNL     1       8.421  15.160  18.633  0.00  0.00    +0.000 C 
ATOM     12  O   UNL     1       7.839  13.913  19.043  0.00  0.00    +0.000 OA
ATOM     13  C   UNL     1       8.825  13.094  19.505  0.00  0.00    +0.000 A 
ATOM     14  C   UNL     1       9.583  12.448  18.508  0.00  0.00    +0.000 A 
ATOM     15  C   UNL     1      10.747  11.787  18.866  0.00  0.00    +0.000 A 
ATOM     16  C   UNL     1      11.111  11.775  20.201  0.00  0.00    +0.000 A 
ATOM     17  C   UNL     1      10.311  12.377  21.199  0.00  0.00    +0.000 A 
ATOM     18  C   UNL     1       9.102  13.022  20.869  0.00  0.00    +0.000 A 
ATOM     19  C   UNL     1       8.187  13.749  21.904  0.00  0.00    +0.000 C 
ATOM     20  O   UNL     1       8.370  14.949  22.102  0.00  0.00    +0.000 OA
ATOM     21  N   UNL     1       7.178  13.015  22.583  0.00  0.00    +0.000 N 
ATOM     22  C   UNL     1       7.718  11.769  23.148  0.00  0.00    +0.000 C 
ATOM     23  C   UNL     1       8.390  12.084  24.509  0.00  0.00    +0.000 C 
ATOM     24  N   UNL     1       7.275  12.370  25.397  0.00  0.00    +0.000 NA
ATOM     25  C   UNL     1       6.639  13.647  25.049  0.00  0.00    +0.000 C 
ATOM     26  C   UNL     1       6.110  13.618  23.557  0.00  0.00    +0.000 C 
ATOM     27  O   UNL     1       5.242  16.939  19.456  0.00  0.00    +0.000 OA
ATOM     28  H   UNL     1       3.322  15.441  22.739  0.00  0.00    +0.000 HD
ENDROOT
BRANCH  24  29
ATOM     29  C   UNL     1       7.347  12.074  26.822  0.00  0.00    +0.000 C 
ATOM     30  C   UNL     1       6.455  13.064  27.591  0.00  0.00    +0.000 C 
ATOM     31  O   UNL     1       5.795  11.972  28.283  0.00  0.00    +0.000 OA
ATOM     32  C   UNL     1       6.394  11.012  27.363  0.00  0.00    +0.000 C 
ENDBRANCH  24  29
TORSDOF 1
ENDMDL
MODEL 7
REMARK VINA RESULT:      -6.7      3.980      7.830
REMARK  Name = 
REMARK  1 active torsions:
REMARK  status: ('A' for Active; 'I' for Inactive)
REMARK    1  A    between atoms: N_24  and  C_25
REMARK                            x       y       z     vdW  Elec       q    Type
REMARK                         _______ _______ _______ _____ _____    ______ ____
ROOT
ATOM      1  O   UNL     1      -1.947  17.571  22.856  0.00  0.00    +0.000 OA
ATOM      2  C   UNL     1      -1.538  16.879  21.908  0.00  0.00    +0.000 C 
ATOM      3  N   UNL     1      -0.989  17.609  20.867  0.00  0.00    +0.000 N 
ATOM      4  C   UNL     1       0.416  17.363  20.750  0.00  0.00    +0.000 C 
ATOM      5  C   UNL     1       1.342  18.173  19.798  0.00  0.00    +0.000 C 
ATOM      6  C   UNL     1       1.118  18.399  18.279  0.00  0.00    +0.000 C 
ATOM      7  C   UNL     1       1.843  17.464  17.260  0.00  0.00    +0.000 C 
ATOM      8  C   UNL     1       2.866  16.465  17.828  0.00  0.00    +0.000 C 
ATOM      9  C   UNL     1       2.510  16.250  19.271  0.00  0.00    +0.000 C 
ATOM     10  C   UNL     1       3.221  15.203  20.102  0.00  0.00    +0.000 C 
ATOM     11  C   UNL     1       3.059  13.835  19.488  0.00  0.00    +0.000 C 
ATOM     12  O   UNL     1       1.722  13.726  18.978  0.00  0.00    +0.000 OA
ATOM     13  C   UNL     1       1.234  12.488  19.271  0.00  0.00    +0.000 A 
ATOM     14  C   UNL     1       1.676  11.454  18.423  0.00  0.00    +0.000 A 
ATOM     15  C   UNL     1       1.429  10.136  18.777  0.00  0.00    +0.000 A 
ATOM     16  C   UNL     1       0.739   9.892  19.952  0.00  0.00    +0.000 A 
ATOM     17  C   UNL     1       0.250  10.940  20.765  0.00  0.00    +0.000 A 
ATOM     18  C   UNL     1       0.452  12.289  20.408  0.00  0.00    +0.000 A 
ATOM     19  C   UNL     1      -0.014  13.502  21.273  0.00  0.00    +0.000 C 
ATOM     20  O   UNL     1       0.770  13.964  22.100  0.00  0.00    +0.000 OA
ATOM     21  N   UNL     1      -1.317  14.035  21.085  0.00  0.00    +0.000 N 
ATOM     22  C   UNL     1      -2.332  12.970  21.089  0.00  0.00    +0.000 C 
ATOM     23  C   UNL     1      -2.694  12.627  22.557  0.00  0.00    +0.000 C 
ATOM     24  N   UNL     1      -3.453  13.781  23.013  0.00  0.00    +0.000 NA
ATOM     25  C   UNL     1      -2.586  14.956  23.163  0.00  0.00    +0.000 C 
ATOM     26  C   UNL     1      -1.890  15.313  21.786  0.00  0.00    +0.000 C 
ATOM     27  O   UNL     1       2.615  17.517  19.927  0.00  0.00    +0.000 OA
ATOM     28  H   UNL     1      -1.155  18.590  21.090  0.00  0.00    +0.000 HD
ENDROOT
BRANCH  24  29
ATOM     29  C   UNL     1      -4.506  13.647  24.013  0.00  0.00    +0.000 C 
ATOM     30  C   UNL     1      -5.765  13.065  23.347  0.00  0.00    +0.000 C 
ATOM     31  O   UNL     1      -5.863  12.041  24.371  0.00  0.00    +0.000 OA
ATOM     32  C   UNL     1      -4.523  12.367  24.842  0.00  0.00    +0.000 C 
ENDBRANCH  24  29
TORSDOF 1
ENDMDL
MODEL 8
REMARK VINA RESULT:      -6.7      4.423      6.691
REMARK  Name = 
REMARK  1 active torsions:
REMARK  status: ('A' for Active; 'I' for Inactive)
REMARK    1  A    between atoms: N_24  and  C_25
REMARK                            x       y       z     vdW  Elec       q    Type
REMARK                         _______ _______ _______ _____ _____    ______ ____
ROOT
ATOM      1  O   UNL     1      -0.766  10.068  22.656  0.00  0.00    +0.000 OA
ATOM      2  C   UNL     1      -0.737  11.137  22.024  0.00  0.00    +0.000 C 
ATOM      3  N   UNL     1      -1.617  12.098  22.492  0.00  0.00    +0.000 N 
ATOM      4  C   UNL     1      -0.916  13.211  23.054  0.00  0.00    +0.000 C 
ATOM      5  C   UNL     1      -1.626  14.360  23.826  0.00  0.00    +0.000 C 
ATOM      6  C   UNL     1      -2.824  15.203  23.310  0.00  0.00    +0.000 C 
ATOM      7  C   UNL     1      -2.545  16.589  22.649  0.00  0.00    +0.000 C 
ATOM      8  C   UNL     1      -1.096  17.108  22.690  0.00  0.00    +0.000 C 
ATOM      9  C   UNL     1      -0.208  15.908  22.859  0.00  0.00    +0.000 C 
ATOM     10  C   UNL     1       1.298  16.036  22.786  0.00  0.00    +0.000 C 
ATOM     11  C   UNL     1       1.720  16.605  21.455  0.00  0.00    +0.000 C 
ATOM     12  O   UNL     1       0.883  16.038  20.437  0.00  0.00    +0.000 OA
ATOM     13  C   UNL     1       1.647  15.730  19.352  0.00  0.00    +0.000 A 
ATOM     14  C   UNL     1       1.974  16.819  18.521  0.00  0.00    +0.000 A 
ATOM     15  C   UNL     1       2.934  16.654  17.534  0.00  0.00    +0.000 A 
ATOM     16  C   UNL     1       3.525  15.410  17.397  0.00  0.00    +0.000 A 
ATOM     17  C   UNL     1       3.147  14.309  18.200  0.00  0.00    +0.000 A 
ATOM     18  C   UNL     1       2.145  14.438  19.183  0.00  0.00    +0.000 A 
ATOM     19  C   UNL     1       1.704  13.287  20.139  0.00  0.00    +0.000 C 
ATOM     20  O   UNL     1       2.271  13.180  21.225  0.00  0.00    +0.000 OA
ATOM     21  N   UNL     1       0.671  12.399  19.735  0.00  0.00    +0.000 N 
ATOM     22  C   UNL     1       0.912  11.888  18.377  0.00  0.00    +0.000 C 
ATOM     23  C   UNL     1       1.894  10.691  18.458  0.00  0.00    +0.000 C 
ATOM     24  N   UNL     1       1.106   9.625  19.056  0.00  0.00    +0.000 NA
ATOM     25  C   UNL     1       0.826   9.907  20.469  0.00  0.00    +0.000 C 
ATOM     26  C   UNL     1       0.038  11.273  20.620  0.00  0.00    +0.000 C 
ATOM     27  O   UNL     1      -0.565  15.289  24.100  0.00  0.00    +0.000 OA
ATOM     28  H   UNL     1      -2.181  11.641  23.209  0.00  0.00    +0.000 HD
ENDROOT
BRANCH  24  29
ATOM     29  C   UNL     1       1.356   8.226  18.734  0.00  0.00    +0.000 C 
ATOM     30  C   UNL     1       2.582   8.131  17.809  0.00  0.00    +0.000 C 
ATOM     31  O   UNL     1       3.190   7.138  18.676  0.00  0.00    +0.000 OA
ATOM     32  C   UNL     1       2.208   7.425  19.714  0.00  0.00    +0.000 C 
ENDBRANCH  24  29
TORSDOF 1
ENDMDL
MODEL 9
REMARK VINA RESULT:      -6.5      7.460     12.077
REMARK  Name = 
REMARK  1 active torsions:
REMARK  status: ('A' for Active; 'I' for Inactive)
REMARK    1  A    between atoms: N_24  and  C_25
REMARK                            x       y       z     vdW  Elec       q    Type
REMARK                         _______ _______ _______ _____ _____    ______ ____
ROOT
ATOM      1  O   UNL     1       5.741  16.473  17.888  0.00  0.00    +0.000 OA
ATOM      2  C   UNL     1       5.882  15.465  18.602  0.00  0.00    +0.000 C 
ATOM      3  N   UNL     1       6.632  14.457  18.021  0.00  0.00    +0.000 N 
ATOM      4  C   UNL     1       7.870  14.271  18.713  0.00  0.00    +0.000 C 
ATOM      5  C   UNL     1       9.003  13.342  18.189  0.00  0.00    +0.000 C 
ATOM      6  C   UNL     1       8.849  11.851  17.786  0.00  0.00    +0.000 C 
ATOM      7  C   UNL     1       9.205  10.744  18.828  0.00  0.00    +0.000 C 
ATOM      8  C   UNL     1       9.839  11.205  20.152  0.00  0.00    +0.000 C 
ATOM      9  C   UNL     1       9.449  12.642  20.346  0.00  0.00    +0.000 C 
ATOM     10  C   UNL     1       9.777  13.373  21.631  0.00  0.00    +0.000 C 
ATOM     11  C   UNL     1       9.156  12.674  22.814  0.00  0.00    +0.000 C 
ATOM     12  O   UNL     1       7.854  12.208  22.430  0.00  0.00    +0.000 OA
ATOM     13  C   UNL     1       6.982  12.435  23.452  0.00  0.00    +0.000 A 
ATOM     14  C   UNL     1       7.039  11.502  24.506  0.00  0.00    +0.000 A 
ATOM     15  C   UNL     1       6.367  11.775  25.688  0.00  0.00    +0.000 A 
ATOM     16  C   UNL     1       5.650  12.955  25.777  0.00  0.00    +0.000 A 
ATOM     17  C   UNL     1       5.552  13.855  24.690  0.00  0.00    +0.000 A 
ATOM     18  C   UNL     1       6.192  13.584  23.464  0.00  0.00    +0.000 A 
ATOM     19  C   UNL     1       6.172  14.545  22.235  0.00  0.00    +0.000 C 
ATOM     20  O   UNL     1       7.076  15.373  22.127  0.00  0.00    +0.000 OA
ATOM     21  N   UNL     1       5.122  14.444  21.284  0.00  0.00    +0.000 N 
ATOM     22  C   UNL     1       3.809  14.413  21.945  0.00  0.00    +0.000 C 
ATOM     23  C   UNL     1       3.370  15.866  22.258  0.00  0.00    +0.000 C 
ATOM     24  N   UNL     1       3.049  16.428  20.956  0.00  0.00    +0.000 NA
ATOM     25  C   UNL     1       4.263  16.624  20.153  0.00  0.00    +0.000 C 
ATOM     26  C   UNL     1       5.022  15.250  19.946  0.00  0.00    +0.000 C 
ATOM     27  O   UNL     1       9.982  13.379  19.241  0.00  0.00    +0.000 OA
ATOM     28  H   UNL     1       6.809  14.752  17.060  0.00  0.00    +0.000 HD
ENDROOT
BRANCH  24  29
ATOM     29  C   UNL     1       2.026  17.455  20.805  0.00  0.00    +0.000 C 
ATOM     30  C   UNL     1       1.752  17.680  19.308  0.00  0.00    +0.000 C 
ATOM     31  O   UNL     1       0.325  17.519  19.519  0.00  0.00    +0.000 OA
ATOM     32  C   UNL     1       0.570  17.003  20.860  0.00  0.00    +0.000 C 
ENDBRANCH  24  29
TORSDOF 1
ENDMDL
