MODEL 1
REMARK VINA RESULT:      -8.1      0.000      0.000
REMARK  Name = 
REMARK  5 active torsions:
REMARK  status: ('A' for Active; 'I' for Inactive)
REMARK    1  A    between atoms: C_7  and  C_8
REMARK    2  A    between atoms: C_8  and  O_9
REMARK    3  A    between atoms: O_9  and  C_10
REMARK    4  A    between atoms: C_10  and  C_11
REMARK    5  A    between atoms: C_11  and  C_12
REMARK                            x       y       z     vdW  Elec       q    Type
REMARK                         _______ _______ _______ _____ _____    ______ ____
ROOT
ATOM      1  C   UNL     1       4.552   4.984  18.181  0.00  0.00    +0.000 C 
ATOM      2  C   UNL     1       5.642   5.138  19.283  0.00  0.00    +0.000 C 
ATOM      3  C   UNL     1       7.041   5.434  18.765  0.00  0.00    +0.000 C 
ATOM      4  N   UNL     1       7.480   4.456  17.780  0.00  0.00    +0.000 NA
ATOM      5  C   UNL     1       6.547   4.390  16.658  0.00  0.00    +0.000 C 
ATOM      6  C   UNL     1       5.131   4.007  17.111  0.00  0.00    +0.000 C 
ATOM      7  H   UNL     1       7.533   3.539  18.228  0.00  0.00    +0.000 HD
ENDROOT
BRANCH   1   8
ATOM      8  C   UNL     1       3.228   4.485  18.840  0.00  0.00    +0.000 A 
ATOM      9  C   UNL     1       2.213   3.836  18.126  0.00  0.00    +0.000 A 
ATOM     10  C   UNL     1       1.021   3.468  18.758  0.00  0.00    +0.000 A 
ATOM     11  C   UNL     1       0.810   3.741  20.107  0.00  0.00    +0.000 A 
ATOM     12  C   UNL     1       1.797   4.398  20.832  0.00  0.00    +0.000 A 
ATOM     13  C   UNL     1       2.976   4.764  20.205  0.00  0.00    +0.000 A 
ENDBRANCH   1   8
BRANCH   1  14
ATOM     14  C   UNL     1       4.227   6.344  17.486  0.00  0.00    +0.000 C 
BRANCH  14  15
ATOM     15  O   UNL     1       3.302   7.085  18.281  0.00  0.00    +0.000 OA
BRANCH  15  16
ATOM     16  C   UNL     1       2.746   8.198  17.594  0.00  0.00    +0.000 C 
BRANCH  16  23
ATOM     17 CL   UNL     1       0.717   8.891  22.370  0.00  0.00    +0.000 Cl
ATOM     18  C   UNL     1       0.711   9.184  20.675  0.00  0.00    +0.000 A 
ATOM     19  C   UNL     1      -0.258  10.013  20.120  0.00  0.00    +0.000 A 
ATOM     20  C   UNL     1      -0.251  10.243  18.747  0.00  0.00    +0.000 A 
ATOM     21 CL   UNL     1      -1.450  11.260  18.047  0.00  0.00    +0.000 Cl
ATOM     22  C   UNL     1       0.719   9.658  17.931  0.00  0.00    +0.000 A 
ATOM     23  C   UNL     1       1.706   8.832  18.483  0.00  0.00    +0.000 A 
ATOM     24  C   UNL     1       1.680   8.590  19.868  0.00  0.00    +0.000 A 
ENDBRANCH  16  23
ENDBRANCH  15  16
ENDBRANCH  14  15
ENDBRANCH   1  14
TORSDOF 5
ENDMDL
MODEL 2
REMARK VINA RESULT:      -8.0      0.188      2.136
REMARK  Name = 
REMARK  5 active torsions:
REMARK  status: ('A' for Active; 'I' for Inactive)
REMARK    1  A    between atoms: C_7  and  C_8
REMARK    2  A    between atoms: C_8  and  O_9
REMARK    3  A    between atoms: O_9  and  C_10
REMARK    4  A    between atoms: C_10  and  C_11
REMARK    5  A    between atoms: C_11  and  C_12
REMARK                            x       y       z     vdW  Elec       q    Type
REMARK                         _______ _______ _______ _____ _____    ______ ____
ROOT
ATOM      1  C   UNL     1       4.520   5.091  18.091  0.00  0.00    +0.000 C 
ATOM      2  C   UNL     1       5.705   5.089  19.102  0.00  0.00    +0.000 C 
ATOM      3  C   UNL     1       7.078   5.305  18.483  0.00  0.00    +0.000 C 
ATOM      4  N   UNL     1       7.351   4.358  17.412  0.00  0.00    +0.000 NA
ATOM      5  C   UNL     1       6.328   4.435  16.372  0.00  0.00    +0.000 C 
ATOM      6  C   UNL     1       4.926   4.139  16.923  0.00  0.00    +0.000 C 
ATOM      7  H   UNL     1       7.363   3.414  17.802  0.00  0.00    +0.000 HD
ENDROOT
BRANCH   1   8
ATOM      8  C   UNL     1       3.217   4.659  18.833  0.00  0.00    +0.000 A 
ATOM      9  C   UNL     1       2.987   4.914  20.191  0.00  0.00    +0.000 A 
ATOM     10  C   UNL     1       1.827   4.446  20.816  0.00  0.00    +0.000 A 
ATOM     11  C   UNL     1       0.876   3.714  20.110  0.00  0.00    +0.000 A 
ATOM     12  C   UNL     1       1.090   3.437  18.766  0.00  0.00    +0.000 A 
ATOM     13  C   UNL     1       2.240   3.898  18.147  0.00  0.00    +0.000 A 
ENDBRANCH   1   8
BRANCH   1  14
ATOM     14  C   UNL     1       4.255   6.512  17.502  0.00  0.00    +0.000 C 
BRANCH  14  15
ATOM     15  O   UNL     1       3.254   7.177  18.272  0.00  0.00    +0.000 OA
BRANCH  15  16
ATOM     16  C   UNL     1       2.614   8.229  17.562  0.00  0.00    +0.000 C 
BRANCH  16  23
ATOM     17 CL   UNL     1      -1.570  11.309  18.198  0.00  0.00    +0.000 Cl
ATOM     18  C   UNL     1      -0.333  10.300  18.838  0.00  0.00    +0.000 A 
ATOM     19  C   UNL     1      -0.268  10.070  20.209  0.00  0.00    +0.000 A 
ATOM     20  C   UNL     1       0.737   9.249  20.713  0.00  0.00    +0.000 A 
ATOM     21 CL   UNL     1       0.834   8.964  22.408  0.00  0.00    +0.000 Cl
ATOM     22  C   UNL     1       1.667   8.654  19.860  0.00  0.00    +0.000 A 
ATOM     23  C   UNL     1       1.601   8.870  18.477  0.00  0.00    +0.000 A 
ATOM     24  C   UNL     1       0.595   9.715  17.978  0.00  0.00    +0.000 A 
ENDBRANCH  16  23
ENDBRANCH  15  16
ENDBRANCH  14  15
ENDBRANCH   1  14
TORSDOF 5
ENDMDL
MODEL 3
REMARK VINA RESULT:      -7.9      0.847      2.089
REMARK  Name = 
REMARK  5 active torsions:
REMARK  status: ('A' for Active; 'I' for Inactive)
REMARK    1  A    between atoms: C_7  and  C_8
REMARK    2  A    between atoms: C_8  and  O_9
REMARK    3  A    between atoms: O_9  and  C_10
REMARK    4  A    between atoms: C_10  and  C_11
REMARK    5  A    between atoms: C_11  and  C_12
REMARK                            x       y       z     vdW  Elec       q    Type
REMARK                         _______ _______ _______ _____ _____    ______ ____
ROOT
ATOM      1  C   UNL     1       3.956   4.455  18.295  0.00  0.00    +0.000 C 
ATOM      2  C   UNL     1       5.245   4.885  19.056  0.00  0.00    +0.000 C 
ATOM      3  C   UNL     1       6.396   5.335  18.169  0.00  0.00    +0.000 C 
ATOM      4  N   UNL     1       6.735   4.338  17.164  0.00  0.00    +0.000 NA
ATOM      5  C   UNL     1       5.576   4.015  16.336  0.00  0.00    +0.000 C 
ATOM      6  C   UNL     1       4.408   3.471  17.171  0.00  0.00    +0.000 C 
ATOM      7  H   UNL     1       7.057   3.491  17.636  0.00  0.00    +0.000 HD
ENDROOT
BRANCH   1   8
ATOM      8  C   UNL     1       2.949   3.832  19.310  0.00  0.00    +0.000 A 
ATOM      9  C   UNL     1       1.560   3.865  19.131  0.00  0.00    +0.000 A 
ATOM     10  C   UNL     1       0.704   3.346  20.107  0.00  0.00    +0.000 A 
ATOM     11  C   UNL     1       1.206   2.790  21.281  0.00  0.00    +0.000 A 
ATOM     12  C   UNL     1       2.579   2.760  21.487  0.00  0.00    +0.000 A 
ATOM     13  C   UNL     1       3.427   3.276  20.522  0.00  0.00    +0.000 A 
ENDBRANCH   1   8
BRANCH   1  14
ATOM     14  C   UNL     1       3.236   5.670  17.631  0.00  0.00    +0.000 C 
BRANCH  14  15
ATOM     15  O   UNL     1       3.221   6.776  18.532  0.00  0.00    +0.000 OA
BRANCH  15  16
ATOM     16  C   UNL     1       2.933   8.011  17.891  0.00  0.00    +0.000 C 
BRANCH  16  23
ATOM     17 CL   UNL     1      -1.262  11.144  17.897  0.00  0.00    +0.000 Cl
ATOM     18  C   UNL     1      -0.125  10.148  18.720  0.00  0.00    +0.000 A 
ATOM     19  C   UNL     1      -0.233   9.966  20.095  0.00  0.00    +0.000 A 
ATOM     20  C   UNL     1       0.693   9.156  20.748  0.00  0.00    +0.000 A 
ATOM     21 CL   UNL     1       0.576   8.931  22.450  0.00  0.00    +0.000 Cl
ATOM     22  C   UNL     1       1.714   8.525  20.037  0.00  0.00    +0.000 A 
ATOM     23  C   UNL     1       1.822   8.692  18.651  0.00  0.00    +0.000 A 
ATOM     24  C   UNL     1       0.896   9.526  18.001  0.00  0.00    +0.000 A 
ENDBRANCH  16  23
ENDBRANCH  15  16
ENDBRANCH  14  15
ENDBRANCH   1  14
TORSDOF 5
ENDMDL
MODEL 4
REMARK VINA RESULT:      -7.9      2.816      5.554
REMARK  Name = 
REMARK  5 active torsions:
REMARK  status: ('A' for Active; 'I' for Inactive)
REMARK    1  A    between atoms: C_7  and  C_8
REMARK    2  A    between atoms: C_8  and  O_9
REMARK    3  A    between atoms: O_9  and  C_10
REMARK    4  A    between atoms: C_10  and  C_11
REMARK    5  A    between atoms: C_11  and  C_12
REMARK                            x       y       z     vdW  Elec       q    Type
REMARK                         _______ _______ _______ _____ _____    ______ ____
ROOT
ATOM      1  C   UNL     1       6.177   4.734  16.032  0.00  0.00    +0.000 C 
ATOM      2  C   UNL     1       7.538   4.549  16.766  0.00  0.00    +0.000 C 
ATOM      3  C   UNL     1       7.532   4.935  18.237  0.00  0.00    +0.000 C 
ATOM      4  N   UNL     1       7.049   6.292  18.445  0.00  0.00    +0.000 NA
ATOM      5  C   UNL     1       5.708   6.460  17.890  0.00  0.00    +0.000 C 
ATOM      6  C   UNL     1       5.670   6.167  16.384  0.00  0.00    +0.000 C 
ATOM      7  H   UNL     1       7.687   6.944  17.985  0.00  0.00    +0.000 HD
ENDROOT
BRANCH   1   8
ATOM      8  C   UNL     1       6.385   4.496  14.504  0.00  0.00    +0.000 A 
ATOM      9  C   UNL     1       5.633   3.578  13.760  0.00  0.00    +0.000 A 
ATOM     10  C   UNL     1       5.908   3.362  12.407  0.00  0.00    +0.000 A 
ATOM     11  C   UNL     1       6.937   4.049  11.765  0.00  0.00    +0.000 A 
ATOM     12  C   UNL     1       7.705   4.953  12.486  0.00  0.00    +0.000 A 
ATOM     13  C   UNL     1       7.435   5.164  13.827  0.00  0.00    +0.000 A 
ENDBRANCH   1   8
BRANCH   1  14
ATOM     14  C   UNL     1       5.109   3.700  16.509  0.00  0.00    +0.000 C 
BRANCH  14  15
ATOM     15  O   UNL     1       3.805   4.270  16.413  0.00  0.00    +0.000 OA
BRANCH  15  16
ATOM     16  C   UNL     1       2.794   3.441  16.970  0.00  0.00    +0.000 C 
BRANCH  16  23
ATOM     17 CL   UNL     1       1.433   2.544  21.945  0.00  0.00    +0.000 Cl
ATOM     18  C   UNL     1       1.800   3.622  20.656  0.00  0.00    +0.000 A 
ATOM     19  C   UNL     1       1.778   4.996  20.876  0.00  0.00    +0.000 A 
ATOM     20  C   UNL     1       2.079   5.857  19.824  0.00  0.00    +0.000 A 
ATOM     21 CL   UNL     1       2.046   7.559  20.080  0.00  0.00    +0.000 Cl
ATOM     22  C   UNL     1       2.408   5.357  18.563  0.00  0.00    +0.000 A 
ATOM     23  C   UNL     1       2.444   3.975  18.337  0.00  0.00    +0.000 A 
ATOM     24  C   UNL     1       2.121   3.112  19.398  0.00  0.00    +0.000 A 
ENDBRANCH  16  23
ENDBRANCH  15  16
ENDBRANCH  14  15
ENDBRANCH   1  14
TORSDOF 5
ENDMDL
MODEL 5
REMARK VINA RESULT:      -7.9      2.801      5.741
REMARK  Name = 
REMARK  5 active torsions:
REMARK  status: ('A' for Active; 'I' for Inactive)
REMARK    1  A    between atoms: C_7  and  C_8
REMARK    2  A    between atoms: C_8  and  O_9
REMARK    3  A    between atoms: O_9  and  C_10
REMARK    4  A    between atoms: C_10  and  C_11
REMARK    5  A    between atoms: C_11  and  C_12
REMARK                            x       y       z     vdW  Elec       q    Type
REMARK                         _______ _______ _______ _____ _____    ______ ____
ROOT
ATOM      1  C   UNL     1       6.217   4.741  16.058  0.00  0.00    +0.000 C 
ATOM      2  C   UNL     1       7.579   4.540  16.787  0.00  0.00    +0.000 C 
ATOM      3  C   UNL     1       7.582   4.922  18.259  0.00  0.00    +0.000 C 
ATOM      4  N   UNL     1       7.113   6.284  18.473  0.00  0.00    +0.000 NA
ATOM      5  C   UNL     1       5.772   6.467  17.923  0.00  0.00    +0.000 C 
ATOM      6  C   UNL     1       5.725   6.179  16.416  0.00  0.00    +0.000 C 
ATOM      7  H   UNL     1       7.755   6.930  18.012  0.00  0.00    +0.000 HD
ENDROOT
BRANCH   1   8
ATOM      8  C   UNL     1       6.417   4.506  14.529  0.00  0.00    +0.000 A 
ATOM      9  C   UNL     1       5.679   3.571  13.793  0.00  0.00    +0.000 A 
ATOM     10  C   UNL     1       5.948   3.359  12.437  0.00  0.00    +0.000 A 
ATOM     11  C   UNL     1       6.956   4.067  11.786  0.00  0.00    +0.000 A 
ATOM     12  C   UNL     1       7.710   4.989  12.499  0.00  0.00    +0.000 A 
ATOM     13  C   UNL     1       7.446   5.196  13.842  0.00  0.00    +0.000 A 
ENDBRANCH   1   8
BRANCH   1  14
ATOM     14  C   UNL     1       5.141   3.716  16.536  0.00  0.00    +0.000 C 
BRANCH  14  15
ATOM     15  O   UNL     1       3.840   4.294  16.432  0.00  0.00    +0.000 OA
BRANCH  15  16
ATOM     16  C   UNL     1       2.820   3.468  16.975  0.00  0.00    +0.000 C 
BRANCH  16  23
ATOM     17 CL   UNL     1       2.032   7.583  20.114  0.00  0.00    +0.000 Cl
ATOM     18  C   UNL     1       2.067   5.885  19.838  0.00  0.00    +0.000 A 
ATOM     19  C   UNL     1       1.738   5.010  20.868  0.00  0.00    +0.000 A 
ATOM     20  C   UNL     1       1.768   3.638  20.630  0.00  0.00    +0.000 A 
ATOM     21 CL   UNL     1       1.372   2.544  21.898  0.00  0.00    +0.000 Cl
ATOM     22  C   UNL     1       2.117   3.140  19.374  0.00  0.00    +0.000 A 
ATOM     23  C   UNL     1       2.438   4.015  18.328  0.00  0.00    +0.000 A 
ATOM     24  C   UNL     1       2.423   5.397  18.581  0.00  0.00    +0.000 A 
ENDBRANCH  16  23
ENDBRANCH  15  16
ENDBRANCH  14  15
ENDBRANCH   1  14
TORSDOF 5
ENDMDL
MODEL 6
REMARK VINA RESULT:      -7.9      0.754      1.253
REMARK  Name = 
REMARK  5 active torsions:
REMARK  status: ('A' for Active; 'I' for Inactive)
REMARK    1  A    between atoms: C_7  and  C_8
REMARK    2  A    between atoms: C_8  and  O_9
REMARK    3  A    between atoms: O_9  and  C_10
REMARK    4  A    between atoms: C_10  and  C_11
REMARK    5  A    between atoms: C_11  and  C_12
REMARK                            x       y       z     vdW  Elec       q    Type
REMARK                         _______ _______ _______ _____ _____    ______ ____
ROOT
ATOM      1  C   UNL     1       4.474   4.994  18.189  0.00  0.00    +0.000 C 
ATOM      2  C   UNL     1       5.578   5.165  19.274  0.00  0.00    +0.000 C 
ATOM      3  C   UNL     1       6.976   5.427  18.732  0.00  0.00    +0.000 C 
ATOM      4  N   UNL     1       7.389   4.414  17.772  0.00  0.00    +0.000 NA
ATOM      5  C   UNL     1       6.443   4.328  16.662  0.00  0.00    +0.000 C 
ATOM      6  C   UNL     1       5.027   3.978  17.142  0.00  0.00    +0.000 C 
ATOM      7  H   UNL     1       7.436   3.510  18.245  0.00  0.00    +0.000 HD
ENDROOT
BRANCH   1   8
ATOM      8  C   UNL     1       3.151   4.533  18.877  0.00  0.00    +0.000 A 
ATOM      9  C   UNL     1       2.869   4.763  20.230  0.00  0.00    +0.000 A 
ATOM     10  C   UNL     1       1.695   4.269  20.806  0.00  0.00    +0.000 A 
ATOM     11  C   UNL     1       0.780   3.535  20.055  0.00  0.00    +0.000 A 
ATOM     12  C   UNL     1       1.046   3.282  18.716  0.00  0.00    +0.000 A 
ATOM     13  C   UNL     1       2.210   3.768  18.146  0.00  0.00    +0.000 A 
ENDBRANCH   1   8
BRANCH   1  14
ATOM     14  C   UNL     1       4.158   6.337  17.459  0.00  0.00    +0.000 C 
BRANCH  14  15
ATOM     15  O   UNL     1       3.437   7.206  18.331  0.00  0.00    +0.000 OA
BRANCH  15  16
ATOM     16  C   UNL     1       2.352   7.862  17.690  0.00  0.00    +0.000 C 
BRANCH  16  23
ATOM     17 CL   UNL     1       0.500   8.997  22.453  0.00  0.00    +0.000 Cl
ATOM     18  C   UNL     1       0.891   9.455  20.842  0.00  0.00    +0.000 A 
ATOM     19  C   UNL     1       0.675  10.764  20.423  0.00  0.00    +0.000 A 
ATOM     20  C   UNL     1       0.998  11.122  19.117  0.00  0.00    +0.000 A 
ATOM     21 CL   UNL     1       0.727  12.735  18.583  0.00  0.00    +0.000 Cl
ATOM     22  C   UNL     1       1.540  10.186  18.234  0.00  0.00    +0.000 A 
ATOM     23  C   UNL     1       1.773   8.869  18.652  0.00  0.00    +0.000 A 
ATOM     24  C   UNL     1       1.426   8.511  19.966  0.00  0.00    +0.000 A 
ENDBRANCH  16  23
ENDBRANCH  15  16
ENDBRANCH  14  15
ENDBRANCH   1  14
TORSDOF 5
ENDMDL
MODEL 7
REMARK VINA RESULT:      -7.9      0.855      1.225
REMARK  Name = 
REMARK  5 active torsions:
REMARK  status: ('A' for Active; 'I' for Inactive)
REMARK    1  A    between atoms: C_7  and  C_8
REMARK    2  A    between atoms: C_8  and  O_9
REMARK    3  A    between atoms: O_9  and  C_10
REMARK    4  A    between atoms: C_10  and  C_11
REMARK    5  A    between atoms: C_11  and  C_12
REMARK                            x       y       z     vdW  Elec       q    Type
REMARK                         _______ _______ _______ _____ _____    ______ ____
ROOT
ATOM      1  C   UNL     1       3.976   4.497  18.344  0.00  0.00    +0.000 C 
ATOM      2  C   UNL     1       5.294   4.966  19.030  0.00  0.00    +0.000 C 
ATOM      3  C   UNL     1       6.403   5.380  18.074  0.00  0.00    +0.000 C 
ATOM      4  N   UNL     1       6.705   4.339  17.102  0.00  0.00    +0.000 NA
ATOM      5  C   UNL     1       5.513   3.974  16.340  0.00  0.00    +0.000 C 
ATOM      6  C   UNL     1       4.385   3.464  17.248  0.00  0.00    +0.000 C 
ATOM      7  H   UNL     1       7.051   3.515  17.598  0.00  0.00    +0.000 HD
ENDROOT
BRANCH   1   8
ATOM      8  C   UNL     1       3.016   3.918  19.429  0.00  0.00    +0.000 A 
ATOM      9  C   UNL     1       3.467   3.273  20.588  0.00  0.00    +0.000 A 
ATOM     10  C   UNL     1       2.558   2.717  21.493  0.00  0.00    +0.000 A 
ATOM     11  C   UNL     1       1.186   2.786  21.267  0.00  0.00    +0.000 A 
ATOM     12  C   UNL     1       0.716   3.408  20.117  0.00  0.00    +0.000 A 
ATOM     13  C   UNL     1       1.616   3.955  19.219  0.00  0.00    +0.000 A 
ENDBRANCH   1   8
BRANCH   1  14
ATOM     14  C   UNL     1       3.221   5.678  17.657  0.00  0.00    +0.000 C 
BRANCH  14  15
ATOM     15  O   UNL     1       3.254   6.829  18.499  0.00  0.00    +0.000 OA
BRANCH  15  16
ATOM     16  C   UNL     1       2.883   8.023  17.823  0.00  0.00    +0.000 C 
BRANCH  16  23
ATOM     17 CL   UNL     1       0.607   8.955  22.444  0.00  0.00    +0.000 Cl
ATOM     18  C   UNL     1       0.695   9.167  20.739  0.00  0.00    +0.000 A 
ATOM     19  C   UNL     1      -0.236   9.976  20.094  0.00  0.00    +0.000 A 
ATOM     20  C   UNL     1      -0.152  10.141  18.714  0.00  0.00    +0.000 A 
ATOM     21 CL   UNL     1      -1.303  11.131  17.903  0.00  0.00    +0.000 Cl
ATOM     22  C   UNL     1       0.854   9.511  17.980  0.00  0.00    +0.000 A 
ATOM     23  C   UNL     1       1.803   8.705  18.623  0.00  0.00    +0.000 A 
ATOM     24  C   UNL     1       1.700   8.529  20.014  0.00  0.00    +0.000 A 
ENDBRANCH  16  23
ENDBRANCH  15  16
ENDBRANCH  14  15
ENDBRANCH   1  14
TORSDOF 5
ENDMDL
MODEL 8
REMARK VINA RESULT:      -7.9      1.630      4.238
REMARK  Name = 
REMARK  5 active torsions:
REMARK  status: ('A' for Active; 'I' for Inactive)
REMARK    1  A    between atoms: C_7  and  C_8
REMARK    2  A    between atoms: C_8  and  O_9
REMARK    3  A    between atoms: O_9  and  C_10
REMARK    4  A    between atoms: C_10  and  C_11
REMARK    5  A    between atoms: C_11  and  C_12
REMARK                            x       y       z     vdW  Elec       q    Type
REMARK                         _______ _______ _______ _____ _____    ______ ____
ROOT
ATOM      1  C   UNL     1       2.963   4.497  18.633  0.00  0.00    +0.000 C 
ATOM      2  C   UNL     1       2.225   3.197  18.195  0.00  0.00    +0.000 C 
ATOM      3  C   UNL     1       0.857   2.991  18.830  0.00  0.00    +0.000 C 
ATOM      4  N   UNL     1       0.913   3.052  20.283  0.00  0.00    +0.000 NA
ATOM      5  C   UNL     1       1.472   4.325  20.731  0.00  0.00    +0.000 C 
ATOM      6  C   UNL     1       2.892   4.550  20.191  0.00  0.00    +0.000 C 
ATOM      7  H   UNL     1       1.500   2.289  20.623  0.00  0.00    +0.000 HD
ENDROOT
BRANCH   1   8
ATOM      8  C   UNL     1       4.417   4.472  18.069  0.00  0.00    +0.000 A 
ATOM      9  C   UNL     1       5.541   4.823  18.827  0.00  0.00    +0.000 A 
ATOM     10  C   UNL     1       6.814   4.842  18.248  0.00  0.00    +0.000 A 
ATOM     11  C   UNL     1       6.997   4.518  16.906  0.00  0.00    +0.000 A 
ATOM     12  C   UNL     1       5.895   4.180  16.131  0.00  0.00    +0.000 A 
ATOM     13  C   UNL     1       4.635   4.164  16.703  0.00  0.00    +0.000 A 
ENDBRANCH   1   8
BRANCH   1  14
ATOM     14  C   UNL     1       2.279   5.779  18.061  0.00  0.00    +0.000 C 
BRANCH  14  15
ATOM     15  O   UNL     1       2.830   6.940  18.681  0.00  0.00    +0.000 OA
BRANCH  15  16
ATOM     16  C   UNL     1       2.534   8.139  17.979  0.00  0.00    +0.000 C 
BRANCH  16  23
ATOM     17 CL   UNL     1      -1.439  11.547  18.028  0.00  0.00    +0.000 Cl
ATOM     18  C   UNL     1      -0.364  10.476  18.839  0.00  0.00    +0.000 A 
ATOM     19  C   UNL     1      -0.470  10.301  20.215  0.00  0.00    +0.000 A 
ATOM     20  C   UNL     1       0.405   9.429  20.858  0.00  0.00    +0.000 A 
ATOM     21 CL   UNL     1       0.290   9.210  22.562  0.00  0.00    +0.000 Cl
ATOM     22  C   UNL     1       1.374   8.731  20.137  0.00  0.00    +0.000 A 
ATOM     23  C   UNL     1       1.480   8.892  18.750  0.00  0.00    +0.000 A 
ATOM     24  C   UNL     1       0.605   9.788  18.110  0.00  0.00    +0.000 A 
ENDBRANCH  16  23
ENDBRANCH  15  16
ENDBRANCH  14  15
ENDBRANCH   1  14
TORSDOF 5
ENDMDL
MODEL 9
REMARK VINA RESULT:      -7.9      0.768      1.889
REMARK  Name = 
REMARK  5 active torsions:
REMARK  status: ('A' for Active; 'I' for Inactive)
REMARK    1  A    between atoms: C_7  and  C_8
REMARK    2  A    between atoms: C_8  and  O_9
REMARK    3  A    between atoms: O_9  and  C_10
REMARK    4  A    between atoms: C_10  and  C_11
REMARK    5  A    between atoms: C_11  and  C_12
REMARK                            x       y       z     vdW  Elec       q    Type
REMARK                         _______ _______ _______ _____ _____    ______ ____
ROOT
ATOM      1  C   UNL     1       4.549   4.957  18.163  0.00  0.00    +0.000 C 
ATOM      2  C   UNL     1       5.606   5.133  19.293  0.00  0.00    +0.000 C 
ATOM      3  C   UNL     1       7.015   5.448  18.811  0.00  0.00    +0.000 C 
ATOM      4  N   UNL     1       7.494   4.471  17.844  0.00  0.00    +0.000 NA
ATOM      5  C   UNL     1       6.593   4.385  16.698  0.00  0.00    +0.000 C 
ATOM      6  C   UNL     1       5.172   3.983  17.115  0.00  0.00    +0.000 C 
ATOM      7  H   UNL     1       7.549   3.558  18.298  0.00  0.00    +0.000 HD
ENDROOT
BRANCH   1   8
ATOM      8  C   UNL     1       3.216   4.442  18.789  0.00  0.00    +0.000 A 
ATOM      9  C   UNL     1       2.197   3.842  18.038  0.00  0.00    +0.000 A 
ATOM     10  C   UNL     1       0.997   3.457  18.644  0.00  0.00    +0.000 A 
ATOM     11  C   UNL     1       0.782   3.664  20.005  0.00  0.00    +0.000 A 
ATOM     12  C   UNL     1       1.772   4.270  20.766  0.00  0.00    +0.000 A 
ATOM     13  C   UNL     1       2.959   4.654  20.165  0.00  0.00    +0.000 A 
ENDBRANCH   1   8
BRANCH   1  14
ATOM     14  C   UNL     1       4.222   6.308  17.452  0.00  0.00    +0.000 C 
BRANCH  14  15
ATOM     15  O   UNL     1       3.431   7.128  18.310  0.00  0.00    +0.000 OA
BRANCH  15  16
ATOM     16  C   UNL     1       2.426   7.854  17.614  0.00  0.00    +0.000 C 
BRANCH  16  23
ATOM     17 CL   UNL     1       0.831  12.742  18.600  0.00  0.00    +0.000 Cl
ATOM     18  C   UNL     1       1.072  11.109  19.088  0.00  0.00    +0.000 A 
ATOM     19  C   UNL     1       0.702  10.709  20.367  0.00  0.00    +0.000 A 
ATOM     20  C   UNL     1       0.900   9.384  20.748  0.00  0.00    +0.000 A 
ATOM     21 CL   UNL     1       0.456   8.877  22.332  0.00  0.00    +0.000 Cl
ATOM     22  C   UNL     1       1.456   8.462  19.860  0.00  0.00    +0.000 A 
ATOM     23  C   UNL     1       1.820   8.855  18.566  0.00  0.00    +0.000 A 
ATOM     24  C   UNL     1       1.634  10.198  18.195  0.00  0.00    +0.000 A 
ENDBRANCH  16  23
ENDBRANCH  15  16
ENDBRANCH  14  15
ENDBRANCH   1  14
TORSDOF 5
ENDMDL
