MODEL 1
REMARK VINA RESULT:      -7.9      0.000      0.000
REMARK  Name = 
REMARK  6 active torsions:
REMARK  status: ('A' for Active; 'I' for Inactive)
REMARK    1  A    between atoms: N_1  and  C_2
REMARK    2  A    between atoms: C_3  and  C_4
REMARK    3  A    between atoms: N_6  and  C_7
REMARK    4  A    between atoms: C_7  and  C_8
REMARK    5  A    between atoms: C_8  and  N_9
REMARK    6  A    between atoms: N_25  and  C_26
REMARK                            x       y       z     vdW  Elec       q    Type
REMARK                         _______ _______ _______ _____ _____    ______ ____
ROOT
ATOM      1  C   UNL     1       6.819   5.495  15.496  0.00  0.00    +0.000 A 
ATOM      2  C   UNL     1       6.577   5.811  16.826  0.00  0.00    +0.000 A 
ATOM      3  C   UNL     1       5.242   5.468  17.054  0.00  0.00    +0.000 A 
ATOM      4  N   UNL     1       4.490   5.820  18.121  0.00  0.00    +0.000 NA
ATOM      5  C   UNL     1       3.427   5.067  18.328  0.00  0.00    +0.000 A 
ATOM      6  C   UNL     1       2.712   5.411  19.457  0.00  0.00    +0.000 A 
ATOM      7  C   UNL     1       1.690   4.613  19.930  0.00  0.00    +0.000 A 
ATOM      8  C   UNL     1       1.417   3.439  19.248  0.00  0.00    +0.000 A 
ATOM      9  C   UNL     1       2.105   3.133  18.046  0.00  0.00    +0.000 A 
ATOM     10  C   UNL     1       3.098   3.962  17.503  0.00  0.00    +0.000 A 
ATOM     11  N   UNL     1       3.741   3.734  16.294  0.00  0.00    +0.000 NA
ATOM     12  C   UNL     1       4.816   4.567  16.103  0.00  0.00    +0.000 A 
ATOM     13  N   UNL     1       5.758   4.662  15.053  0.00  0.00    +0.000 N 
ENDROOT
BRANCH  13  14
ATOM     14  C   UNL     1       5.717   4.007  13.778  0.00  0.00    +0.000 A 
ATOM     15  C   UNL     1       4.511   3.910  13.081  0.00  0.00    +0.000 A 
ATOM     16  C   UNL     1       4.460   3.197  11.877  0.00  0.00    +0.000 A 
ATOM     17  C   UNL     1       5.601   2.572  11.372  0.00  0.00    +0.000 A 
ATOM     18  C   UNL     1       6.822   2.730  12.021  0.00  0.00    +0.000 A 
ATOM     19  C   UNL     1       6.886   3.462  13.213  0.00  0.00    +0.000 A 
ENDBRANCH  13  14
BRANCH   2  20
ATOM     20  C   UNL     1       7.425   6.389  17.848  0.00  0.00    +0.000 C 
ATOM     21  O   UNL     1       7.976   5.719  18.727  0.00  0.00    +0.000 OA
ATOM     22  N   UNL     1       7.671   7.730  17.714  0.00  0.00    +0.000 N 
ATOM     23  H   UNL     1       6.903   8.250  17.331  0.00  0.00    +0.000 HD
BRANCH  22  24
ATOM     24  C   UNL     1       8.585   8.396  18.605  0.00  0.00    +0.000 C 
BRANCH  24  25
ATOM     25  C   UNL     1       8.669   9.917  18.349  0.00  0.00    +0.000 C 
BRANCH  25  26
ATOM     26  N   UNL     1       9.951  10.529  18.744  0.00  0.00    +0.000 NA
ATOM     27  C   UNL     1       9.799  11.215  20.053  0.00  0.00    +0.000 C 
ATOM     28  C   UNL     1       8.974  12.515  19.988  0.00  0.00    +0.000 C 
ATOM     29  O   UNL     1       9.513  13.432  19.027  0.00  0.00    +0.000 OA
ATOM     30  C   UNL     1       9.580  12.824  17.730  0.00  0.00    +0.000 C 
ATOM     31  C   UNL     1      10.426  11.541  17.769  0.00  0.00    +0.000 C 
ENDBRANCH  25  26
ENDBRANCH  24  25
ENDBRANCH  22  24
ENDBRANCH   2  20
BRANCH   1  32
ATOM     32  N   UNL     1       7.807   5.909  14.662  0.00  0.00    +0.000 N 
ATOM     33  H   UNL     1       8.729   5.484  14.617  0.00  0.00    +0.000 HD
ATOM     34  H   UNL     1       7.611   6.498  13.852  0.00  0.00    +0.000 HD
ENDBRANCH   1  32
TORSDOF 6
ENDMDL
MODEL 2
REMARK VINA RESULT:      -7.8      7.007     10.561
REMARK  Name = 
REMARK  6 active torsions:
REMARK  status: ('A' for Active; 'I' for Inactive)
REMARK    1  A    between atoms: N_1  and  C_2
REMARK    2  A    between atoms: C_3  and  C_4
REMARK    3  A    between atoms: N_6  and  C_7
REMARK    4  A    between atoms: C_7  and  C_8
REMARK    5  A    between atoms: C_8  and  N_9
REMARK    6  A    between atoms: N_25  and  C_26
REMARK                            x       y       z     vdW  Elec       q    Type
REMARK                         _______ _______ _______ _____ _____    ______ ____
ROOT
ATOM      1  C   UNL     1       0.400  10.883  20.288  0.00  0.00    +0.000 A 
ATOM      2  C   UNL     1       0.515  10.323  19.023  0.00  0.00    +0.000 A 
ATOM      3  C   UNL     1      -0.780  10.328  18.495  0.00  0.00    +0.000 A 
ATOM      4  N   UNL     1      -1.206   9.661  17.398  0.00  0.00    +0.000 NA
ATOM      5  C   UNL     1      -2.318  10.124  16.861  0.00  0.00    +0.000 A 
ATOM      6  C   UNL     1      -2.696   9.465  15.710  0.00  0.00    +0.000 A 
ATOM      7  C   UNL     1      -3.720   9.939  14.915  0.00  0.00    +0.000 A 
ATOM      8  C   UNL     1      -4.344  11.115  15.297  0.00  0.00    +0.000 A 
ATOM      9  C   UNL     1      -4.001  11.743  16.521  0.00  0.00    +0.000 A 
ATOM     10  C   UNL     1      -3.014  11.243  17.385  0.00  0.00    +0.000 A 
ATOM     11  N   UNL     1      -2.701  11.786  18.623  0.00  0.00    +0.000 NA
ATOM     12  C   UNL     1      -1.559  11.248  19.161  0.00  0.00    +0.000 A 
ATOM     13  N   UNL     1      -0.866  11.521  20.363  0.00  0.00    +0.000 N 
ENDROOT
BRANCH  13  14
ATOM     14  C   UNL     1      -1.300  12.337  21.459  0.00  0.00    +0.000 A 
ATOM     15  C   UNL     1      -0.862  13.659  21.561  0.00  0.00    +0.000 A 
ATOM     16  C   UNL     1      -1.221  14.426  22.676  0.00  0.00    +0.000 A 
ATOM     17  C   UNL     1      -2.004  13.878  23.694  0.00  0.00    +0.000 A 
ATOM     18  C   UNL     1      -2.507  12.587  23.560  0.00  0.00    +0.000 A 
ATOM     19  C   UNL     1      -2.173  11.823  22.436  0.00  0.00    +0.000 A 
ENDBRANCH  13  14
BRANCH   2  20
ATOM     20  C   UNL     1       1.655   9.796  18.301  0.00  0.00    +0.000 C 
ATOM     21  O   UNL     1       2.458  10.509  17.694  0.00  0.00    +0.000 OA
ATOM     22  N   UNL     1       1.852   8.446  18.427  0.00  0.00    +0.000 N 
ATOM     23  H   UNL     1       1.006   7.914  18.506  0.00  0.00    +0.000 HD
BRANCH  22  24
ATOM     24  C   UNL     1       3.012   7.822  17.846  0.00  0.00    +0.000 C 
BRANCH  24  25
ATOM     25  C   UNL     1       3.081   6.305  18.127  0.00  0.00    +0.000 C 
BRANCH  25  26
ATOM     26  N   UNL     1       4.099   5.587  17.339  0.00  0.00    +0.000 NA
ATOM     27  C   UNL     1       3.907   4.122  17.486  0.00  0.00    +0.000 C 
ATOM     28  C   UNL     1       4.307   3.571  18.869  0.00  0.00    +0.000 C 
ATOM     29  O   UNL     1       5.659   3.912  19.199  0.00  0.00    +0.000 OA
ATOM     30  C   UNL     1       5.847   5.333  19.160  0.00  0.00    +0.000 C 
ATOM     31  C   UNL     1       5.483   5.896  17.776  0.00  0.00    +0.000 C 
ENDBRANCH  25  26
ENDBRANCH  24  25
ENDBRANCH  22  24
ENDBRANCH   2  20
BRANCH   1  32
ATOM     32  N   UNL     1       1.243  10.825  21.351  0.00  0.00    +0.000 N 
ATOM     33  H   UNL     1       1.787  11.615  21.689  0.00  0.00    +0.000 HD
ATOM     34  H   UNL     1       1.193  10.069  22.033  0.00  0.00    +0.000 HD
ENDBRANCH   1  32
TORSDOF 6
ENDMDL
MODEL 3
REMARK VINA RESULT:      -7.7      0.655      1.341
REMARK  Name = 
REMARK  6 active torsions:
REMARK  status: ('A' for Active; 'I' for Inactive)
REMARK    1  A    between atoms: N_1  and  C_2
REMARK    2  A    between atoms: C_3  and  C_4
REMARK    3  A    between atoms: N_6  and  C_7
REMARK    4  A    between atoms: C_7  and  C_8
REMARK    5  A    between atoms: C_8  and  N_9
REMARK    6  A    between atoms: N_25  and  C_26
REMARK                            x       y       z     vdW  Elec       q    Type
REMARK                         _______ _______ _______ _____ _____    ______ ____
ROOT
ATOM      1  C   UNL     1       6.823   5.667  15.615  0.00  0.00    +0.000 A 
ATOM      2  C   UNL     1       6.596   6.039  16.933  0.00  0.00    +0.000 A 
ATOM      3  C   UNL     1       5.267   5.695  17.194  0.00  0.00    +0.000 A 
ATOM      4  N   UNL     1       4.524   6.088  18.254  0.00  0.00    +0.000 NA
ATOM      5  C   UNL     1       3.471   5.335  18.507  0.00  0.00    +0.000 A 
ATOM      6  C   UNL     1       2.768   5.723  19.629  0.00  0.00    +0.000 A 
ATOM      7  C   UNL     1       1.759   4.937  20.150  0.00  0.00    +0.000 A 
ATOM      8  C   UNL     1       1.488   3.732  19.524  0.00  0.00    +0.000 A 
ATOM      9  C   UNL     1       2.164   3.379  18.328  0.00  0.00    +0.000 A 
ATOM     10  C   UNL     1       3.142   4.192  17.735  0.00  0.00    +0.000 A 
ATOM     11  N   UNL     1       3.772   3.917  16.529  0.00  0.00    +0.000 NA
ATOM     12  C   UNL     1       4.837   4.749  16.289  0.00  0.00    +0.000 A 
ATOM     13  N   UNL     1       5.764   4.806  15.223  0.00  0.00    +0.000 N 
ENDROOT
BRANCH  13  14
ATOM     14  C   UNL     1       5.714   4.096  13.978  0.00  0.00    +0.000 A 
ATOM     15  C   UNL     1       6.892   3.617  13.401  0.00  0.00    +0.000 A 
ATOM     16  C   UNL     1       6.848   2.997  12.146  0.00  0.00    +0.000 A 
ATOM     17  C   UNL     1       5.639   2.864  11.461  0.00  0.00    +0.000 A 
ATOM     18  C   UNL     1       4.453   3.270  12.065  0.00  0.00    +0.000 A 
ATOM     19  C   UNL     1       4.486   3.868  13.330  0.00  0.00    +0.000 A 
ENDBRANCH  13  14
BRANCH   2  20
ATOM     20  C   UNL     1       7.451   6.669  17.919  0.00  0.00    +0.000 C 
ATOM     21  O   UNL     1       8.018   6.043  18.820  0.00  0.00    +0.000 OA
ATOM     22  N   UNL     1       7.684   8.004  17.722  0.00  0.00    +0.000 N 
ATOM     23  H   UNL     1       6.908   8.501  17.325  0.00  0.00    +0.000 HD
BRANCH  22  24
ATOM     24  C   UNL     1       8.603   8.717  18.571  0.00  0.00    +0.000 C 
BRANCH  24  25
ATOM     25  C   UNL     1       9.004  10.094  17.997  0.00  0.00    +0.000 C 
BRANCH  25  26
ATOM     26  N   UNL     1       9.000  11.187  18.986  0.00  0.00    +0.000 NA
ATOM     27  C   UNL     1       8.945  12.497  18.288  0.00  0.00    +0.000 C 
ATOM     28  C   UNL     1      10.255  12.884  17.574  0.00  0.00    +0.000 C 
ATOM     29  O   UNL     1      11.369  12.869  18.476  0.00  0.00    +0.000 OA
ATOM     30  C   UNL     1      11.504  11.582  19.093  0.00  0.00    +0.000 C 
ATOM     31  C   UNL     1      10.216  11.193  19.837  0.00  0.00    +0.000 C 
ENDBRANCH  25  26
ENDBRANCH  24  25
ENDBRANCH  22  24
ENDBRANCH   2  20
BRANCH   1  32
ATOM     32  N   UNL     1       7.797   6.053  14.752  0.00  0.00    +0.000 N 
ATOM     33  H   UNL     1       7.622   6.377  13.804  0.00  0.00    +0.000 HD
ATOM     34  H   UNL     1       8.735   6.288  15.074  0.00  0.00    +0.000 HD
ENDBRANCH   1  32
TORSDOF 6
ENDMDL
MODEL 4
REMARK VINA RESULT:      -7.7      1.154      4.819
REMARK  Name = 
REMARK  6 active torsions:
REMARK  status: ('A' for Active; 'I' for Inactive)
REMARK    1  A    between atoms: N_1  and  C_2
REMARK    2  A    between atoms: C_3  and  C_4
REMARK    3  A    between atoms: N_6  and  C_7
REMARK    4  A    between atoms: C_7  and  C_8
REMARK    5  A    between atoms: C_8  and  N_9
REMARK    6  A    between atoms: N_25  and  C_26
REMARK                            x       y       z     vdW  Elec       q    Type
REMARK                         _______ _______ _______ _____ _____    ______ ____
ROOT
ATOM      1  C   UNL     1       5.581   5.274  18.587  0.00  0.00    +0.000 A 
ATOM      2  C   UNL     1       6.553   5.847  17.778  0.00  0.00    +0.000 A 
ATOM      3  C   UNL     1       6.522   5.118  16.586  0.00  0.00    +0.000 A 
ATOM      4  N   UNL     1       7.448   5.145  15.600  0.00  0.00    +0.000 NA
ATOM      5  C   UNL     1       7.026   4.715  14.426  0.00  0.00    +0.000 A 
ATOM      6  C   UNL     1       7.972   4.811  13.427  0.00  0.00    +0.000 A 
ATOM      7  C   UNL     1       7.643   4.590  12.104  0.00  0.00    +0.000 A 
ATOM      8  C   UNL     1       6.323   4.292  11.807  0.00  0.00    +0.000 A 
ATOM      9  C   UNL     1       5.376   4.121  12.848  0.00  0.00    +0.000 A 
ATOM     10  C   UNL     1       5.699   4.267  14.206  0.00  0.00    +0.000 A 
ATOM     11  N   UNL     1       4.820   4.036  15.255  0.00  0.00    +0.000 NA
ATOM     12  C   UNL     1       5.317   4.464  16.462  0.00  0.00    +0.000 A 
ATOM     13  N   UNL     1       4.761   4.459  17.762  0.00  0.00    +0.000 N 
ENDROOT
BRANCH  13  14
ATOM     14  C   UNL     1       3.559   3.811  18.199  0.00  0.00    +0.000 A 
ATOM     15  C   UNL     1       3.622   2.542  18.780  0.00  0.00    +0.000 A 
ATOM     16  C   UNL     1       2.439   1.879  19.129  0.00  0.00    +0.000 A 
ATOM     17  C   UNL     1       1.197   2.468  18.891  0.00  0.00    +0.000 A 
ATOM     18  C   UNL     1       1.131   3.763  18.384  0.00  0.00    +0.000 A 
ATOM     19  C   UNL     1       2.309   4.442  18.056  0.00  0.00    +0.000 A 
ENDBRANCH  13  14
BRANCH   2  20
ATOM     20  C   UNL     1       7.472   6.943  18.004  0.00  0.00    +0.000 C 
ATOM     21  O   UNL     1       8.407   6.885  18.809  0.00  0.00    +0.000 OA
ATOM     22  N   UNL     1       7.306   8.025  17.181  0.00  0.00    +0.000 N 
ATOM     23  H   UNL     1       6.352   8.202  16.925  0.00  0.00    +0.000 HD
BRANCH  22  24
ATOM     24  C   UNL     1       8.226   9.131  17.237  0.00  0.00    +0.000 C 
BRANCH  24  25
ATOM     25  C   UNL     1       8.264   9.809  18.624  0.00  0.00    +0.000 C 
BRANCH  25  26
ATOM     26  N   UNL     1       9.604  10.262  19.041  0.00  0.00    +0.000 NA
ATOM     27  C   UNL     1       9.518  10.943  20.358  0.00  0.00    +0.000 C 
ATOM     28  C   UNL     1       8.850  12.331  20.305  0.00  0.00    +0.000 C 
ATOM     29  O   UNL     1       9.503  13.192  19.363  0.00  0.00    +0.000 OA
ATOM     30  C   UNL     1       9.515  12.599  18.058  0.00  0.00    +0.000 C 
ATOM     31  C   UNL     1      10.205  11.226  18.086  0.00  0.00    +0.000 C 
ENDBRANCH  25  26
ENDBRANCH  24  25
ENDBRANCH  22  24
ENDBRANCH   2  20
BRANCH   1  32
ATOM     32  N   UNL     1       5.403   5.350  19.930  0.00  0.00    +0.000 N 
ATOM     33  H   UNL     1       4.570   5.726  20.374  0.00  0.00    +0.000 HD
ATOM     34  H   UNL     1       5.973   4.805  20.577  0.00  0.00    +0.000 HD
ENDBRANCH   1  32
TORSDOF 6
ENDMDL
MODEL 5
REMARK VINA RESULT:      -7.6      7.083     10.768
REMARK  Name = 
REMARK  6 active torsions:
REMARK  status: ('A' for Active; 'I' for Inactive)
REMARK    1  A    between atoms: N_1  and  C_2
REMARK    2  A    between atoms: C_3  and  C_4
REMARK    3  A    between atoms: N_6  and  C_7
REMARK    4  A    between atoms: C_7  and  C_8
REMARK    5  A    between atoms: C_8  and  N_9
REMARK    6  A    between atoms: N_25  and  C_26
REMARK                            x       y       z     vdW  Elec       q    Type
REMARK                         _______ _______ _______ _____ _____    ______ ____
ROOT
ATOM      1  C   UNL     1       0.358  10.946  20.357  0.00  0.00    +0.000 A 
ATOM      2  C   UNL     1       0.490  10.383  19.094  0.00  0.00    +0.000 A 
ATOM      3  C   UNL     1      -0.799  10.369  18.556  0.00  0.00    +0.000 A 
ATOM      4  N   UNL     1      -1.208   9.693  17.458  0.00  0.00    +0.000 NA
ATOM      5  C   UNL     1      -2.321  10.140  16.910  0.00  0.00    +0.000 A 
ATOM      6  C   UNL     1      -2.681   9.471  15.758  0.00  0.00    +0.000 A 
ATOM      7  C   UNL     1      -3.704   9.929  14.952  0.00  0.00    +0.000 A 
ATOM      8  C   UNL     1      -4.346  11.099  15.323  0.00  0.00    +0.000 A 
ATOM      9  C   UNL     1      -4.021  11.736  16.548  0.00  0.00    +0.000 A 
ATOM     10  C   UNL     1      -3.036  11.252  17.422  0.00  0.00    +0.000 A 
ATOM     11  N   UNL     1      -2.740  11.805  18.661  0.00  0.00    +0.000 NA
ATOM     12  C   UNL     1      -1.596  11.282  19.211  0.00  0.00    +0.000 A 
ATOM     13  N   UNL     1      -0.917  11.569  20.418  0.00  0.00    +0.000 N 
ENDROOT
BRANCH  13  14
ATOM     14  C   UNL     1      -1.371  12.385  21.507  0.00  0.00    +0.000 A 
ATOM     15  C   UNL     1      -0.961  13.717  21.598  0.00  0.00    +0.000 A 
ATOM     16  C   UNL     1      -1.339  14.484  22.707  0.00  0.00    +0.000 A 
ATOM     17  C   UNL     1      -2.111  13.927  23.727  0.00  0.00    +0.000 A 
ATOM     18  C   UNL     1      -2.586  12.625  23.604  0.00  0.00    +0.000 A 
ATOM     19  C   UNL     1      -2.233  11.859  22.487  0.00  0.00    +0.000 A 
ENDBRANCH  13  14
BRANCH   2  20
ATOM     20  C   UNL     1       1.643   9.867  18.385  0.00  0.00    +0.000 C 
ATOM     21  O   UNL     1       2.484  10.592  17.846  0.00  0.00    +0.000 OA
ATOM     22  N   UNL     1       1.804   8.508  18.443  0.00  0.00    +0.000 N 
ATOM     23  H   UNL     1       0.943   7.994  18.463  0.00  0.00    +0.000 HD
BRANCH  22  24
ATOM     24  C   UNL     1       2.970   7.887  17.870  0.00  0.00    +0.000 C 
BRANCH  24  25
ATOM     25  C   UNL     1       3.013   6.361  18.105  0.00  0.00    +0.000 C 
BRANCH  25  26
ATOM     26  N   UNL     1       3.522   5.966  19.431  0.00  0.00    +0.000 NA
ATOM     27  C   UNL     1       4.875   5.370  19.293  0.00  0.00    +0.000 C 
ATOM     28  C   UNL     1       4.881   3.966  18.656  0.00  0.00    +0.000 C 
ATOM     29  O   UNL     1       4.030   3.062  19.371  0.00  0.00    +0.000 OA
ATOM     30  C   UNL     1       2.690   3.570  19.435  0.00  0.00    +0.000 C 
ATOM     31  C   UNL     1       2.662   4.957  20.097  0.00  0.00    +0.000 C 
ENDBRANCH  25  26
ENDBRANCH  24  25
ENDBRANCH  22  24
ENDBRANCH   2  20
BRANCH   1  32
ATOM     32  N   UNL     1       1.192  10.904  21.427  0.00  0.00    +0.000 N 
ATOM     33  H   UNL     1       1.508  11.726  21.934  0.00  0.00    +0.000 HD
ATOM     34  H   UNL     1       1.350  10.042  21.948  0.00  0.00    +0.000 HD
ENDBRANCH   1  32
TORSDOF 6
ENDMDL
MODEL 6
REMARK VINA RESULT:      -7.6      7.023     10.816
REMARK  Name = 
REMARK  6 active torsions:
REMARK  status: ('A' for Active; 'I' for Inactive)
REMARK    1  A    between atoms: N_1  and  C_2
REMARK    2  A    between atoms: C_3  and  C_4
REMARK    3  A    between atoms: N_6  and  C_7
REMARK    4  A    between atoms: C_7  and  C_8
REMARK    5  A    between atoms: C_8  and  N_9
REMARK    6  A    between atoms: N_25  and  C_26
REMARK                            x       y       z     vdW  Elec       q    Type
REMARK                         _______ _______ _______ _____ _____    ______ ____
ROOT
ATOM      1  C   UNL     1       0.467  10.832  20.300  0.00  0.00    +0.000 A 
ATOM      2  C   UNL     1       0.556  10.269  19.034  0.00  0.00    +0.000 A 
ATOM      3  C   UNL     1      -0.744  10.295  18.523  0.00  0.00    +0.000 A 
ATOM      4  N   UNL     1      -1.196   9.634  17.432  0.00  0.00    +0.000 NA
ATOM      5  C   UNL     1      -2.307  10.115  16.909  0.00  0.00    +0.000 A 
ATOM      6  C   UNL     1      -2.710   9.461  15.763  0.00  0.00    +0.000 A 
ATOM      7  C   UNL     1      -3.736   9.951  14.981  0.00  0.00    +0.000 A 
ATOM      8  C   UNL     1      -4.336  11.139  15.368  0.00  0.00    +0.000 A 
ATOM      9  C   UNL     1      -3.965  11.762  16.587  0.00  0.00    +0.000 A 
ATOM     10  C   UNL     1      -2.977  11.246  17.439  0.00  0.00    +0.000 A 
ATOM     11  N   UNL     1      -2.639  11.787  18.672  0.00  0.00    +0.000 NA
ATOM     12  C   UNL     1      -1.499  11.229  19.197  0.00  0.00    +0.000 A 
ATOM     13  N   UNL     1      -0.787  11.493  20.390  0.00  0.00    +0.000 N 
ENDROOT
BRANCH  13  14
ATOM     14  C   UNL     1      -1.193  12.318  21.490  0.00  0.00    +0.000 A 
ATOM     15  C   UNL     1      -0.665  13.603  21.630  0.00  0.00    +0.000 A 
ATOM     16  C   UNL     1      -1.000  14.373  22.750  0.00  0.00    +0.000 A 
ATOM     17  C   UNL     1      -1.849  13.864  23.734  0.00  0.00    +0.000 A 
ATOM     18  C   UNL     1      -2.439  12.615  23.562  0.00  0.00    +0.000 A 
ATOM     19  C   UNL     1      -2.128  11.850  22.432  0.00  0.00    +0.000 A 
ENDBRANCH  13  14
BRANCH   2  20
ATOM     20  C   UNL     1       1.678   9.721  18.299  0.00  0.00    +0.000 C 
ATOM     21  O   UNL     1       2.462  10.416  17.647  0.00  0.00    +0.000 OA
ATOM     22  N   UNL     1       1.883   8.377  18.463  0.00  0.00    +0.000 N 
ATOM     23  H   UNL     1       1.040   7.846  18.582  0.00  0.00    +0.000 HD
BRANCH  22  24
ATOM     24  C   UNL     1       3.029   7.737  17.871  0.00  0.00    +0.000 C 
BRANCH  24  25
ATOM     25  C   UNL     1       3.357   6.375  18.522  0.00  0.00    +0.000 C 
BRANCH  25  26
ATOM     26  N   UNL     1       3.177   5.216  17.628  0.00  0.00    +0.000 NA
ATOM     27  C   UNL     1       1.885   4.547  17.925  0.00  0.00    +0.000 C 
ATOM     28  C   UNL     1       1.871   3.770  19.256  0.00  0.00    +0.000 C 
ATOM     29  O   UNL     1       2.932   2.809  19.314  0.00  0.00    +0.000 OA
ATOM     30  C   UNL     1       4.203   3.445  19.126  0.00  0.00    +0.000 C 
ATOM     31  C   UNL     1       4.246   4.200  17.788  0.00  0.00    +0.000 C 
ENDBRANCH  25  26
ENDBRANCH  24  25
ENDBRANCH  22  24
ENDBRANCH   2  20
BRANCH   1  32
ATOM     32  N   UNL     1       1.323  10.762  21.352  0.00  0.00    +0.000 N 
ATOM     33  H   UNL     1       1.035  10.825  22.324  0.00  0.00    +0.000 HD
ATOM     34  H   UNL     1       2.265  10.387  21.250  0.00  0.00    +0.000 HD
ENDBRANCH   1  32
TORSDOF 6
ENDMDL
MODEL 7
REMARK VINA RESULT:      -7.5      6.994     10.806
REMARK  Name = 
REMARK  6 active torsions:
REMARK  status: ('A' for Active; 'I' for Inactive)
REMARK    1  A    between atoms: N_1  and  C_2
REMARK    2  A    between atoms: C_3  and  C_4
REMARK    3  A    between atoms: N_6  and  C_7
REMARK    4  A    between atoms: C_7  and  C_8
REMARK    5  A    between atoms: C_8  and  N_9
REMARK    6  A    between atoms: N_25  and  C_26
REMARK                            x       y       z     vdW  Elec       q    Type
REMARK                         _______ _______ _______ _____ _____    ______ ____
ROOT
ATOM      1  C   UNL     1       0.511  10.776  20.342  0.00  0.00    +0.000 A 
ATOM      2  C   UNL     1       0.578  10.239  19.063  0.00  0.00    +0.000 A 
ATOM      3  C   UNL     1      -0.731  10.275  18.575  0.00  0.00    +0.000 A 
ATOM      4  N   UNL     1      -1.201   9.637  17.479  0.00  0.00    +0.000 NA
ATOM      5  C   UNL     1      -2.321  10.128  16.985  0.00  0.00    +0.000 A 
ATOM      6  C   UNL     1      -2.744   9.497  15.833  0.00  0.00    +0.000 A 
ATOM      7  C   UNL     1      -3.784  10.003  15.079  0.00  0.00    +0.000 A 
ATOM      8  C   UNL     1      -4.376  11.182  15.501  0.00  0.00    +0.000 A 
ATOM      9  C   UNL     1      -3.985  11.780  16.726  0.00  0.00    +0.000 A 
ATOM     10  C   UNL     1      -2.982  11.247  17.550  0.00  0.00    +0.000 A 
ATOM     11  N   UNL     1      -2.623  11.762  18.788  0.00  0.00    +0.000 NA
ATOM     12  C   UNL     1      -1.474  11.195  19.282  0.00  0.00    +0.000 A 
ATOM     13  N   UNL     1      -0.741  11.434  20.467  0.00  0.00    +0.000 N 
ENDROOT
BRANCH  13  14
ATOM     14  C   UNL     1      -1.129  12.236  21.591  0.00  0.00    +0.000 A 
ATOM     15  C   UNL     1      -2.079  11.757  22.495  0.00  0.00    +0.000 A 
ATOM     16  C   UNL     1      -2.515  12.577  23.543  0.00  0.00    +0.000 A 
ATOM     17  C   UNL     1      -2.018  13.873  23.685  0.00  0.00    +0.000 A 
ATOM     18  C   UNL     1      -1.016  14.328  22.834  0.00  0.00    +0.000 A 
ATOM     19  C   UNL     1      -0.556  13.505  21.799  0.00  0.00    +0.000 A 
ENDBRANCH  13  14
BRANCH   2  20
ATOM     20  C   UNL     1       1.687   9.707  18.298  0.00  0.00    +0.000 C 
ATOM     21  O   UNL     1       2.455  10.415  17.640  0.00  0.00    +0.000 OA
ATOM     22  N   UNL     1       1.902   8.362  18.439  0.00  0.00    +0.000 N 
ATOM     23  H   UNL     1       1.064   7.825  18.568  0.00  0.00    +0.000 HD
BRANCH  22  24
ATOM     24  C   UNL     1       3.038   7.735  17.816  0.00  0.00    +0.000 C 
BRANCH  24  25
ATOM     25  C   UNL     1       3.377   6.360  18.430  0.00  0.00    +0.000 C 
BRANCH  25  26
ATOM     26  N   UNL     1       2.324   5.342  18.258  0.00  0.00    +0.000 NA
ATOM     27  C   UNL     1       1.883   4.845  19.586  0.00  0.00    +0.000 C 
ATOM     28  C   UNL     1       2.913   3.942  20.293  0.00  0.00    +0.000 C 
ATOM     29  O   UNL     1       3.292   2.833  19.468  0.00  0.00    +0.000 OA
ATOM     30  C   UNL     1       3.814   3.290  18.213  0.00  0.00    +0.000 C 
ATOM     31  C   UNL     1       2.787   4.167  17.479  0.00  0.00    +0.000 C 
ENDBRANCH  25  26
ENDBRANCH  24  25
ENDBRANCH  22  24
ENDBRANCH   2  20
BRANCH   1  32
ATOM     32  N   UNL     1       1.384  10.685  21.377  0.00  0.00    +0.000 N 
ATOM     33  H   UNL     1       2.279  11.165  21.411  0.00  0.00    +0.000 HD
ATOM     34  H   UNL     1       1.094  10.342  22.293  0.00  0.00    +0.000 HD
ENDBRANCH   1  32
TORSDOF 6
ENDMDL
MODEL 8
REMARK VINA RESULT:      -7.5      9.004     11.766
REMARK  Name = 
REMARK  6 active torsions:
REMARK  status: ('A' for Active; 'I' for Inactive)
REMARK    1  A    between atoms: N_1  and  C_2
REMARK    2  A    between atoms: C_3  and  C_4
REMARK    3  A    between atoms: N_6  and  C_7
REMARK    4  A    between atoms: C_7  and  C_8
REMARK    5  A    between atoms: C_8  and  N_9
REMARK    6  A    between atoms: N_25  and  C_26
REMARK                            x       y       z     vdW  Elec       q    Type
REMARK                         _______ _______ _______ _____ _____    ______ ____
ROOT
ATOM      1  C   UNL     1      -1.412  13.021  21.746  0.00  0.00    +0.000 A 
ATOM      2  C   UNL     1      -0.682  12.509  20.682  0.00  0.00    +0.000 A 
ATOM      3  C   UNL     1      -1.615  11.862  19.866  0.00  0.00    +0.000 A 
ATOM      4  N   UNL     1      -1.346  11.009  18.852  0.00  0.00    +0.000 NA
ATOM      5  C   UNL     1      -2.325  10.850  17.982  0.00  0.00    +0.000 A 
ATOM      6  C   UNL     1      -2.001  10.022  16.927  0.00  0.00    +0.000 A 
ATOM      7  C   UNL     1      -2.831   9.900  15.830  0.00  0.00    +0.000 A 
ATOM      8  C   UNL     1      -3.992  10.656  15.810  0.00  0.00    +0.000 A 
ATOM      9  C   UNL     1      -4.352  11.444  16.932  0.00  0.00    +0.000 A 
ATOM     10  C   UNL     1      -3.564  11.529  18.090  0.00  0.00    +0.000 A 
ATOM     11  N   UNL     1      -3.918  12.230  19.235  0.00  0.00    +0.000 NA
ATOM     12  C   UNL     1      -2.882  12.337  20.129  0.00  0.00    +0.000 A 
ATOM     13  N   UNL     1      -2.785  12.980  21.384  0.00  0.00    +0.000 N 
ENDROOT
BRANCH  13  14
ATOM     14  C   UNL     1      -3.846  13.554  22.159  0.00  0.00    +0.000 A 
ATOM     15  C   UNL     1      -4.490  12.789  23.135  0.00  0.00    +0.000 A 
ATOM     16  C   UNL     1      -5.580  13.326  23.831  0.00  0.00    +0.000 A 
ATOM     17  C   UNL     1      -6.037  14.615  23.550  0.00  0.00    +0.000 A 
ATOM     18  C   UNL     1      -5.352  15.408  22.635  0.00  0.00    +0.000 A 
ATOM     19  C   UNL     1      -4.246  14.887  21.953  0.00  0.00    +0.000 A 
ENDBRANCH  13  14
BRANCH   2  20
ATOM     20  C   UNL     1       0.733  12.547  20.377  0.00  0.00    +0.000 C 
ATOM     21  O   UNL     1       1.610  12.280  21.204  0.00  0.00    +0.000 OA
ATOM     22  N   UNL     1       1.042  12.796  19.066  0.00  0.00    +0.000 N 
ATOM     23  H   UNL     1       0.402  13.416  18.605  0.00  0.00    +0.000 HD
BRANCH  22  24
ATOM     24  C   UNL     1       2.409  12.753  18.618  0.00  0.00    +0.000 C 
BRANCH  24  25
ATOM     25  C   UNL     1       3.047  14.155  18.503  0.00  0.00    +0.000 C 
BRANCH  25  26
ATOM     26  N   UNL     1       3.663  14.645  19.750  0.00  0.00    +0.000 NA
ATOM     27  C   UNL     1       2.826  15.722  20.335  0.00  0.00    +0.000 C 
ATOM     28  C   UNL     1       2.878  17.052  19.556  0.00  0.00    +0.000 C 
ATOM     29  O   UNL     1       4.224  17.520  19.407  0.00  0.00    +0.000 OA
ATOM     30  C   UNL     1       5.034  16.533  18.754  0.00  0.00    +0.000 C 
ATOM     31  C   UNL     1       5.019  15.209  19.535  0.00  0.00    +0.000 C 
ENDBRANCH  25  26
ENDBRANCH  24  25
ENDBRANCH  22  24
ENDBRANCH   2  20
BRANCH   1  32
ATOM     32  N   UNL     1      -1.001  13.438  22.971  0.00  0.00    +0.000 N 
ATOM     33  H   UNL     1      -1.627  13.780  23.695  0.00  0.00    +0.000 HD
ATOM     34  H   UNL     1      -0.080  13.196  23.336  0.00  0.00    +0.000 HD
ENDBRANCH   1  32
TORSDOF 6
ENDMDL
MODEL 9
REMARK VINA RESULT:      -7.5      7.003     10.550
REMARK  Name = 
REMARK  6 active torsions:
REMARK  status: ('A' for Active; 'I' for Inactive)
REMARK    1  A    between atoms: N_1  and  C_2
REMARK    2  A    between atoms: C_3  and  C_4
REMARK    3  A    between atoms: N_6  and  C_7
REMARK    4  A    between atoms: C_7  and  C_8
REMARK    5  A    between atoms: C_8  and  N_9
REMARK    6  A    between atoms: N_25  and  C_26
REMARK                            x       y       z     vdW  Elec       q    Type
REMARK                         _______ _______ _______ _____ _____    ______ ____
ROOT
ATOM      1  C   UNL     1       0.448  10.912  20.292  0.00  0.00    +0.000 A 
ATOM      2  C   UNL     1       0.555  10.361  19.022  0.00  0.00    +0.000 A 
ATOM      3  C   UNL     1      -0.745  10.347  18.511  0.00  0.00    +0.000 A 
ATOM      4  N   UNL     1      -1.174   9.679  17.415  0.00  0.00    +0.000 NA
ATOM      5  C   UNL     1      -2.301  10.126  16.895  0.00  0.00    +0.000 A 
ATOM      6  C   UNL     1      -2.682   9.466  15.745  0.00  0.00    +0.000 A 
ATOM      7  C   UNL     1      -3.723   9.927  14.965  0.00  0.00    +0.000 A 
ATOM      8  C   UNL     1      -4.362  11.091  15.360  0.00  0.00    +0.000 A 
ATOM      9  C   UNL     1      -4.013  11.718  16.583  0.00  0.00    +0.000 A 
ATOM     10  C   UNL     1      -3.008  11.230  17.432  0.00  0.00    +0.000 A 
ATOM     11  N   UNL     1      -2.689  11.773  18.669  0.00  0.00    +0.000 NA
ATOM     12  C   UNL     1      -1.531  11.251  19.191  0.00  0.00    +0.000 A 
ATOM     13  N   UNL     1      -0.828  11.530  20.386  0.00  0.00    +0.000 N 
ENDROOT
BRANCH  13  14
ATOM     14  C   UNL     1      -1.262  12.333  21.491  0.00  0.00    +0.000 A 
ATOM     15  C   UNL     1      -0.703  13.597  21.696  0.00  0.00    +0.000 A 
ATOM     16  C   UNL     1      -1.069  14.343  22.823  0.00  0.00    +0.000 A 
ATOM     17  C   UNL     1      -1.978  13.831  23.750  0.00  0.00    +0.000 A 
ATOM     18  C   UNL     1      -2.595  12.607  23.511  0.00  0.00    +0.000 A 
ATOM     19  C   UNL     1      -2.253  11.866  22.374  0.00  0.00    +0.000 A 
ENDBRANCH  13  14
BRANCH   2  20
ATOM     20  C   UNL     1       1.695   9.855  18.284  0.00  0.00    +0.000 C 
ATOM     21  O   UNL     1       2.510  10.588  17.716  0.00  0.00    +0.000 OA
ATOM     22  N   UNL     1       1.877   8.499  18.348  0.00  0.00    +0.000 N 
ATOM     23  H   UNL     1       1.024   7.974  18.396  0.00  0.00    +0.000 HD
BRANCH  22  24
ATOM     24  C   UNL     1       3.035   7.891  17.746  0.00  0.00    +0.000 C 
BRANCH  24  25
ATOM     25  C   UNL     1       3.134   6.377  18.034  0.00  0.00    +0.000 C 
BRANCH  25  26
ATOM     26  N   UNL     1       4.498   5.903  18.331  0.00  0.00    +0.000 NA
ATOM     27  C   UNL     1       5.428   6.348  17.262  0.00  0.00    +0.000 C 
ATOM     28  C   UNL     1       5.251   5.604  15.924  0.00  0.00    +0.000 C 
ATOM     29  O   UNL     1       5.361   4.185  16.094  0.00  0.00    +0.000 OA
ATOM     30  C   UNL     1       4.404   3.714  17.053  0.00  0.00    +0.000 C 
ATOM     31  C   UNL     1       4.587   4.424  18.404  0.00  0.00    +0.000 C 
ENDBRANCH  25  26
ENDBRANCH  24  25
ENDBRANCH  22  24
ENDBRANCH   2  20
BRANCH   1  32
ATOM     32  N   UNL     1       1.305  10.864  21.344  0.00  0.00    +0.000 N 
ATOM     33  H   UNL     1       1.026  10.636  22.294  0.00  0.00    +0.000 HD
ATOM     34  H   UNL     1       2.313  10.798  21.209  0.00  0.00    +0.000 HD
ENDBRANCH   1  32
TORSDOF 6
ENDMDL
