MODEL 1
REMARK VINA RESULT:      -9.6      0.000      0.000
REMARK  Name = 
REMARK  3 active torsions:
REMARK  status: ('A' for Active; 'I' for Inactive)
REMARK    1  A    between atoms: C_4  and  C_5
REMARK    2  A    between atoms: C_9  and  C_10
REMARK    3  A    between atoms: C_16  and  C_17
REMARK                            x       y       z     vdW  Elec       q    Type
REMARK                         _______ _______ _______ _____ _____    ______ ____
ROOT
ATOM      1  C   UNL     1       2.428   6.209  19.664  0.00  0.00    +0.000 A 
ATOM      2  C   UNL     1       1.839   5.463  20.693  0.00  0.00    +0.000 A 
ATOM      3  N   UNL     1       2.120   4.180  21.006  0.00  0.00    +0.000 NA
ATOM      4  C   UNL     1       3.025   3.520  20.261  0.00  0.00    +0.000 A 
ATOM      5  C   UNL     1       3.675   4.169  19.211  0.00  0.00    +0.000 A 
ATOM      6  S   UNL     1       4.825   3.468  18.133  0.00  0.00    +0.000 S 
ATOM      7  C   UNL     1       5.066   4.930  17.300  0.00  0.00    +0.000 A 
ATOM      8  C   UNL     1       4.316   5.941  17.859  0.00  0.00    +0.000 A 
ATOM      9  C   UNL     1       3.428   5.516  18.915  0.00  0.00    +0.000 A 
ENDROOT
BRANCH   1  14
ATOM     10  C   UNL     1       0.971   9.743  20.064  0.00  0.00    +0.000 A 
ATOM     11  C   UNL     1       1.283  10.275  18.804  0.00  0.00    +0.000 A 
ATOM     12  C   UNL     1       1.885   9.497  17.822  0.00  0.00    +0.000 A 
ATOM     13  C   UNL     1       2.211   8.169  18.090  0.00  0.00    +0.000 A 
ATOM     14  C   UNL     1       2.024   7.605  19.362  0.00  0.00    +0.000 A 
ATOM     15  C   UNL     1       1.384   8.416  20.326  0.00  0.00    +0.000 A 
BRANCH  10  19
ATOM     16  C   UNL     1      -1.249  12.022  22.985  0.00  0.00    +0.000 A 
ATOM     17  C   UNL     1      -1.096  10.648  23.134  0.00  0.00    +0.000 A 
ATOM     18  C   UNL     1      -0.370   9.921  22.187  0.00  0.00    +0.000 A 
ATOM     19  C   UNL     1       0.205  10.538  21.056  0.00  0.00    +0.000 A 
ATOM     20  C   UNL     1       0.035  11.928  20.934  0.00  0.00    +0.000 A 
ATOM     21  C   UNL     1      -0.678  12.663  21.889  0.00  0.00    +0.000 A 
ENDBRANCH  10  19
ENDBRANCH   1  14
BRANCH   7  22
ATOM     22  C   UNL     1       5.936   5.062  16.177  0.00  0.00    +0.000 A 
ATOM     23  N   UNL     1       5.743   4.534  14.985  0.00  0.00    +0.000 NA
ATOM     24  N   UNL     1       6.832   4.892  14.227  0.00  0.00    +0.000 NA
ATOM     25  N   UNL     1       7.686   5.619  14.934  0.00  0.00    +0.000 NA
ATOM     26  N   UNL     1       7.130   5.723  16.148  0.00  0.00    +0.000 N 
ATOM     27  H   UNL     1       7.605   6.234  16.881  0.00  0.00    +0.000 HD
ENDBRANCH   7  22
TORSDOF 3
ENDMDL
MODEL 2
REMARK VINA RESULT:      -9.6      0.080      1.178
REMARK  Name = 
REMARK  3 active torsions:
REMARK  status: ('A' for Active; 'I' for Inactive)
REMARK    1  A    between atoms: C_4  and  C_5
REMARK    2  A    between atoms: C_9  and  C_10
REMARK    3  A    between atoms: C_16  and  C_17
REMARK                            x       y       z     vdW  Elec       q    Type
REMARK                         _______ _______ _______ _____ _____    ______ ____
ROOT
ATOM      1  C   UNL     1       2.434   6.209  19.686  0.00  0.00    +0.000 A 
ATOM      2  C   UNL     1       1.837   5.459  20.707  0.00  0.00    +0.000 A 
ATOM      3  N   UNL     1       2.126   4.180  21.027  0.00  0.00    +0.000 NA
ATOM      4  C   UNL     1       3.049   3.527  20.297  0.00  0.00    +0.000 A 
ATOM      5  C   UNL     1       3.709   4.182  19.257  0.00  0.00    +0.000 A 
ATOM      6  S   UNL     1       4.883   3.491  18.198  0.00  0.00    +0.000 S 
ATOM      7  C   UNL     1       5.121   4.954  17.366  0.00  0.00    +0.000 A 
ATOM      8  C   UNL     1       4.352   5.958  17.911  0.00  0.00    +0.000 A 
ATOM      9  C   UNL     1       3.453   5.526  18.954  0.00  0.00    +0.000 A 
ENDROOT
BRANCH   1  14
ATOM     10  C   UNL     1       0.984   9.748  20.075  0.00  0.00    +0.000 A 
ATOM     11  C   UNL     1       1.261  10.262  18.800  0.00  0.00    +0.000 A 
ATOM     12  C   UNL     1       1.837   9.471  17.813  0.00  0.00    +0.000 A 
ATOM     13  C   UNL     1       2.172   8.147  18.090  0.00  0.00    +0.000 A 
ATOM     14  C   UNL     1       2.021   7.600  19.375  0.00  0.00    +0.000 A 
ATOM     15  C   UNL     1       1.406   8.425  20.345  0.00  0.00    +0.000 A 
BRANCH  10  19
ATOM     16  C   UNL     1      -1.174  12.137  22.953  0.00  0.00    +0.000 A 
ATOM     17  C   UNL     1      -0.544  12.741  21.871  0.00  0.00    +0.000 A 
ATOM     18  C   UNL     1       0.146  11.957  20.942  0.00  0.00    +0.000 A 
ATOM     19  C   UNL     1       0.245  10.556  21.076  0.00  0.00    +0.000 A 
ATOM     20  C   UNL     1      -0.405   9.975  22.180  0.00  0.00    +0.000 A 
ATOM     21  C   UNL     1      -1.111  10.755  23.104  0.00  0.00    +0.000 A 
ENDBRANCH  10  19
ENDBRANCH   1  14
BRANCH   7  22
ATOM     22  C   UNL     1       6.008   5.093  16.257  0.00  0.00    +0.000 A 
ATOM     23  N   UNL     1       7.166   5.722  16.269  0.00  0.00    +0.000 NA
ATOM     24  N   UNL     1       7.666   5.630  14.992  0.00  0.00    +0.000 NA
ATOM     25  N   UNL     1       6.833   4.965  14.202  0.00  0.00    +0.000 NA
ATOM     26  N   UNL     1       5.801   4.634  14.988  0.00  0.00    +0.000 N 
ATOM     27  H   UNL     1       5.018   4.120  14.606  0.00  0.00    +0.000 HD
ENDBRANCH   7  22
TORSDOF 3
ENDMDL
MODEL 3
REMARK VINA RESULT:      -9.1      5.037      8.011
REMARK  Name = 
REMARK  3 active torsions:
REMARK  status: ('A' for Active; 'I' for Inactive)
REMARK    1  A    between atoms: C_4  and  C_5
REMARK    2  A    between atoms: C_9  and  C_10
REMARK    3  A    between atoms: C_16  and  C_17
REMARK                            x       y       z     vdW  Elec       q    Type
REMARK                         _______ _______ _______ _____ _____    ______ ____
ROOT
ATOM      1  C   UNL     1       0.886   9.565  19.910  0.00  0.00    +0.000 A 
ATOM      2  C   UNL     1       1.159  10.098  21.176  0.00  0.00    +0.000 A 
ATOM      3  N   UNL     1       0.471  11.086  21.788  0.00  0.00    +0.000 NA
ATOM      4  C   UNL     1      -0.561  11.651  21.135  0.00  0.00    +0.000 A 
ATOM      5  C   UNL     1      -0.922  11.194  19.867  0.00  0.00    +0.000 A 
ATOM      6  S   UNL     1      -2.182  11.827  18.875  0.00  0.00    +0.000 S 
ATOM      7  C   UNL     1      -1.908  10.684  17.646  0.00  0.00    +0.000 A 
ATOM      8  C   UNL     1      -0.903   9.813  18.004  0.00  0.00    +0.000 A 
ATOM      9  C   UNL     1      -0.246  10.133  19.249  0.00  0.00    +0.000 A 
ENDROOT
BRANCH   1  14
ATOM     10  C   UNL     1       2.616   6.187  19.303  0.00  0.00    +0.000 A 
ATOM     11  C   UNL     1       3.295   6.476  18.110  0.00  0.00    +0.000 A 
ATOM     12  C   UNL     1       3.256   7.747  17.548  0.00  0.00    +0.000 A 
ATOM     13  C   UNL     1       2.513   8.755  18.160  0.00  0.00    +0.000 A 
ATOM     14  C   UNL     1       1.725   8.507  19.295  0.00  0.00    +0.000 A 
ATOM     15  C   UNL     1       1.812   7.212  19.854  0.00  0.00    +0.000 A 
BRANCH  10  19
ATOM     16  C   UNL     1       3.033   2.356  21.253  0.00  0.00    +0.000 A 
ATOM     17  C   UNL     1       2.075   3.265  21.688  0.00  0.00    +0.000 A 
ATOM     18  C   UNL     1       1.945   4.499  21.045  0.00  0.00    +0.000 A 
ATOM     19  C   UNL     1       2.776   4.870  19.968  0.00  0.00    +0.000 A 
ATOM     20  C   UNL     1       3.733   3.929  19.549  0.00  0.00    +0.000 A 
ATOM     21  C   UNL     1       3.857   2.685  20.180  0.00  0.00    +0.000 A 
ENDBRANCH  10  19
ENDBRANCH   1  14
BRANCH   7  22
ATOM     22  C   UNL     1      -2.638  10.655  16.421  0.00  0.00    +0.000 A 
ATOM     23  N   UNL     1      -2.559   9.718  15.497  0.00  0.00    +0.000 NA
ATOM     24  N   UNL     1      -3.407  10.103  14.487  0.00  0.00    +0.000 NA
ATOM     25  N   UNL     1      -3.995  11.257  14.773  0.00  0.00    +0.000 NA
ATOM     26  N   UNL     1      -3.515  11.602  15.974  0.00  0.00    +0.000 N 
ATOM     27  H   UNL     1      -3.811  12.465  16.410  0.00  0.00    +0.000 HD
ENDBRANCH   7  22
TORSDOF 3
ENDMDL
MODEL 4
REMARK VINA RESULT:      -9.0      5.209      8.248
REMARK  Name = 
REMARK  3 active torsions:
REMARK  status: ('A' for Active; 'I' for Inactive)
REMARK    1  A    between atoms: C_4  and  C_5
REMARK    2  A    between atoms: C_9  and  C_10
REMARK    3  A    between atoms: C_16  and  C_17
REMARK                            x       y       z     vdW  Elec       q    Type
REMARK                         _______ _______ _______ _____ _____    ______ ____
ROOT
ATOM      1  C   UNL     1       0.706   9.503  20.519  0.00  0.00    +0.000 A 
ATOM      2  C   UNL     1       1.023   9.833  21.842  0.00  0.00    +0.000 A 
ATOM      3  N   UNL     1       0.383  10.741  22.610  0.00  0.00    +0.000 NA
ATOM      4  C   UNL     1      -0.641  11.429  22.074  0.00  0.00    +0.000 A 
ATOM      5  C   UNL     1      -1.044  11.176  20.762  0.00  0.00    +0.000 A 
ATOM      6  S   UNL     1      -2.301  11.989  19.906  0.00  0.00    +0.000 S 
ATOM      7  C   UNL     1      -2.092  11.033  18.516  0.00  0.00    +0.000 A 
ATOM      8  C   UNL     1      -1.112  10.087  18.716  0.00  0.00    +0.000 A 
ATOM      9  C   UNL     1      -0.419  10.198  19.978  0.00  0.00    +0.000 A 
ENDROOT
BRANCH   1  14
ATOM     10  C   UNL     1       2.443   6.239  19.466  0.00  0.00    +0.000 A 
ATOM     11  C   UNL     1       2.967   6.636  18.226  0.00  0.00    +0.000 A 
ATOM     12  C   UNL     1       2.826   7.940  17.768  0.00  0.00    +0.000 A 
ATOM     13  C   UNL     1       2.134   8.876  18.535  0.00  0.00    +0.000 A 
ATOM     14  C   UNL     1       1.494   8.521  19.733  0.00  0.00    +0.000 A 
ATOM     15  C   UNL     1       1.683   7.193  20.182  0.00  0.00    +0.000 A 
BRANCH  10  19
ATOM     16  C   UNL     1       3.288   2.303  21.028  0.00  0.00    +0.000 A 
ATOM     17  C   UNL     1       4.036   2.816  19.974  0.00  0.00    +0.000 A 
ATOM     18  C   UNL     1       3.758   4.094  19.481  0.00  0.00    +0.000 A 
ATOM     19  C   UNL     1       2.717   4.886  20.009  0.00  0.00    +0.000 A 
ATOM     20  C   UNL     1       1.980   4.340  21.075  0.00  0.00    +0.000 A 
ATOM     21  C   UNL     1       2.266   3.067  21.582  0.00  0.00    +0.000 A 
ENDBRANCH  10  19
ENDBRANCH   1  14
BRANCH   7  22
ATOM     22  C   UNL     1      -2.848  11.209  17.319  0.00  0.00    +0.000 A 
ATOM     23  N   UNL     1      -4.150  11.401  17.249  0.00  0.00    +0.000 NA
ATOM     24  N   UNL     1      -4.453  11.494  15.912  0.00  0.00    +0.000 NA
ATOM     25  N   UNL     1      -3.365  11.356  15.167  0.00  0.00    +0.000 NA
ATOM     26  N   UNL     1      -2.367  11.177  16.042  0.00  0.00    +0.000 N 
ATOM     27  H   UNL     1      -1.421  11.037  15.710  0.00  0.00    +0.000 HD
ENDBRANCH   7  22
TORSDOF 3
ENDMDL
MODEL 5
REMARK VINA RESULT:      -8.8      1.030      1.479
REMARK  Name = 
REMARK  3 active torsions:
REMARK  status: ('A' for Active; 'I' for Inactive)
REMARK    1  A    between atoms: C_4  and  C_5
REMARK    2  A    between atoms: C_9  and  C_10
REMARK    3  A    between atoms: C_16  and  C_17
REMARK                            x       y       z     vdW  Elec       q    Type
REMARK                         _______ _______ _______ _____ _____    ______ ____
ROOT
ATOM      1  C   UNL     1       1.994   5.705  20.014  0.00  0.00    +0.000 A 
ATOM      2  C   UNL     1       1.075   4.991  20.794  0.00  0.00    +0.000 A 
ATOM      3  N   UNL     1       1.157   3.683  21.121  0.00  0.00    +0.000 NA
ATOM      4  C   UNL     1       2.191   2.965  20.646  0.00  0.00    +0.000 A 
ATOM      5  C   UNL     1       3.167   3.578  19.861  0.00  0.00    +0.000 A 
ATOM      6  S   UNL     1       4.529   2.805  19.138  0.00  0.00    +0.000 S 
ATOM      7  C   UNL     1       5.111   4.258  18.474  0.00  0.00    +0.000 A 
ATOM      8  C   UNL     1       4.306   5.316  18.831  0.00  0.00    +0.000 A 
ATOM      9  C   UNL     1       3.118   4.946  19.563  0.00  0.00    +0.000 A 
ENDROOT
BRANCH   1  14
ATOM     10  C   UNL     1       0.942   9.394  20.241  0.00  0.00    +0.000 A 
ATOM     11  C   UNL     1       1.459   9.866  19.026  0.00  0.00    +0.000 A 
ATOM     12  C   UNL     1       2.072   9.007  18.120  0.00  0.00    +0.000 A 
ATOM     13  C   UNL     1       2.200   7.654  18.425  0.00  0.00    +0.000 A 
ATOM     14  C   UNL     1       1.802   7.134  19.667  0.00  0.00    +0.000 A 
ATOM     15  C   UNL     1       1.158   8.031  20.550  0.00  0.00    +0.000 A 
BRANCH  10  19
ATOM     16  C   UNL     1      -1.319  12.031  22.808  0.00  0.00    +0.000 A 
ATOM     17  C   UNL     1      -0.843  12.482  21.582  0.00  0.00    +0.000 A 
ATOM     18  C   UNL     1      -0.118  11.618  20.757  0.00  0.00    +0.000 A 
ATOM     19  C   UNL     1       0.170  10.291  21.137  0.00  0.00    +0.000 A 
ATOM     20  C   UNL     1      -0.327   9.863  22.381  0.00  0.00    +0.000 A 
ATOM     21  C   UNL     1      -1.068  10.720  23.204  0.00  0.00    +0.000 A 
ENDBRANCH  10  19
ENDBRANCH   1  14
BRANCH   7  22
ATOM     22  C   UNL     1       6.282   4.338  17.662  0.00  0.00    +0.000 A 
ATOM     23  N   UNL     1       6.304   4.485  16.352  0.00  0.00    +0.000 NA
ATOM     24  N   UNL     1       7.629   4.489  15.989  0.00  0.00    +0.000 NA
ATOM     25  N   UNL     1       8.413   4.341  17.048  0.00  0.00    +0.000 NA
ATOM     26  N   UNL     1       7.575   4.245  18.088  0.00  0.00    +0.000 N 
ATOM     27  H   UNL     1       7.940   4.115  19.023  0.00  0.00    +0.000 HD
ENDBRANCH   7  22
TORSDOF 3
ENDMDL
MODEL 6
REMARK VINA RESULT:      -8.8      3.867      8.519
REMARK  Name = 
REMARK  3 active torsions:
REMARK  status: ('A' for Active; 'I' for Inactive)
REMARK    1  A    between atoms: C_4  and  C_5
REMARK    2  A    between atoms: C_9  and  C_10
REMARK    3  A    between atoms: C_16  and  C_17
REMARK                            x       y       z     vdW  Elec       q    Type
REMARK                         _______ _______ _______ _____ _____    ______ ____
ROOT
ATOM      1  C   UNL     1       3.951   3.785  18.505  0.00  0.00    +0.000 A 
ATOM      2  C   UNL     1       3.661   2.415  18.506  0.00  0.00    +0.000 A 
ATOM      3  N   UNL     1       2.599   1.828  19.099  0.00  0.00    +0.000 NA
ATOM      4  C   UNL     1       1.738   2.600  19.786  0.00  0.00    +0.000 A 
ATOM      5  C   UNL     1       1.930   3.980  19.846  0.00  0.00    +0.000 A 
ATOM      6  S   UNL     1       0.955   5.110  20.711  0.00  0.00    +0.000 S 
ATOM      7  C   UNL     1       1.876   6.439  20.187  0.00  0.00    +0.000 A 
ATOM      8  C   UNL     1       2.882   6.034  19.338  0.00  0.00    +0.000 A 
ATOM      9  C   UNL     1       2.999   4.603  19.188  0.00  0.00    +0.000 A 
ENDROOT
BRANCH   1  14
ATOM     10  C   UNL     1       6.517   4.780  15.821  0.00  0.00    +0.000 A 
ATOM     11  C   UNL     1       7.468   5.424  16.626  0.00  0.00    +0.000 A 
ATOM     12  C   UNL     1       7.325   5.478  18.007  0.00  0.00    +0.000 A 
ATOM     13  C   UNL     1       6.209   4.906  18.614  0.00  0.00    +0.000 A 
ATOM     14  C   UNL     1       5.168   4.340  17.861  0.00  0.00    +0.000 A 
ATOM     15  C   UNL     1       5.361   4.277  16.462  0.00  0.00    +0.000 A 
BRANCH  10  19
ATOM     16  C   UNL     1       7.138   4.255  11.579  0.00  0.00    +0.000 A 
ATOM     17  C   UNL     1       6.228   3.454  12.260  0.00  0.00    +0.000 A 
ATOM     18  C   UNL     1       6.030   3.637  13.632  0.00  0.00    +0.000 A 
ATOM     19  C   UNL     1       6.746   4.606  14.365  0.00  0.00    +0.000 A 
ATOM     20  C   UNL     1       7.657   5.402  13.648  0.00  0.00    +0.000 A 
ATOM     21  C   UNL     1       7.846   5.233  12.271  0.00  0.00    +0.000 A 
ENDBRANCH  10  19
ENDBRANCH   1  14
BRANCH   7  22
ATOM     22  C   UNL     1       1.616   7.784  20.589  0.00  0.00    +0.000 A 
ATOM     23  N   UNL     1       1.273   8.775  19.791  0.00  0.00    +0.000 NA
ATOM     24  N   UNL     1       1.150   9.885  20.590  0.00  0.00    +0.000 NA
ATOM     25  N   UNL     1       1.417   9.593  21.856  0.00  0.00    +0.000 NA
ATOM     26  N   UNL     1       1.710   8.286  21.855  0.00  0.00    +0.000 N 
ATOM     27  H   UNL     1       1.961   7.822  22.718  0.00  0.00    +0.000 HD
ENDBRANCH   7  22
TORSDOF 3
ENDMDL
MODEL 7
REMARK VINA RESULT:      -8.7      1.154      1.463
REMARK  Name = 
REMARK  3 active torsions:
REMARK  status: ('A' for Active; 'I' for Inactive)
REMARK    1  A    between atoms: C_4  and  C_5
REMARK    2  A    between atoms: C_9  and  C_10
REMARK    3  A    between atoms: C_16  and  C_17
REMARK                            x       y       z     vdW  Elec       q    Type
REMARK                         _______ _______ _______ _____ _____    ______ ____
ROOT
ATOM      1  C   UNL     1       1.892   5.594  19.934  0.00  0.00    +0.000 A 
ATOM      2  C   UNL     1       0.893   4.873  20.598  0.00  0.00    +0.000 A 
ATOM      3  N   UNL     1       0.920   3.552  20.880  0.00  0.00    +0.000 NA
ATOM      4  C   UNL     1       1.979   2.829  20.472  0.00  0.00    +0.000 A 
ATOM      5  C   UNL     1       3.034   3.450  19.803  0.00  0.00    +0.000 A 
ATOM      6  S   UNL     1       4.441   2.674  19.176  0.00  0.00    +0.000 S 
ATOM      7  C   UNL     1       5.109   4.137  18.624  0.00  0.00    +0.000 A 
ATOM      8  C   UNL     1       4.294   5.200  18.949  0.00  0.00    +0.000 A 
ATOM      9  C   UNL     1       3.038   4.829  19.556  0.00  0.00    +0.000 A 
ENDROOT
BRANCH   1  14
ATOM     10  C   UNL     1       0.984   9.315  20.260  0.00  0.00    +0.000 A 
ATOM     11  C   UNL     1       1.529   9.801  19.062  0.00  0.00    +0.000 A 
ATOM     12  C   UNL     1       2.115   8.945  18.137  0.00  0.00    +0.000 A 
ATOM     13  C   UNL     1       2.188   7.579  18.403  0.00  0.00    +0.000 A 
ATOM     14  C   UNL     1       1.759   7.040  19.627  0.00  0.00    +0.000 A 
ATOM     15  C   UNL     1       1.143   7.936  20.530  0.00  0.00    +0.000 A 
BRANCH  10  19
ATOM     16  C   UNL     1      -1.173  11.901  22.963  0.00  0.00    +0.000 A 
ATOM     17  C   UNL     1      -1.063  10.541  23.230  0.00  0.00    +0.000 A 
ATOM     18  C   UNL     1      -0.358   9.715  22.352  0.00  0.00    +0.000 A 
ATOM     19  C   UNL     1       0.240  10.215  21.176  0.00  0.00    +0.000 A 
ATOM     20  C   UNL     1       0.113  11.594  20.935  0.00  0.00    +0.000 A 
ATOM     21  C   UNL     1      -0.579  12.429  21.821  0.00  0.00    +0.000 A 
ENDBRANCH  10  19
ENDBRANCH   1  14
BRANCH   7  22
ATOM     22  C   UNL     1       6.349   4.222  17.925  0.00  0.00    +0.000 A 
ATOM     23  N   UNL     1       7.516   4.529  18.456  0.00  0.00    +0.000 NA
ATOM     24  N   UNL     1       8.422   4.518  17.424  0.00  0.00    +0.000 NA
ATOM     25  N   UNL     1       7.831   4.218  16.275  0.00  0.00    +0.000 NA
ATOM     26  N   UNL     1       6.542   4.037  16.586  0.00  0.00    +0.000 N 
ATOM     27  H   UNL     1       5.874   3.804  15.863  0.00  0.00    +0.000 HD
ENDBRANCH   7  22
TORSDOF 3
ENDMDL
MODEL 8
REMARK VINA RESULT:      -8.6      3.688      8.446
REMARK  Name = 
REMARK  3 active torsions:
REMARK  status: ('A' for Active; 'I' for Inactive)
REMARK    1  A    between atoms: C_4  and  C_5
REMARK    2  A    between atoms: C_9  and  C_10
REMARK    3  A    between atoms: C_16  and  C_17
REMARK                            x       y       z     vdW  Elec       q    Type
REMARK                         _______ _______ _______ _____ _____    ______ ____
ROOT
ATOM      1  C   UNL     1       4.413   4.385  19.026  0.00  0.00    +0.000 A 
ATOM      2  C   UNL     1       4.353   3.044  19.428  0.00  0.00    +0.000 A 
ATOM      3  N   UNL     1       3.419   2.497  20.235  0.00  0.00    +0.000 NA
ATOM      4  C   UNL     1       2.460   3.293  20.741  0.00  0.00    +0.000 A 
ATOM      5  C   UNL     1       2.423   4.646  20.403  0.00  0.00    +0.000 A 
ATOM      6  S   UNL     1       1.297   5.814  20.988  0.00  0.00    +0.000 S 
ATOM      7  C   UNL     1       1.972   7.063  20.052  0.00  0.00    +0.000 A 
ATOM      8  C   UNL     1       3.009   6.589  19.279  0.00  0.00    +0.000 A 
ATOM      9  C   UNL     1       3.357   5.209  19.522  0.00  0.00    +0.000 A 
ENDROOT
BRANCH   1  14
ATOM     10  C   UNL     1       6.588   5.110  15.941  0.00  0.00    +0.000 A 
ATOM     11  C   UNL     1       7.562   5.935  16.524  0.00  0.00    +0.000 A 
ATOM     12  C   UNL     1       7.563   6.197  17.889  0.00  0.00    +0.000 A 
ATOM     13  C   UNL     1       6.569   5.655  18.701  0.00  0.00    +0.000 A 
ATOM     14  C   UNL     1       5.504   4.910  18.169  0.00  0.00    +0.000 A 
ATOM     15  C   UNL     1       5.553   4.640  16.782  0.00  0.00    +0.000 A 
BRANCH  10  19
ATOM     16  C   UNL     1       6.891   4.004  11.778  0.00  0.00    +0.000 A 
ATOM     17  C   UNL     1       7.742   4.965  12.313  0.00  0.00    +0.000 A 
ATOM     18  C   UNL     1       7.639   5.311  13.663  0.00  0.00    +0.000 A 
ATOM     19  C   UNL     1       6.676   4.725  14.511  0.00  0.00    +0.000 A 
ATOM     20  C   UNL     1       5.832   3.756  13.941  0.00  0.00    +0.000 A 
ATOM     21  C   UNL     1       5.942   3.395  12.593  0.00  0.00    +0.000 A 
ENDBRANCH  10  19
ENDBRANCH   1  14
BRANCH   7  22
ATOM     22  C   UNL     1       1.505   8.411  20.083  0.00  0.00    +0.000 A 
ATOM     23  N   UNL     1       1.138   9.075  21.160  0.00  0.00    +0.000 NA
ATOM     24  N   UNL     1       0.740  10.317  20.727  0.00  0.00    +0.000 NA
ATOM     25  N   UNL     1       0.851  10.420  19.409  0.00  0.00    +0.000 NA
ATOM     26  N   UNL     1       1.324   9.233  19.009  0.00  0.00    +0.000 N 
ATOM     27  H   UNL     1       1.488   9.058  18.026  0.00  0.00    +0.000 HD
ENDBRANCH   7  22
TORSDOF 3
ENDMDL
MODEL 9
REMARK VINA RESULT:      -8.4      5.015      8.180
REMARK  Name = 
REMARK  3 active torsions:
REMARK  status: ('A' for Active; 'I' for Inactive)
REMARK    1  A    between atoms: C_4  and  C_5
REMARK    2  A    between atoms: C_9  and  C_10
REMARK    3  A    between atoms: C_16  and  C_17
REMARK                            x       y       z     vdW  Elec       q    Type
REMARK                         _______ _______ _______ _____ _____    ______ ____
ROOT
ATOM      1  C   UNL     1       0.963   9.603  20.333  0.00  0.00    +0.000 A 
ATOM      2  C   UNL     1       1.468  10.430  21.345  0.00  0.00    +0.000 A 
ATOM      3  N   UNL     1       1.159  11.730  21.537  0.00  0.00    +0.000 NA
ATOM      4  C   UNL     1       0.311  12.324  20.677  0.00  0.00    +0.000 A 
ATOM      5  C   UNL     1      -0.254  11.591  19.634  0.00  0.00    +0.000 A 
ATOM      6  S   UNL     1      -1.320  12.198  18.421  0.00  0.00    +0.000 S 
ATOM      7  C   UNL     1      -1.491  10.675  17.685  0.00  0.00    +0.000 A 
ATOM      8  C   UNL     1      -0.782   9.716  18.375  0.00  0.00    +0.000 A 
ATOM      9  C   UNL     1       0.020  10.228  19.460  0.00  0.00    +0.000 A 
ENDROOT
BRANCH   1  14
ATOM     10  C   UNL     1       2.726   6.472  18.971  0.00  0.00    +0.000 A 
ATOM     11  C   UNL     1       2.243   5.513  19.874  0.00  0.00    +0.000 A 
ATOM     12  C   UNL     1       1.318   5.848  20.856  0.00  0.00    +0.000 A 
ATOM     13  C   UNL     1       0.872   7.163  20.970  0.00  0.00    +0.000 A 
ATOM     14  C   UNL     1       1.394   8.193  20.170  0.00  0.00    +0.000 A 
ATOM     15  C   UNL     1       2.310   7.809  19.164  0.00  0.00    +0.000 A 
BRANCH  10  19
ATOM     16  C   UNL     1       5.309   5.366  15.691  0.00  0.00    +0.000 A 
ATOM     17  C   UNL     1       5.144   6.703  16.035  0.00  0.00    +0.000 A 
ATOM     18  C   UNL     1       4.310   7.049  17.102  0.00  0.00    +0.000 A 
ATOM     19  C   UNL     1       3.605   6.077  17.842  0.00  0.00    +0.000 A 
ATOM     20  C   UNL     1       3.794   4.734  17.471  0.00  0.00    +0.000 A 
ATOM     21  C   UNL     1       4.641   4.382  16.413  0.00  0.00    +0.000 A 
ENDBRANCH  10  19
ENDBRANCH   1  14
BRANCH   7  22
ATOM     22  C   UNL     1      -2.272  10.450  16.513  0.00  0.00    +0.000 A 
ATOM     23  N   UNL     1      -2.724   9.284  16.098  0.00  0.00    +0.000 NA
ATOM     24  N   UNL     1      -3.399   9.529  14.927  0.00  0.00    +0.000 NA
ATOM     25  N   UNL     1      -3.362  10.817  14.616  0.00  0.00    +0.000 NA
ATOM     26  N   UNL     1      -2.659  11.390  15.601  0.00  0.00    +0.000 N 
ATOM     27  H   UNL     1      -2.482  12.386  15.585  0.00  0.00    +0.000 HD
ENDBRANCH   7  22
TORSDOF 3
ENDMDL
