MODEL 1
REMARK VINA RESULT:      -7.1      0.000      0.000
REMARK  Name = 
REMARK  4 active torsions:
REMARK  status: ('A' for Active; 'I' for Inactive)
REMARK    1  A    between atoms: C_2  and  C_3
REMARK    2  A    between atoms: C_2  and  C_12
REMARK    3  A    between atoms: C_3  and  S_4
REMARK    4  A    between atoms: S_4  and  C_5
REMARK                            x       y       z     vdW  Elec       q    Type
REMARK                         _______ _______ _______ _____ _____    ______ ____
ROOT
ATOM      1  C   UNL     1       4.970   4.109  16.505  0.00  0.00    +0.000 C 
ENDROOT
BRANCH   1   3
ATOM      2  O   UNL     1       4.247   6.362  17.043  0.00  0.00    +0.000 OA
ATOM      3  C   UNL     1       4.108   5.150  17.202  0.00  0.00    +0.000 C 
BRANCH   3   4
ATOM      4  C   UNL     1       3.037   4.673  18.119  0.00  0.00    +0.000 A 
ATOM      5  C   UNL     1       2.118   3.686  17.742  0.00  0.00    +0.000 A 
ATOM      6  C   UNL     1       1.132   3.274  18.644  0.00  0.00    +0.000 A 
ATOM      7  C   UNL     1       1.063   3.843  19.917  0.00  0.00    +0.000 A 
ATOM      8  C   UNL     1       1.972   4.830  20.291  0.00  0.00    +0.000 A 
ATOM      9  C   UNL     1       2.953   5.250  19.392  0.00  0.00    +0.000 A 
ENDBRANCH   3   4
ENDBRANCH   1   3
BRANCH   1  10
ATOM     10  S   UNL     1       6.722   4.605  16.464  0.00  0.00    +0.000 S 
BRANCH  10  11
ATOM     11  C   UNL     1       6.968   4.615  14.744  0.00  0.00    +0.000 A 
ATOM     12  N   UNL     1       7.783   5.434  14.168  0.00  0.00    +0.000 NA
ATOM     13  C   UNL     1       7.873   5.330  12.803  0.00  0.00    +0.000 A 
ATOM     14  C   UNL     1       7.186   4.461  12.054  0.00  0.00    +0.000 A 
ATOM     15  C   UNL     1       6.271   3.539  12.744  0.00  0.00    +0.000 A 
ATOM     16  O   UNL     1       5.609   2.716  12.126  0.00  0.00    +0.000 OA
ATOM     17  N   UNL     1       6.232   3.673  14.098  0.00  0.00    +0.000 N 
ATOM     18  H   UNL     1       5.605   3.084  14.622  0.00  0.00    +0.000 HD
ENDBRANCH  10  11
ENDBRANCH   1  10
TORSDOF 4
ENDMDL
MODEL 2
REMARK VINA RESULT:      -7.0      0.382      1.200
REMARK  Name = 
REMARK  4 active torsions:
REMARK  status: ('A' for Active; 'I' for Inactive)
REMARK    1  A    between atoms: C_2  and  C_3
REMARK    2  A    between atoms: C_2  and  C_12
REMARK    3  A    between atoms: C_3  and  S_4
REMARK    4  A    between atoms: S_4  and  C_5
REMARK                            x       y       z     vdW  Elec       q    Type
REMARK                         _______ _______ _______ _____ _____    ______ ____
ROOT
ATOM      1  C   UNL     1       4.935   4.023  16.446  0.00  0.00    +0.000 C 
ENDROOT
BRANCH   1   3
ATOM      2  O   UNL     1       4.127   6.204  17.139  0.00  0.00    +0.000 OA
ATOM      3  C   UNL     1       4.025   4.978  17.201  0.00  0.00    +0.000 C 
BRANCH   3   4
ATOM      4  C   UNL     1       2.952   4.398  18.054  0.00  0.00    +0.000 A 
ATOM      5  C   UNL     1       2.482   5.044  19.204  0.00  0.00    +0.000 A 
ATOM      6  C   UNL     1       1.471   4.454  19.969  0.00  0.00    +0.000 A 
ATOM      7  C   UNL     1       0.930   3.225  19.588  0.00  0.00    +0.000 A 
ATOM      8  C   UNL     1       1.401   2.576  18.449  0.00  0.00    +0.000 A 
ATOM      9  C   UNL     1       2.415   3.157  17.687  0.00  0.00    +0.000 A 
ENDBRANCH   3   4
ENDBRANCH   1   3
BRANCH   1  10
ATOM     10  S   UNL     1       6.660   4.608  16.429  0.00  0.00    +0.000 S 
BRANCH  10  11
ATOM     11  C   UNL     1       6.935   4.611  14.714  0.00  0.00    +0.000 A 
ATOM     12  N   UNL     1       7.780   5.409  14.151  0.00  0.00    +0.000 NA
ATOM     13  C   UNL     1       7.892   5.302  12.788  0.00  0.00    +0.000 A 
ATOM     14  C   UNL     1       7.195   4.450  12.028  0.00  0.00    +0.000 A 
ATOM     15  C   UNL     1       6.245   3.552  12.702  0.00  0.00    +0.000 A 
ATOM     16  O   UNL     1       5.574   2.745  12.072  0.00  0.00    +0.000 OA
ATOM     17  N   UNL     1       6.186   3.688  14.055  0.00  0.00    +0.000 N 
ATOM     18  H   UNL     1       5.536   3.115  14.568  0.00  0.00    +0.000 HD
ENDBRANCH  10  11
ENDBRANCH   1  10
TORSDOF 4
ENDMDL
MODEL 3
REMARK VINA RESULT:      -7.0      1.294      1.469
REMARK  Name = 
REMARK  4 active torsions:
REMARK  status: ('A' for Active; 'I' for Inactive)
REMARK    1  A    between atoms: C_2  and  C_3
REMARK    2  A    between atoms: C_2  and  C_12
REMARK    3  A    between atoms: C_3  and  S_4
REMARK    4  A    between atoms: S_4  and  C_5
REMARK                            x       y       z     vdW  Elec       q    Type
REMARK                         _______ _______ _______ _____ _____    ______ ____
ROOT
ATOM      1  C   UNL     1       5.294   4.077  16.528  0.00  0.00    +0.000 C 
ENDROOT
BRANCH   1   3
ATOM      2  O   UNL     1       5.694   4.056  18.922  0.00  0.00    +0.000 OA
ATOM      3  C   UNL     1       4.915   3.873  17.986  0.00  0.00    +0.000 C 
BRANCH   3   4
ATOM      4  C   UNL     1       3.526   3.434  18.294  0.00  0.00    +0.000 A 
ATOM      5  C   UNL     1       3.258   2.268  19.022  0.00  0.00    +0.000 A 
ATOM      6  C   UNL     1       1.933   1.903  19.284  0.00  0.00    +0.000 A 
ATOM      7  C   UNL     1       0.882   2.697  18.824  0.00  0.00    +0.000 A 
ATOM      8  C   UNL     1       1.147   3.853  18.093  0.00  0.00    +0.000 A 
ATOM      9  C   UNL     1       2.466   4.218  17.823  0.00  0.00    +0.000 A 
ENDBRANCH   3   4
ENDBRANCH   1   3
BRANCH   1  10
ATOM     10  S   UNL     1       6.989   4.723  16.358  0.00  0.00    +0.000 S 
BRANCH  10  11
ATOM     11  C   UNL     1       7.123   4.694  14.626  0.00  0.00    +0.000 A 
ATOM     12  N   UNL     1       7.888   5.509  13.978  0.00  0.00    +0.000 NA
ATOM     13  C   UNL     1       7.893   5.373  12.614  0.00  0.00    +0.000 A 
ATOM     14  C   UNL     1       7.172   4.477  11.931  0.00  0.00    +0.000 A 
ATOM     15  C   UNL     1       6.316   3.560  12.701  0.00  0.00    +0.000 A 
ATOM     16  O   UNL     1       5.628   2.713  12.146  0.00  0.00    +0.000 OA
ATOM     17  N   UNL     1       6.362   3.727  14.050  0.00  0.00    +0.000 N 
ATOM     18  H   UNL     1       5.778   3.143  14.628  0.00  0.00    +0.000 HD
ENDBRANCH  10  11
ENDBRANCH   1  10
TORSDOF 4
ENDMDL
MODEL 4
REMARK VINA RESULT:      -7.0      3.061      4.092
REMARK  Name = 
REMARK  4 active torsions:
REMARK  status: ('A' for Active; 'I' for Inactive)
REMARK    1  A    between atoms: C_2  and  C_3
REMARK    2  A    between atoms: C_2  and  C_12
REMARK    3  A    between atoms: C_3  and  S_4
REMARK    4  A    between atoms: S_4  and  C_5
REMARK                            x       y       z     vdW  Elec       q    Type
REMARK                         _______ _______ _______ _____ _____    ______ ____
ROOT
ATOM      1  C   UNL     1       4.049   4.136  16.903  0.00  0.00    +0.000 C 
ENDROOT
BRANCH   1   3
ATOM      2  O   UNL     1       4.022   1.788  17.513  0.00  0.00    +0.000 OA
ATOM      3  C   UNL     1       3.698   2.945  17.779  0.00  0.00    +0.000 C 
BRANCH   3   4
ATOM      4  C   UNL     1       2.925   3.196  19.027  0.00  0.00    +0.000 A 
ATOM      5  C   UNL     1       1.843   4.083  19.067  0.00  0.00    +0.000 A 
ATOM      6  C   UNL     1       1.151   4.281  20.267  0.00  0.00    +0.000 A 
ATOM      7  C   UNL     1       1.536   3.596  21.420  0.00  0.00    +0.000 A 
ATOM      8  C   UNL     1       2.618   2.719  21.384  0.00  0.00    +0.000 A 
ATOM      9  C   UNL     1       3.316   2.524  20.192  0.00  0.00    +0.000 A 
ENDBRANCH   3   4
ENDBRANCH   1   3
BRANCH   1  10
ATOM     10  S   UNL     1       5.689   3.945  16.133  0.00  0.00    +0.000 S 
BRANCH  10  11
ATOM     11  C   UNL     1       6.556   5.160  17.022  0.00  0.00    +0.000 A 
ATOM     12  N   UNL     1       6.883   6.296  16.502  0.00  0.00    +0.000 NA
ATOM     13  C   UNL     1       7.568   7.157  17.321  0.00  0.00    +0.000 A 
ATOM     14  C   UNL     1       7.911   6.899  18.587  0.00  0.00    +0.000 A 
ATOM     15  C   UNL     1       7.517   5.598  19.151  0.00  0.00    +0.000 A 
ATOM     16  O   UNL     1       7.795   5.291  20.302  0.00  0.00    +0.000 OA
ATOM     17  N   UNL     1       6.826   4.789  18.302  0.00  0.00    +0.000 N 
ATOM     18  H   UNL     1       6.550   3.876  18.625  0.00  0.00    +0.000 HD
ENDBRANCH  10  11
ENDBRANCH   1  10
TORSDOF 4
ENDMDL
MODEL 5
REMARK VINA RESULT:      -6.9      2.905      3.803
REMARK  Name = 
REMARK  4 active torsions:
REMARK  status: ('A' for Active; 'I' for Inactive)
REMARK    1  A    between atoms: C_2  and  C_3
REMARK    2  A    between atoms: C_2  and  C_12
REMARK    3  A    between atoms: C_3  and  S_4
REMARK    4  A    between atoms: S_4  and  C_5
REMARK                            x       y       z     vdW  Elec       q    Type
REMARK                         _______ _______ _______ _____ _____    ______ ____
ROOT
ATOM      1  C   UNL     1       4.797   3.766  17.125  0.00  0.00    +0.000 C 
ENDROOT
BRANCH   1   3
ATOM      2  O   UNL     1       3.647   5.899  17.266  0.00  0.00    +0.000 OA
ATOM      3  C   UNL     1       3.736   4.728  17.636  0.00  0.00    +0.000 C 
BRANCH   3   4
ATOM      4  C   UNL     1       2.751   4.221  18.631  0.00  0.00    +0.000 A 
ATOM      5  C   UNL     1       1.752   3.302  18.289  0.00  0.00    +0.000 A 
ATOM      6  C   UNL     1       0.852   2.859  19.264  0.00  0.00    +0.000 A 
ATOM      7  C   UNL     1       0.950   3.329  20.575  0.00  0.00    +0.000 A 
ATOM      8  C   UNL     1       1.939   4.249  20.915  0.00  0.00    +0.000 A 
ATOM      9  C   UNL     1       2.834   4.700  19.944  0.00  0.00    +0.000 A 
ENDBRANCH   3   4
ENDBRANCH   1   3
BRANCH   1  10
ATOM     10  S   UNL     1       5.888   4.557  15.900  0.00  0.00    +0.000 S 
BRANCH  10  11
ATOM     11  C   UNL     1       6.756   5.631  16.954  0.00  0.00    +0.000 A 
ATOM     12  N   UNL     1       7.096   6.825  16.596  0.00  0.00    +0.000 NA
ATOM     13  C   UNL     1       7.779   7.560  17.530  0.00  0.00    +0.000 A 
ATOM     14  C   UNL     1       8.109   7.129  18.752  0.00  0.00    +0.000 A 
ATOM     15  C   UNL     1       7.701   5.766  19.129  0.00  0.00    +0.000 A 
ATOM     16  O   UNL     1       7.967   5.303  20.231  0.00  0.00    +0.000 OA
ATOM     17  N   UNL     1       7.012   5.087  18.172  0.00  0.00    +0.000 N 
ATOM     18  H   UNL     1       6.726   4.141  18.366  0.00  0.00    +0.000 HD
ENDBRANCH  10  11
ENDBRANCH   1  10
TORSDOF 4
ENDMDL
MODEL 6
REMARK VINA RESULT:      -6.9      3.029      4.027
REMARK  Name = 
REMARK  4 active torsions:
REMARK  status: ('A' for Active; 'I' for Inactive)
REMARK    1  A    between atoms: C_2  and  C_3
REMARK    2  A    between atoms: C_2  and  C_12
REMARK    3  A    between atoms: C_3  and  S_4
REMARK    4  A    between atoms: S_4  and  C_5
REMARK                            x       y       z     vdW  Elec       q    Type
REMARK                         _______ _______ _______ _____ _____    ______ ____
ROOT
ATOM      1  C   UNL     1       4.658   3.603  17.217  0.00  0.00    +0.000 C 
ENDROOT
BRANCH   1   3
ATOM      2  O   UNL     1       2.333   3.164  16.678  0.00  0.00    +0.000 OA
ATOM      3  C   UNL     1       3.154   3.733  17.397  0.00  0.00    +0.000 C 
BRANCH   3   4
ATOM      4  C   UNL     1       2.652   4.588  18.508  0.00  0.00    +0.000 A 
ATOM      5  C   UNL     1       2.958   5.951  18.595  0.00  0.00    +0.000 A 
ATOM      6  C   UNL     1       2.458   6.709  19.659  0.00  0.00    +0.000 A 
ATOM      7  C   UNL     1       1.656   6.109  20.632  0.00  0.00    +0.000 A 
ATOM      8  C   UNL     1       1.357   4.751  20.551  0.00  0.00    +0.000 A 
ATOM      9  C   UNL     1       1.859   3.990  19.495  0.00  0.00    +0.000 A 
ENDBRANCH   3   4
ENDBRANCH   1   3
BRANCH   1  10
ATOM     10  S   UNL     1       5.279   4.722  15.921  0.00  0.00    +0.000 S 
BRANCH  10  11
ATOM     11  C   UNL     1       6.340   5.703  16.887  0.00  0.00    +0.000 A 
ATOM     12  N   UNL     1       6.657   6.910  16.555  0.00  0.00    +0.000 NA
ATOM     13  C   UNL     1       7.506   7.564  17.411  0.00  0.00    +0.000 A 
ATOM     14  C   UNL     1       8.013   7.043  18.533  0.00  0.00    +0.000 A 
ATOM     15  C   UNL     1       7.626   5.668  18.884  0.00  0.00    +0.000 A 
ATOM     16  O   UNL     1       8.049   5.124  19.896  0.00  0.00    +0.000 OA
ATOM     17  N   UNL     1       6.770   5.071  18.010  0.00  0.00    +0.000 N 
ATOM     18  H   UNL     1       6.488   4.120  18.187  0.00  0.00    +0.000 HD
ENDBRANCH  10  11
ENDBRANCH   1  10
TORSDOF 4
ENDMDL
MODEL 7
REMARK VINA RESULT:      -6.9      1.313      1.486
REMARK  Name = 
REMARK  4 active torsions:
REMARK  status: ('A' for Active; 'I' for Inactive)
REMARK    1  A    between atoms: C_2  and  C_3
REMARK    2  A    between atoms: C_2  and  C_12
REMARK    3  A    between atoms: C_3  and  S_4
REMARK    4  A    between atoms: S_4  and  C_5
REMARK                            x       y       z     vdW  Elec       q    Type
REMARK                         _______ _______ _______ _____ _____    ______ ____
ROOT
ATOM      1  C   UNL     1       5.324   4.559  16.683  0.00  0.00    +0.000 C 
ENDROOT
BRANCH   1   3
ATOM      2  O   UNL     1       5.722   4.013  19.013  0.00  0.00    +0.000 OA
ATOM      3  C   UNL     1       4.938   4.059  18.065  0.00  0.00    +0.000 C 
BRANCH   3   4
ATOM      4  C   UNL     1       3.536   3.607  18.282  0.00  0.00    +0.000 A 
ATOM      5  C   UNL     1       2.440   4.306  17.763  0.00  0.00    +0.000 A 
ATOM      6  C   UNL     1       1.143   3.836  17.996  0.00  0.00    +0.000 A 
ATOM      7  C   UNL     1       0.941   2.674  18.742  0.00  0.00    +0.000 A 
ATOM      8  C   UNL     1       2.030   1.982  19.266  0.00  0.00    +0.000 A 
ATOM      9  C   UNL     1       3.325   2.451  19.043  0.00  0.00    +0.000 A 
ENDBRANCH   3   4
ENDBRANCH   1   3
BRANCH   1  10
ATOM     10  S   UNL     1       7.130   4.582  16.455  0.00  0.00    +0.000 S 
BRANCH  10  11
ATOM     11  C   UNL     1       7.191   4.634  14.719  0.00  0.00    +0.000 A 
ATOM     12  N   UNL     1       7.932   5.475  14.078  0.00  0.00    +0.000 NA
ATOM     13  C   UNL     1       7.877   5.403  12.710  0.00  0.00    +0.000 A 
ATOM     14  C   UNL     1       7.122   4.542  12.018  0.00  0.00    +0.000 A 
ATOM     15  C   UNL     1       6.295   3.594  12.780  0.00  0.00    +0.000 A 
ATOM     16  O   UNL     1       5.579   2.777  12.216  0.00  0.00    +0.000 OA
ATOM     17  N   UNL     1       6.399   3.698  14.133  0.00  0.00    +0.000 N 
ATOM     18  H   UNL     1       5.838   3.089  14.707  0.00  0.00    +0.000 HD
ENDBRANCH  10  11
ENDBRANCH   1  10
TORSDOF 4
ENDMDL
MODEL 8
REMARK VINA RESULT:      -6.9      3.118      4.143
REMARK  Name = 
REMARK  4 active torsions:
REMARK  status: ('A' for Active; 'I' for Inactive)
REMARK    1  A    between atoms: C_2  and  C_3
REMARK    2  A    between atoms: C_2  and  C_12
REMARK    3  A    between atoms: C_3  and  S_4
REMARK    4  A    between atoms: S_4  and  C_5
REMARK                            x       y       z     vdW  Elec       q    Type
REMARK                         _______ _______ _______ _____ _____    ______ ____
ROOT
ATOM      1  C   UNL     1       4.368   3.433  17.704  0.00  0.00    +0.000 C 
ENDROOT
BRANCH   1   3
ATOM      2  O   UNL     1       2.046   3.434  16.996  0.00  0.00    +0.000 OA
ATOM      3  C   UNL     1       2.938   3.950  17.669  0.00  0.00    +0.000 C 
BRANCH   3   4
ATOM      4  C   UNL     1       2.603   5.140  18.499  0.00  0.00    +0.000 A 
ATOM      5  C   UNL     1       2.088   5.022  19.796  0.00  0.00    +0.000 A 
ATOM      6  C   UNL     1       1.791   6.173  20.533  0.00  0.00    +0.000 A 
ATOM      7  C   UNL     1       2.008   7.436  19.979  0.00  0.00    +0.000 A 
ATOM      8  C   UNL     1       2.512   7.555  18.686  0.00  0.00    +0.000 A 
ATOM      9  C   UNL     1       2.803   6.409  17.944  0.00  0.00    +0.000 A 
ENDBRANCH   3   4
ENDBRANCH   1   3
BRANCH   1  10
ATOM     10  S   UNL     1       5.330   4.019  16.273  0.00  0.00    +0.000 S 
BRANCH  10  11
ATOM     11  C   UNL     1       6.314   5.209  17.069  0.00  0.00    +0.000 A 
ATOM     12  N   UNL     1       6.423   6.420  16.632  0.00  0.00    +0.000 NA
ATOM     13  C   UNL     1       7.236   7.250  17.360  0.00  0.00    +0.000 A 
ATOM     14  C   UNL     1       7.907   6.893  18.461  0.00  0.00    +0.000 A 
ATOM     15  C   UNL     1       7.755   5.508  18.934  0.00  0.00    +0.000 A 
ATOM     16  O   UNL     1       8.337   5.109  19.934  0.00  0.00    +0.000 OA
ATOM     17  N   UNL     1       6.925   4.732  18.185  0.00  0.00    +0.000 N 
ATOM     18  H   UNL     1       6.800   3.768  18.448  0.00  0.00    +0.000 HD
ENDBRANCH  10  11
ENDBRANCH   1  10
TORSDOF 4
ENDMDL
MODEL 9
REMARK VINA RESULT:      -6.8      3.481      4.333
REMARK  Name = 
REMARK  4 active torsions:
REMARK  status: ('A' for Active; 'I' for Inactive)
REMARK    1  A    between atoms: C_2  and  C_3
REMARK    2  A    between atoms: C_2  and  C_12
REMARK    3  A    between atoms: C_3  and  S_4
REMARK    4  A    between atoms: S_4  and  C_5
REMARK                            x       y       z     vdW  Elec       q    Type
REMARK                         _______ _______ _______ _____ _____    ______ ____
ROOT
ATOM      1  C   UNL     1       4.150   4.081  17.049  0.00  0.00    +0.000 C 
ENDROOT
BRANCH   1   3
ATOM      2  O   UNL     1       2.262   2.607  16.662  0.00  0.00    +0.000 OA
ATOM      3  C   UNL     1       2.933   3.265  17.456  0.00  0.00    +0.000 C 
BRANCH   3   4
ATOM      4  C   UNL     1       2.540   3.261  18.892  0.00  0.00    +0.000 A 
ATOM      5  C   UNL     1       1.345   3.837  19.339  0.00  0.00    +0.000 A 
ATOM      6  C   UNL     1       1.024   3.804  20.700  0.00  0.00    +0.000 A 
ATOM      7  C   UNL     1       1.891   3.198  21.611  0.00  0.00    +0.000 A 
ATOM      8  C   UNL     1       3.084   2.631  21.169  0.00  0.00    +0.000 A 
ATOM      9  C   UNL     1       3.412   2.668  19.813  0.00  0.00    +0.000 A 
ENDBRANCH   3   4
ENDBRANCH   1   3
BRANCH   1  10
ATOM     10  S   UNL     1       3.922   5.853  17.405  0.00  0.00    +0.000 S 
BRANCH  10  11
ATOM     11  C   UNL     1       5.564   6.272  17.787  0.00  0.00    +0.000 A 
ATOM     12  N   UNL     1       6.236   7.133  17.096  0.00  0.00    +0.000 NA
ATOM     13  C   UNL     1       7.522   7.364  17.512  0.00  0.00    +0.000 A 
ATOM     14  C   UNL     1       8.109   6.766  18.555  0.00  0.00    +0.000 A 
ATOM     15  C   UNL     1       7.313   5.796  19.323  0.00  0.00    +0.000 A 
ATOM     16  O   UNL     1       7.782   5.210  20.290  0.00  0.00    +0.000 OA
ATOM     17  N   UNL     1       6.039   5.617  18.878  0.00  0.00    +0.000 N 
ATOM     18  H   UNL     1       5.455   4.947  19.351  0.00  0.00    +0.000 HD
ENDBRANCH  10  11
ENDBRANCH   1  10
TORSDOF 4
ENDMDL
