MODEL 1
REMARK VINA RESULT:      -5.9      0.000      0.000
REMARK  Name = 
REMARK  8 active torsions:
REMARK  status: ('A' for Active; 'I' for Inactive)
REMARK    1  A    between atoms: C_1  and  O_2
REMARK    2  A    between atoms: O_2  and  C_3
REMARK    3  A    between atoms: C_8  and  O_9
REMARK    4  A    between atoms: O_9  and  C_10
REMARK    5  A    between atoms: C_10  and  C_11
REMARK    6  A    between atoms: C_11  and  C_12
REMARK    7  A    between atoms: C_12  and  C_13
REMARK    8  A    between atoms: C_13  and  N_14
REMARK                            x       y       z     vdW  Elec       q    Type
REMARK                         _______ _______ _______ _____ _____    ______ ____
ROOT
ATOM      1  O   UNL     1       4.379   6.600  18.170  0.00  0.00    +0.000 OA
ENDROOT
BRANCH   1   7
ATOM      2  C   UNL     1       6.401   5.150  17.791  0.00  0.00    +0.000 A 
ATOM      3  C   UNL     1       7.152   4.450  16.834  0.00  0.00    +0.000 A 
ATOM      4  C   UNL     1       6.850   4.555  15.478  0.00  0.00    +0.000 A 
ATOM      5  C   UNL     1       5.774   5.329  15.066  0.00  0.00    +0.000 A 
ATOM      6  C   UNL     1       4.987   5.986  16.014  0.00  0.00    +0.000 A 
ATOM      7  C   UNL     1       5.276   5.898  17.386  0.00  0.00    +0.000 A 
BRANCH   2   9
ATOM      8  C   UNL     1       7.902   5.717  19.538  0.00  0.00    +0.000 C 
ATOM      9  O   UNL     1       6.725   5.031  19.116  0.00  0.00    +0.000 OA
ENDBRANCH   2   9
ENDBRANCH   1   7
BRANCH   1  10
ATOM     10  C   UNL     1       3.075   6.043  18.264  0.00  0.00    +0.000 C 
BRANCH  10  11
ATOM     11  C   UNL     1       2.423   6.259  19.634  0.00  0.00    +0.000 C 
BRANCH  11  12
ATOM     12  C   UNL     1       1.792   4.919  20.038  0.00  0.00    +0.000 C 
BRANCH  12  13
ATOM     13  C   UNL     1       2.764   3.884  20.607  0.00  0.00    +0.000 C 
BRANCH  13  14
ATOM     14  N   UNL     1       2.576   2.573  19.959  0.00  0.00    +0.000 NA
ATOM     15  C   UNL     1       3.826   2.047  19.392  0.00  0.00    +0.000 C 
ATOM     16  C   UNL     1       3.829   2.492  17.944  0.00  0.00    +0.000 C 
ATOM     17  C   UNL     1       2.369   2.417  17.549  0.00  0.00    +0.000 C 
ATOM     18  C   UNL     1       1.601   2.579  18.854  0.00  0.00    +0.000 C 
ENDBRANCH  13  14
ENDBRANCH  12  13
ENDBRANCH  11  12
ENDBRANCH  10  11
ENDBRANCH   1  10
TORSDOF 7
ENDMDL
MODEL 2
REMARK VINA RESULT:      -5.8      1.586      3.418
REMARK  Name = 
REMARK  8 active torsions:
REMARK  status: ('A' for Active; 'I' for Inactive)
REMARK    1  A    between atoms: C_1  and  O_2
REMARK    2  A    between atoms: O_2  and  C_3
REMARK    3  A    between atoms: C_8  and  O_9
REMARK    4  A    between atoms: O_9  and  C_10
REMARK    5  A    between atoms: C_10  and  C_11
REMARK    6  A    between atoms: C_11  and  C_12
REMARK    7  A    between atoms: C_12  and  C_13
REMARK    8  A    between atoms: C_13  and  N_14
REMARK                            x       y       z     vdW  Elec       q    Type
REMARK                         _______ _______ _______ _____ _____    ______ ____
ROOT
ATOM      1  O   UNL     1       4.128   4.280  17.590  0.00  0.00    +0.000 OA
ENDROOT
BRANCH   1   7
ATOM      2  C   UNL     1       6.080   5.610  16.719  0.00  0.00    +0.000 A 
ATOM      3  C   UNL     1       7.235   6.321  17.072  0.00  0.00    +0.000 A 
ATOM      4  C   UNL     1       7.689   6.333  18.389  0.00  0.00    +0.000 A 
ATOM      5  C   UNL     1       6.972   5.667  19.374  0.00  0.00    +0.000 A 
ATOM      6  C   UNL     1       5.791   5.000  19.044  0.00  0.00    +0.000 A 
ATOM      7  C   UNL     1       5.318   4.972  17.721  0.00  0.00    +0.000 A 
BRANCH   2   9
ATOM      8  C   UNL     1       6.376   4.756  14.527  0.00  0.00    +0.000 C 
ATOM      9  O   UNL     1       5.662   5.612  15.415  0.00  0.00    +0.000 OA
ENDBRANCH   2   9
ENDBRANCH   1   7
BRANCH   1  10
ATOM     10  C   UNL     1       4.134   2.946  18.081  0.00  0.00    +0.000 C 
BRANCH  10  11
ATOM     11  C   UNL     1       2.961   2.106  17.564  0.00  0.00    +0.000 C 
BRANCH  11  12
ATOM     12  C   UNL     1       2.011   1.898  18.751  0.00  0.00    +0.000 C 
BRANCH  12  13
ATOM     13  C   UNL     1       0.822   2.859  18.813  0.00  0.00    +0.000 C 
BRANCH  13  14
ATOM     14  N   UNL     1       0.619   3.358  20.186  0.00  0.00    +0.000 NA
ATOM     15  C   UNL     1       0.998   4.771  20.326  0.00  0.00    +0.000 C 
ATOM     16  C   UNL     1       2.436   4.757  20.803  0.00  0.00    +0.000 C 
ATOM     17  C   UNL     1       2.495   3.546  21.709  0.00  0.00    +0.000 C 
ATOM     18  C   UNL     1       1.385   2.629  21.213  0.00  0.00    +0.000 C 
ENDBRANCH  13  14
ENDBRANCH  12  13
ENDBRANCH  11  12
ENDBRANCH  10  11
ENDBRANCH   1  10
TORSDOF 7
ENDMDL
MODEL 3
REMARK VINA RESULT:      -5.7      1.397      2.631
REMARK  Name = 
REMARK  8 active torsions:
REMARK  status: ('A' for Active; 'I' for Inactive)
REMARK    1  A    between atoms: C_1  and  O_2
REMARK    2  A    between atoms: O_2  and  C_3
REMARK    3  A    between atoms: C_8  and  O_9
REMARK    4  A    between atoms: O_9  and  C_10
REMARK    5  A    between atoms: C_10  and  C_11
REMARK    6  A    between atoms: C_11  and  C_12
REMARK    7  A    between atoms: C_12  and  C_13
REMARK    8  A    between atoms: C_13  and  N_14
REMARK                            x       y       z     vdW  Elec       q    Type
REMARK                         _______ _______ _______ _____ _____    ______ ____
ROOT
ATOM      1  O   UNL     1       4.316   4.299  18.093  0.00  0.00    +0.000 OA
ENDROOT
BRANCH   1   7
ATOM      2  C   UNL     1       6.684   4.558  17.276  0.00  0.00    +0.000 A 
ATOM      3  C   UNL     1       7.509   4.618  16.144  0.00  0.00    +0.000 A 
ATOM      4  C   UNL     1       6.960   4.644  14.864  0.00  0.00    +0.000 A 
ATOM      5  C   UNL     1       5.584   4.571  14.700  0.00  0.00    +0.000 A 
ATOM      6  C   UNL     1       4.755   4.457  15.817  0.00  0.00    +0.000 A 
ATOM      7  C   UNL     1       5.287   4.434  17.117  0.00  0.00    +0.000 A 
BRANCH   2   9
ATOM      8  C   UNL     1       7.681   5.800  19.033  0.00  0.00    +0.000 C 
ATOM      9  O   UNL     1       7.252   4.540  18.522  0.00  0.00    +0.000 OA
ENDBRANCH   2   9
ENDBRANCH   1   7
BRANCH   1  10
ATOM     10  C   UNL     1       4.247   3.026  18.721  0.00  0.00    +0.000 C 
BRANCH  10  11
ATOM     11  C   UNL     1       3.569   1.960  17.854  0.00  0.00    +0.000 C 
BRANCH  11  12
ATOM     12  C   UNL     1       2.056   2.150  18.025  0.00  0.00    +0.000 C 
BRANCH  12  13
ATOM     13  C   UNL     1       1.610   3.571  18.374  0.00  0.00    +0.000 C 
BRANCH  13  14
ATOM     14  N   UNL     1       0.892   3.596  19.662  0.00  0.00    +0.000 NA
ATOM     15  C   UNL     1       1.132   4.839  20.409  0.00  0.00    +0.000 C 
ATOM     16  C   UNL     1       2.290   4.534  21.336  0.00  0.00    +0.000 C 
ATOM     17  C   UNL     1       2.060   3.088  21.724  0.00  0.00    +0.000 C 
ATOM     18  C   UNL     1       1.252   2.498  20.576  0.00  0.00    +0.000 C 
ENDBRANCH  13  14
ENDBRANCH  12  13
ENDBRANCH  11  12
ENDBRANCH  10  11
ENDBRANCH   1  10
TORSDOF 7
ENDMDL
MODEL 4
REMARK VINA RESULT:      -5.7      1.391      1.539
REMARK  Name = 
REMARK  8 active torsions:
REMARK  status: ('A' for Active; 'I' for Inactive)
REMARK    1  A    between atoms: C_1  and  O_2
REMARK    2  A    between atoms: O_2  and  C_3
REMARK    3  A    between atoms: C_8  and  O_9
REMARK    4  A    between atoms: O_9  and  C_10
REMARK    5  A    between atoms: C_10  and  C_11
REMARK    6  A    between atoms: C_11  and  C_12
REMARK    7  A    between atoms: C_12  and  C_13
REMARK    8  A    between atoms: C_13  and  N_14
REMARK                            x       y       z     vdW  Elec       q    Type
REMARK                         _______ _______ _______ _____ _____    ______ ____
ROOT
ATOM      1  O   UNL     1       3.594   6.646  17.485  0.00  0.00    +0.000 OA
ENDROOT
BRANCH   1   7
ATOM      2  C   UNL     1       6.058   6.447  17.009  0.00  0.00    +0.000 A 
ATOM      3  C   UNL     1       7.079   5.591  16.571  0.00  0.00    +0.000 A 
ATOM      4  C   UNL     1       6.781   4.322  16.081  0.00  0.00    +0.000 A 
ATOM      5  C   UNL     1       5.466   3.879  16.058  0.00  0.00    +0.000 A 
ATOM      6  C   UNL     1       4.447   4.702  16.542  0.00  0.00    +0.000 A 
ATOM      7  C   UNL     1       4.724   5.988  17.036  0.00  0.00    +0.000 A 
BRANCH   2   9
ATOM      8  C   UNL     1       7.773   7.976  17.599  0.00  0.00    +0.000 C 
ATOM      9  O   UNL     1       6.381   7.692  17.481  0.00  0.00    +0.000 OA
ENDBRANCH   2   9
ENDBRANCH   1   7
BRANCH   1  10
ATOM     10  C   UNL     1       2.699   5.869  18.270  0.00  0.00    +0.000 C 
BRANCH  10  11
ATOM     11  C   UNL     1       2.642   6.310  19.736  0.00  0.00    +0.000 C 
BRANCH  11  12
ATOM     12  C   UNL     1       2.007   5.153  20.519  0.00  0.00    +0.000 C 
BRANCH  12  13
ATOM     13  C   UNL     1       1.314   4.088  19.667  0.00  0.00    +0.000 C 
BRANCH  13  14
ATOM     14  N   UNL     1       1.808   2.740  20.004  0.00  0.00    +0.000 NA
ATOM     15  C   UNL     1       3.132   2.775  20.639  0.00  0.00    +0.000 C 
ATOM     16  C   UNL     1       4.126   2.593  19.509  0.00  0.00    +0.000 C 
ATOM     17  C   UNL     1       3.421   1.635  18.572  0.00  0.00    +0.000 C 
ATOM     18  C   UNL     1       1.937   1.837  18.846  0.00  0.00    +0.000 C 
ENDBRANCH  13  14
ENDBRANCH  12  13
ENDBRANCH  11  12
ENDBRANCH  10  11
ENDBRANCH   1  10
TORSDOF 7
ENDMDL
MODEL 5
REMARK VINA RESULT:      -5.7      2.198      5.489
REMARK  Name = 
REMARK  8 active torsions:
REMARK  status: ('A' for Active; 'I' for Inactive)
REMARK    1  A    between atoms: C_1  and  O_2
REMARK    2  A    between atoms: O_2  and  C_3
REMARK    3  A    between atoms: C_8  and  O_9
REMARK    4  A    between atoms: O_9  and  C_10
REMARK    5  A    between atoms: C_10  and  C_11
REMARK    6  A    between atoms: C_11  and  C_12
REMARK    7  A    between atoms: C_12  and  C_13
REMARK    8  A    between atoms: C_13  and  N_14
REMARK                            x       y       z     vdW  Elec       q    Type
REMARK                         _______ _______ _______ _____ _____    ______ ____
ROOT
ATOM      1  O   UNL     1       4.863   4.110  19.026  0.00  0.00    +0.000 OA
ENDROOT
BRANCH   1   7
ATOM      2  C   UNL     1       2.383   4.533  19.108  0.00  0.00    +0.000 A 
ATOM      3  C   UNL     1       1.179   4.194  19.743  0.00  0.00    +0.000 A 
ATOM      4  C   UNL     1       1.174   3.361  20.859  0.00  0.00    +0.000 A 
ATOM      5  C   UNL     1       2.365   2.827  21.331  0.00  0.00    +0.000 A 
ATOM      6  C   UNL     1       3.564   3.115  20.674  0.00  0.00    +0.000 A 
ATOM      7  C   UNL     1       3.592   3.956  19.550  0.00  0.00    +0.000 A 
BRANCH   2   9
ATOM      8  C   UNL     1       2.330   6.758  18.289  0.00  0.00    +0.000 C 
ATOM      9  O   UNL     1       2.357   5.360  18.016  0.00  0.00    +0.000 OA
ENDBRANCH   2   9
ENDBRANCH   1   7
BRANCH   1  10
ATOM     10  C   UNL     1       5.513   5.336  19.336  0.00  0.00    +0.000 C 
BRANCH  10  11
ATOM     11  C   UNL     1       7.041   5.230  19.326  0.00  0.00    +0.000 C 
BRANCH  11  12
ATOM     12  C   UNL     1       7.546   6.246  18.292  0.00  0.00    +0.000 C 
BRANCH  12  13
ATOM     13  C   UNL     1       6.486   6.778  17.325  0.00  0.00    +0.000 C 
BRANCH  13  14
ATOM     14  N   UNL     1       6.624   6.152  15.997  0.00  0.00    +0.000 NA
ATOM     15  C   UNL     1       5.326   5.957  15.336  0.00  0.00    +0.000 C 
ATOM     16  C   UNL     1       4.902   4.546  15.689  0.00  0.00    +0.000 C 
ATOM     17  C   UNL     1       6.209   3.781  15.712  0.00  0.00    +0.000 C 
ATOM     18  C   UNL     1       7.272   4.828  16.017  0.00  0.00    +0.000 C 
ENDBRANCH  13  14
ENDBRANCH  12  13
ENDBRANCH  11  12
ENDBRANCH  10  11
ENDBRANCH   1  10
TORSDOF 7
ENDMDL
MODEL 6
REMARK VINA RESULT:      -5.7      1.117      1.962
REMARK  Name = 
REMARK  8 active torsions:
REMARK  status: ('A' for Active; 'I' for Inactive)
REMARK    1  A    between atoms: C_1  and  O_2
REMARK    2  A    between atoms: O_2  and  C_3
REMARK    3  A    between atoms: C_8  and  O_9
REMARK    4  A    between atoms: O_9  and  C_10
REMARK    5  A    between atoms: C_10  and  C_11
REMARK    6  A    between atoms: C_11  and  C_12
REMARK    7  A    between atoms: C_12  and  C_13
REMARK    8  A    between atoms: C_13  and  N_14
REMARK                            x       y       z     vdW  Elec       q    Type
REMARK                         _______ _______ _______ _____ _____    ______ ____
ROOT
ATOM      1  O   UNL     1       4.655   6.778  17.621  0.00  0.00    +0.000 OA
ENDROOT
BRANCH   1   7
ATOM      2  C   UNL     1       6.904   5.838  16.992  0.00  0.00    +0.000 A 
ATOM      3  C   UNL     1       7.590   4.993  16.108  0.00  0.00    +0.000 A 
ATOM      4  C   UNL     1       6.936   4.419  15.021  0.00  0.00    +0.000 A 
ATOM      5  C   UNL     1       5.582   4.652  14.826  0.00  0.00    +0.000 A 
ATOM      6  C   UNL     1       4.876   5.448  15.730  0.00  0.00    +0.000 A 
ATOM      7  C   UNL     1       5.517   6.040  16.831  0.00  0.00    +0.000 A 
BRANCH   2   9
ATOM      8  C   UNL     1       7.538   5.658  19.270  0.00  0.00    +0.000 C 
ATOM      9  O   UNL     1       7.575   6.393  18.049  0.00  0.00    +0.000 OA
ENDBRANCH   2   9
ENDBRANCH   1   7
BRANCH   1  10
ATOM     10  C   UNL     1       3.842   6.027  18.513  0.00  0.00    +0.000 C 
BRANCH  10  11
ATOM     11  C   UNL     1       2.352   6.072  18.157  0.00  0.00    +0.000 C 
BRANCH  11  12
ATOM     12  C   UNL     1       1.930   4.631  17.843  0.00  0.00    +0.000 C 
BRANCH  12  13
ATOM     13  C   UNL     1       2.960   3.556  18.197  0.00  0.00    +0.000 C 
BRANCH  13  14
ATOM     14  N   UNL     1       2.395   2.577  19.145  0.00  0.00    +0.000 NA
ATOM     15  C   UNL     1       1.014   2.903  19.525  0.00  0.00    +0.000 C 
ATOM     16  C   UNL     1       1.128   3.711  20.801  0.00  0.00    +0.000 C 
ATOM     17  C   UNL     1       2.306   3.081  21.514  0.00  0.00    +0.000 C 
ATOM     18  C   UNL     1       3.146   2.457  20.407  0.00  0.00    +0.000 C 
ENDBRANCH  13  14
ENDBRANCH  12  13
ENDBRANCH  11  12
ENDBRANCH  10  11
ENDBRANCH   1  10
TORSDOF 7
ENDMDL
MODEL 7
REMARK VINA RESULT:      -5.6      1.464      3.219
REMARK  Name = 
REMARK  8 active torsions:
REMARK  status: ('A' for Active; 'I' for Inactive)
REMARK    1  A    between atoms: C_1  and  O_2
REMARK    2  A    between atoms: O_2  and  C_3
REMARK    3  A    between atoms: C_8  and  O_9
REMARK    4  A    between atoms: O_9  and  C_10
REMARK    5  A    between atoms: C_10  and  C_11
REMARK    6  A    between atoms: C_11  and  C_12
REMARK    7  A    between atoms: C_12  and  C_13
REMARK    8  A    between atoms: C_13  and  N_14
REMARK                            x       y       z     vdW  Elec       q    Type
REMARK                         _______ _______ _______ _____ _____    ______ ____
ROOT
ATOM      1  O   UNL     1       3.831   5.586  17.090  0.00  0.00    +0.000 OA
ENDROOT
BRANCH   1   7
ATOM      2  C   UNL     1       6.314   5.787  16.721  0.00  0.00    +0.000 A 
ATOM      3  C   UNL     1       7.566   5.865  17.347  0.00  0.00    +0.000 A 
ATOM      4  C   UNL     1       7.685   5.697  18.725  0.00  0.00    +0.000 A 
ATOM      5  C   UNL     1       6.550   5.487  19.497  0.00  0.00    +0.000 A 
ATOM      6  C   UNL     1       5.292   5.462  18.892  0.00  0.00    +0.000 A 
ATOM      7  C   UNL     1       5.151   5.624  17.503  0.00  0.00    +0.000 A 
BRANCH   2   9
ATOM      8  C   UNL     1       6.438   4.780  14.578  0.00  0.00    +0.000 C 
ATOM      9  O   UNL     1       6.229   5.950  15.364  0.00  0.00    +0.000 OA
ENDBRANCH   2   9
ENDBRANCH   1   7
BRANCH   1  10
ATOM     10  C   UNL     1       3.103   4.422  17.459  0.00  0.00    +0.000 C 
BRANCH  10  11
ATOM     11  C   UNL     1       3.854   3.120  17.162  0.00  0.00    +0.000 C 
BRANCH  11  12
ATOM     12  C   UNL     1       3.446   2.119  18.251  0.00  0.00    +0.000 C 
BRANCH  12  13
ATOM     13  C   UNL     1       1.954   2.092  18.591  0.00  0.00    +0.000 C 
BRANCH  13  14
ATOM     14  N   UNL     1       1.741   2.252  20.041  0.00  0.00    +0.000 NA
ATOM     15  C   UNL     1       0.616   3.147  20.343  0.00  0.00    +0.000 C 
ATOM     16  C   UNL     1       1.231   4.519  20.528  0.00  0.00    +0.000 C 
ATOM     17  C   UNL     1       2.561   4.223  21.189  0.00  0.00    +0.000 C 
ATOM     18  C   UNL     1       2.901   2.800  20.766  0.00  0.00    +0.000 C 
ENDBRANCH  13  14
ENDBRANCH  12  13
ENDBRANCH  11  12
ENDBRANCH  10  11
ENDBRANCH   1  10
TORSDOF 7
ENDMDL
MODEL 8
REMARK VINA RESULT:      -5.6      2.167      5.410
REMARK  Name = 
REMARK  8 active torsions:
REMARK  status: ('A' for Active; 'I' for Inactive)
REMARK    1  A    between atoms: C_1  and  O_2
REMARK    2  A    between atoms: O_2  and  C_3
REMARK    3  A    between atoms: C_8  and  O_9
REMARK    4  A    between atoms: O_9  and  C_10
REMARK    5  A    between atoms: C_10  and  C_11
REMARK    6  A    between atoms: C_11  and  C_12
REMARK    7  A    between atoms: C_12  and  C_13
REMARK    8  A    between atoms: C_13  and  N_14
REMARK                            x       y       z     vdW  Elec       q    Type
REMARK                         _______ _______ _______ _____ _____    ______ ____
ROOT
ATOM      1  O   UNL     1       4.295   5.247  19.552  0.00  0.00    +0.000 OA
ENDROOT
BRANCH   1   7
ATOM      2  C   UNL     1       3.102   3.032  19.642  0.00  0.00    +0.000 A 
ATOM      3  C   UNL     1       1.928   2.374  20.035  0.00  0.00    +0.000 A 
ATOM      4  C   UNL     1       0.836   3.093  20.516  0.00  0.00    +0.000 A 
ATOM      5  C   UNL     1       0.918   4.473  20.643  0.00  0.00    +0.000 A 
ATOM      6  C   UNL     1       2.101   5.133  20.306  0.00  0.00    +0.000 A 
ATOM      7  C   UNL     1       3.213   4.427  19.816  0.00  0.00    +0.000 A 
BRANCH   2   9
ATOM      8  C   UNL     1       3.833   1.249  18.259  0.00  0.00    +0.000 C 
ATOM      9  O   UNL     1       4.157   2.298  19.168  0.00  0.00    +0.000 OA
ENDBRANCH   2   9
ENDBRANCH   1   7
BRANCH   1  10
ATOM     10  C   UNL     1       3.987   6.509  18.977  0.00  0.00    +0.000 C 
BRANCH  10  11
ATOM     11  C   UNL     1       3.537   6.414  17.515  0.00  0.00    +0.000 C 
BRANCH  11  12
ATOM     12  C   UNL     1       4.701   6.935  16.661  0.00  0.00    +0.000 C 
BRANCH  12  13
ATOM     13  C   UNL     1       5.488   5.864  15.904  0.00  0.00    +0.000 C 
BRANCH  13  14
ATOM     14  N   UNL     1       6.928   5.955  16.208  0.00  0.00    +0.000 NA
ATOM     15  C   UNL     1       7.484   4.672  16.657  0.00  0.00    +0.000 C 
ATOM     16  C   UNL     1       7.410   4.708  18.170  0.00  0.00    +0.000 C 
ATOM     17  C   UNL     1       7.684   6.160  18.501  0.00  0.00    +0.000 C 
ATOM     18  C   UNL     1       7.263   6.932  17.259  0.00  0.00    +0.000 C 
ENDBRANCH  13  14
ENDBRANCH  12  13
ENDBRANCH  11  12
ENDBRANCH  10  11
ENDBRANCH   1  10
TORSDOF 7
ENDMDL
MODEL 9
REMARK VINA RESULT:      -5.6      1.378      1.523
REMARK  Name = 
REMARK  8 active torsions:
REMARK  status: ('A' for Active; 'I' for Inactive)
REMARK    1  A    between atoms: C_1  and  O_2
REMARK    2  A    between atoms: O_2  and  C_3
REMARK    3  A    between atoms: C_8  and  O_9
REMARK    4  A    between atoms: O_9  and  C_10
REMARK    5  A    between atoms: C_10  and  C_11
REMARK    6  A    between atoms: C_11  and  C_12
REMARK    7  A    between atoms: C_12  and  C_13
REMARK    8  A    between atoms: C_13  and  N_14
REMARK                            x       y       z     vdW  Elec       q    Type
REMARK                         _______ _______ _______ _____ _____    ______ ____
ROOT
ATOM      1  O   UNL     1       4.786   5.837  18.720  0.00  0.00    +0.000 OA
ENDROOT
BRANCH   1   7
ATOM      2  C   UNL     1       6.791   5.771  17.200  0.00  0.00    +0.000 A 
ATOM      3  C   UNL     1       7.328   5.219  16.027  0.00  0.00    +0.000 A 
ATOM      4  C   UNL     1       6.544   4.426  15.191  0.00  0.00    +0.000 A 
ATOM      5  C   UNL     1       5.229   4.146  15.536  0.00  0.00    +0.000 A 
ATOM      6  C   UNL     1       4.701   4.646  16.727  0.00  0.00    +0.000 A 
ATOM      7  C   UNL     1       5.472   5.451  17.583  0.00  0.00    +0.000 A 
BRANCH   2   9
ATOM      8  C   UNL     1       7.725   7.913  17.604  0.00  0.00    +0.000 C 
ATOM      9  O   UNL     1       7.584   6.551  17.999  0.00  0.00    +0.000 OA
ENDBRANCH   2   9
ENDBRANCH   1   7
BRANCH   1  10
ATOM     10  C   UNL     1       3.381   5.622  18.695  0.00  0.00    +0.000 C 
BRANCH  10  11
ATOM     11  C   UNL     1       2.596   6.660  19.503  0.00  0.00    +0.000 C 
BRANCH  11  12
ATOM     12  C   UNL     1       1.750   5.879  20.518  0.00  0.00    +0.000 C 
BRANCH  12  13
ATOM     13  C   UNL     1       2.411   4.626  21.095  0.00  0.00    +0.000 C 
BRANCH  13  14
ATOM     14  N   UNL     1       1.519   3.457  20.974  0.00  0.00    +0.000 NA
ATOM     15  C   UNL     1       2.263   2.212  20.738  0.00  0.00    +0.000 C 
ATOM     16  C   UNL     1       2.293   2.041  19.233  0.00  0.00    +0.000 C 
ATOM     17  C   UNL     1       0.948   2.575  18.790  0.00  0.00    +0.000 C 
ATOM     18  C   UNL     1       0.538   3.557  19.880  0.00  0.00    +0.000 C 
ENDBRANCH  13  14
ENDBRANCH  12  13
ENDBRANCH  11  12
ENDBRANCH  10  11
ENDBRANCH   1  10
TORSDOF 7
ENDMDL
