MODEL 1
REMARK VINA RESULT:      -7.8      0.000      0.000
REMARK  Name = 
REMARK  6 active torsions:
REMARK  status: ('A' for Active; 'I' for Inactive)
REMARK    1  A    between atoms: C_1  and  O_2
REMARK    2  A    between atoms: O_2  and  C_3
REMARK    3  A    between atoms: C_6  and  C_7
REMARK    4  A    between atoms: C_10  and  C_11
REMARK    5  A    between atoms: C_22  and  O_23
REMARK    6  A    between atoms: O_23  and  C_24
REMARK                            x       y       z     vdW  Elec       q    Type
REMARK                         _______ _______ _______ _____ _____    ______ ____
ROOT
ATOM      1  C   UNL     1       2.348   6.576  19.671  0.00  0.00    +0.000 A 
ATOM      2  N   UNL     1       3.226   6.218  18.774  0.00  0.00    +0.000 NA
ATOM      3  N   UNL     1       3.503   4.907  19.001  0.00  0.00    +0.000 N 
ATOM      4  C   UNL     1       4.344   3.980  18.434  0.00  0.00    +0.000 A 
ATOM      5  N   UNL     1       4.169   2.828  19.088  0.00  0.00    +0.000 NA
ATOM      6  N   UNL     1       3.228   3.014  20.097  0.00  0.00    +0.000 NA
ATOM      7  C   UNL     1       2.871   4.261  20.006  0.00  0.00    +0.000 A 
ATOM      8  S   UNL     1       1.815   5.322  20.824  0.00  0.00    +0.000 S 
ENDROOT
BRANCH   1  12
ATOM      9  C   UNL     1       0.625  10.489  20.060  0.00  0.00    +0.000 A 
ATOM     10  C   UNL     1       1.037  10.030  18.800  0.00  0.00    +0.000 A 
ATOM     11  C   UNL     1       1.619   8.770  18.644  0.00  0.00    +0.000 A 
ATOM     12  C   UNL     1       1.833   7.963  19.760  0.00  0.00    +0.000 A 
ATOM     13  C   UNL     1       1.513   8.465  21.030  0.00  0.00    +0.000 A 
ATOM     14  C   UNL     1       0.920   9.726  21.198  0.00  0.00    +0.000 A 
BRANCH   9  16
ATOM     15  C   UNL     1      -1.300  11.733  19.506  0.00  0.00    +0.000 C 
ATOM     16  O   UNL     1      -0.044  11.675  20.185  0.00  0.00    +0.000 OA
ENDBRANCH   9  16
BRANCH  14  17
ATOM     17  O   UNL     1       0.682  10.011  22.514  0.00  0.00    +0.000 OA
ATOM     18  C   UNL     1      -0.583   9.694  23.074  0.00  0.00    +0.000 C 
ENDBRANCH  14  17
ENDBRANCH   1  12
BRANCH   4  19
ATOM     19  C   UNL     1       5.263   4.235  17.334  0.00  0.00    +0.000 A 
ATOM     20  C   UNL     1       4.844   4.150  16.010  0.00  0.00    +0.000 A 
ATOM     21  C   UNL     1       5.771   4.384  14.996  0.00  0.00    +0.000 A 
ATOM     22  C   UNL     1       7.083   4.692  15.330  0.00  0.00    +0.000 A 
ATOM     23  C   UNL     1       7.417   4.761  16.670  0.00  0.00    +0.000 A 
ATOM     24  N   UNL     1       6.540   4.540  17.669  0.00  0.00    +0.000 NA
ENDBRANCH   4  19
TORSDOF 4
ENDMDL
MODEL 2
REMARK VINA RESULT:      -7.3      3.312      5.802
REMARK  Name = 
REMARK  6 active torsions:
REMARK  status: ('A' for Active; 'I' for Inactive)
REMARK    1  A    between atoms: C_1  and  O_2
REMARK    2  A    between atoms: O_2  and  C_3
REMARK    3  A    between atoms: C_6  and  C_7
REMARK    4  A    between atoms: C_10  and  C_11
REMARK    5  A    between atoms: C_22  and  O_23
REMARK    6  A    between atoms: O_23  and  C_24
REMARK                            x       y       z     vdW  Elec       q    Type
REMARK                         _______ _______ _______ _____ _____    ______ ____
ROOT
ATOM      1  C   UNL     1       4.782   4.515  17.038  0.00  0.00    +0.000 A 
ATOM      2  N   UNL     1       4.859   4.012  15.836  0.00  0.00    +0.000 NA
ATOM      3  N   UNL     1       5.953   4.567  15.251  0.00  0.00    +0.000 N 
ATOM      4  C   UNL     1       6.546   4.473  14.015  0.00  0.00    +0.000 A 
ATOM      5  N   UNL     1       7.626   5.260  14.028  0.00  0.00    +0.000 NA
ATOM      6  N   UNL     1       7.722   5.882  15.270  0.00  0.00    +0.000 NA
ATOM      7  C   UNL     1       6.707   5.443  15.952  0.00  0.00    +0.000 A 
ATOM      8  S   UNL     1       6.050   5.680  17.508  0.00  0.00    +0.000 S 
ENDROOT
BRANCH   1  12
ATOM      9  C   UNL     1       1.753   3.615  19.944  0.00  0.00    +0.000 A 
ATOM     10  C   UNL     1       2.211   2.609  19.078  0.00  0.00    +0.000 A 
ATOM     11  C   UNL     1       3.181   2.876  18.109  0.00  0.00    +0.000 A 
ATOM     12  C   UNL     1       3.680   4.170  17.967  0.00  0.00    +0.000 A 
ATOM     13  C   UNL     1       3.148   5.193  18.766  0.00  0.00    +0.000 A 
ATOM     14  C   UNL     1       2.179   4.935  19.747  0.00  0.00    +0.000 A 
BRANCH   9  16
ATOM     15  C   UNL     1       1.423   2.477  21.983  0.00  0.00    +0.000 C 
ATOM     16  O   UNL     1       0.886   3.317  20.960  0.00  0.00    +0.000 OA
ENDBRANCH   9  16
BRANCH  14  17
ATOM     17  O   UNL     1       1.809   6.070  20.414  0.00  0.00    +0.000 OA
ATOM     18  C   UNL     1       2.136   7.336  19.862  0.00  0.00    +0.000 C 
ENDBRANCH  14  17
ENDBRANCH   1  12
BRANCH   4  19
ATOM     19  C   UNL     1       6.057   3.671  12.903  0.00  0.00    +0.000 A 
ATOM     20  C   UNL     1       4.743   3.780  12.458  0.00  0.00    +0.000 A 
ATOM     21  C   UNL     1       4.322   2.973  11.403  0.00  0.00    +0.000 A 
ATOM     22  C   UNL     1       5.218   2.083  10.826  0.00  0.00    +0.000 A 
ATOM     23  C   UNL     1       6.507   2.038  11.325  0.00  0.00    +0.000 A 
ATOM     24  N   UNL     1       6.939   2.808  12.343  0.00  0.00    +0.000 NA
ENDBRANCH   4  19
TORSDOF 4
ENDMDL
MODEL 3
REMARK VINA RESULT:      -7.1      0.965      1.959
REMARK  Name = 
REMARK  6 active torsions:
REMARK  status: ('A' for Active; 'I' for Inactive)
REMARK    1  A    between atoms: C_1  and  O_2
REMARK    2  A    between atoms: O_2  and  C_3
REMARK    3  A    between atoms: C_6  and  C_7
REMARK    4  A    between atoms: C_10  and  C_11
REMARK    5  A    between atoms: C_22  and  O_23
REMARK    6  A    between atoms: O_23  and  C_24
REMARK                            x       y       z     vdW  Elec       q    Type
REMARK                         _______ _______ _______ _____ _____    ______ ____
ROOT
ATOM      1  C   UNL     1       2.307   6.231  19.900  0.00  0.00    +0.000 A 
ATOM      2  N   UNL     1       3.176   5.979  18.961  0.00  0.00    +0.000 NA
ATOM      3  N   UNL     1       3.551   4.682  19.112  0.00  0.00    +0.000 N 
ATOM      4  C   UNL     1       4.433   3.844  18.474  0.00  0.00    +0.000 A 
ATOM      5  N   UNL     1       4.360   2.653  19.074  0.00  0.00    +0.000 NA
ATOM      6  N   UNL     1       3.443   2.724  20.119  0.00  0.00    +0.000 NA
ATOM      7  C   UNL     1       2.998   3.945  20.102  0.00  0.00    +0.000 A 
ATOM      8  S   UNL     1       1.901   4.888  21.005  0.00  0.00    +0.000 S 
ENDROOT
BRANCH   1  12
ATOM      9  C   UNL     1       0.809  10.229  20.350  0.00  0.00    +0.000 A 
ATOM     10  C   UNL     1       0.626   9.295  21.381  0.00  0.00    +0.000 A 
ATOM     11  C   UNL     1       1.084   7.981  21.257  0.00  0.00    +0.000 A 
ATOM     12  C   UNL     1       1.701   7.572  20.076  0.00  0.00    +0.000 A 
ATOM     13  C   UNL     1       1.792   8.479  19.010  0.00  0.00    +0.000 A 
ATOM     14  C   UNL     1       1.343   9.803  19.127  0.00  0.00    +0.000 A 
BRANCH   9  16
ATOM     15  C   UNL     1      -0.252  11.814  21.737  0.00  0.00    +0.000 C 
ATOM     16  O   UNL     1       0.457  11.539  20.527  0.00  0.00    +0.000 OA
ENDBRANCH   9  16
BRANCH  14  17
ATOM     17  O   UNL     1       1.538  10.515  17.975  0.00  0.00    +0.000 OA
ATOM     18  C   UNL     1       2.446  11.606  17.980  0.00  0.00    +0.000 C 
ENDBRANCH  14  17
ENDBRANCH   1  12
BRANCH   4  19
ATOM     19  C   UNL     1       5.295   4.216  17.361  0.00  0.00    +0.000 A 
ATOM     20  C   UNL     1       4.810   4.260  16.057  0.00  0.00    +0.000 A 
ATOM     21  C   UNL     1       5.684   4.602  15.027  0.00  0.00    +0.000 A 
ATOM     22  C   UNL     1       7.010   4.887  15.324  0.00  0.00    +0.000 A 
ATOM     23  C   UNL     1       7.411   4.824  16.647  0.00  0.00    +0.000 A 
ATOM     24  N   UNL     1       6.586   4.496  17.661  0.00  0.00    +0.000 NA
ENDBRANCH   4  19
TORSDOF 4
ENDMDL
MODEL 4
REMARK VINA RESULT:      -7.0      3.821      8.311
REMARK  Name = 
REMARK  6 active torsions:
REMARK  status: ('A' for Active; 'I' for Inactive)
REMARK    1  A    between atoms: C_1  and  O_2
REMARK    2  A    between atoms: O_2  and  C_3
REMARK    3  A    between atoms: C_6  and  C_7
REMARK    4  A    between atoms: C_10  and  C_11
REMARK    5  A    between atoms: C_22  and  O_23
REMARK    6  A    between atoms: O_23  and  C_24
REMARK                            x       y       z     vdW  Elec       q    Type
REMARK                         _______ _______ _______ _____ _____    ______ ____
ROOT
ATOM      1  C   UNL     1       2.419   7.283  19.111  0.00  0.00    +0.000 A 
ATOM      2  N   UNL     1       1.655   7.976  19.911  0.00  0.00    +0.000 NA
ATOM      3  N   UNL     1       1.492   9.195  19.336  0.00  0.00    +0.000 N 
ATOM      4  C   UNL     1       0.838  10.353  19.682  0.00  0.00    +0.000 A 
ATOM      5  N   UNL     1       1.028  11.232  18.693  0.00  0.00    +0.000 NA
ATOM      6  N   UNL     1       1.826  10.649  17.712  0.00  0.00    +0.000 NA
ATOM      7  C   UNL     1       2.077   9.449  18.143  0.00  0.00    +0.000 A 
ATOM      8  S   UNL     1       2.962   8.090  17.614  0.00  0.00    +0.000 S 
ENDROOT
BRANCH   1  12
ATOM      9  C   UNL     1       3.738   3.250  19.768  0.00  0.00    +0.000 A 
ATOM     10  C   UNL     1       2.448   3.636  20.165  0.00  0.00    +0.000 A 
ATOM     11  C   UNL     1       1.997   4.946  19.983  0.00  0.00    +0.000 A 
ATOM     12  C   UNL     1       2.850   5.902  19.433  0.00  0.00    +0.000 A 
ATOM     13  C   UNL     1       4.171   5.537  19.131  0.00  0.00    +0.000 A 
ATOM     14  C   UNL     1       4.631   4.223  19.302  0.00  0.00    +0.000 A 
BRANCH   9  16
ATOM     15  C   UNL     1       3.847   1.156  18.688  0.00  0.00    +0.000 C 
ATOM     16  O   UNL     1       4.128   1.942  19.849  0.00  0.00    +0.000 OA
ENDBRANCH   9  16
BRANCH  14  17
ATOM     17  O   UNL     1       5.942   4.087  18.936  0.00  0.00    +0.000 OA
ATOM     18  C   UNL     1       6.371   4.609  17.688  0.00  0.00    +0.000 C 
ENDBRANCH  14  17
ENDBRANCH   1  12
BRANCH   4  19
ATOM     19  C   UNL     1       0.096  10.567  20.916  0.00  0.00    +0.000 A 
ATOM     20  C   UNL     1       0.267   9.729  22.014  0.00  0.00    +0.000 A 
ATOM     21  C   UNL     1      -0.485   9.967  23.163  0.00  0.00    +0.000 A 
ATOM     22  C   UNL     1      -1.382  11.026  23.184  0.00  0.00    +0.000 A 
ATOM     23  C   UNL     1      -1.489  11.815  22.052  0.00  0.00    +0.000 A 
ATOM     24  N   UNL     1      -0.773  11.606  20.929  0.00  0.00    +0.000 NA
ENDBRANCH   4  19
TORSDOF 4
ENDMDL
MODEL 5
REMARK VINA RESULT:      -7.0      1.073      1.137
REMARK  Name = 
REMARK  6 active torsions:
REMARK  status: ('A' for Active; 'I' for Inactive)
REMARK    1  A    between atoms: C_1  and  O_2
REMARK    2  A    between atoms: O_2  and  C_3
REMARK    3  A    between atoms: C_6  and  C_7
REMARK    4  A    between atoms: C_10  and  C_11
REMARK    5  A    between atoms: C_22  and  O_23
REMARK    6  A    between atoms: O_23  and  C_24
REMARK                            x       y       z     vdW  Elec       q    Type
REMARK                         _______ _______ _______ _____ _____    ______ ____
ROOT
ATOM      1  C   UNL     1       2.518   6.545  18.773  0.00  0.00    +0.000 A 
ATOM      2  N   UNL     1       3.383   6.193  17.862  0.00  0.00    +0.000 NA
ATOM      3  N   UNL     1       3.600   4.861  18.023  0.00  0.00    +0.000 N 
ATOM      4  C   UNL     1       4.400   3.926  17.412  0.00  0.00    +0.000 A 
ATOM      5  N   UNL     1       4.170   2.752  18.007  0.00  0.00    +0.000 NA
ATOM      6  N   UNL     1       3.233   2.930  19.021  0.00  0.00    +0.000 NA
ATOM      7  C   UNL     1       2.934   4.194  18.992  0.00  0.00    +0.000 A 
ATOM      8  S   UNL     1       1.923   5.260  19.860  0.00  0.00    +0.000 S 
ENDROOT
BRANCH   1  12
ATOM      9  C   UNL     1       0.944  10.509  19.259  0.00  0.00    +0.000 A 
ATOM     10  C   UNL     1       1.730  10.203  18.138  0.00  0.00    +0.000 A 
ATOM     11  C   UNL     1       2.273   8.928  17.961  0.00  0.00    +0.000 A 
ATOM     12  C   UNL     1       2.066   7.948  18.931  0.00  0.00    +0.000 A 
ATOM     13  C   UNL     1       1.366   8.286  20.098  0.00  0.00    +0.000 A 
ATOM     14  C   UNL     1       0.809   9.561  20.282  0.00  0.00    +0.000 A 
BRANCH   9  16
ATOM     15  C   UNL     1       1.121  12.754  19.958  0.00  0.00    +0.000 C 
ATOM     16  O   UNL     1       0.326  11.725  19.366  0.00  0.00    +0.000 OA
ENDBRANCH   9  16
BRANCH  14  17
ATOM     17  O   UNL     1       0.161   9.670  21.482  0.00  0.00    +0.000 OA
ATOM     18  C   UNL     1       0.857   9.350  22.676  0.00  0.00    +0.000 C 
ENDBRANCH  14  17
ENDBRANCH   1  12
BRANCH   4  19
ATOM     19  C   UNL     1       5.335   4.194  16.329  0.00  0.00    +0.000 A 
ATOM     20  C   UNL     1       5.013   3.894  15.008  0.00  0.00    +0.000 A 
ATOM     21  C   UNL     1       5.955   4.153  14.014  0.00  0.00    +0.000 A 
ATOM     22  C   UNL     1       7.183   4.696  14.362  0.00  0.00    +0.000 A 
ATOM     23  C   UNL     1       7.423   4.968  15.697  0.00  0.00    +0.000 A 
ATOM     24  N   UNL     1       6.530   4.729  16.678  0.00  0.00    +0.000 NA
ENDBRANCH   4  19
TORSDOF 4
ENDMDL
MODEL 6
REMARK VINA RESULT:      -6.9      1.026      2.135
REMARK  Name = 
REMARK  6 active torsions:
REMARK  status: ('A' for Active; 'I' for Inactive)
REMARK    1  A    between atoms: C_1  and  O_2
REMARK    2  A    between atoms: O_2  and  C_3
REMARK    3  A    between atoms: C_6  and  C_7
REMARK    4  A    between atoms: C_10  and  C_11
REMARK    5  A    between atoms: C_22  and  O_23
REMARK    6  A    between atoms: O_23  and  C_24
REMARK                            x       y       z     vdW  Elec       q    Type
REMARK                         _______ _______ _______ _____ _____    ______ ____
ROOT
ATOM      1  C   UNL     1       2.307   6.199  19.908  0.00  0.00    +0.000 A 
ATOM      2  N   UNL     1       3.184   5.955  18.973  0.00  0.00    +0.000 NA
ATOM      3  N   UNL     1       3.549   4.653  19.110  0.00  0.00    +0.000 N 
ATOM      4  C   UNL     1       4.433   3.819  18.469  0.00  0.00    +0.000 A 
ATOM      5  N   UNL     1       4.347   2.620  19.052  0.00  0.00    +0.000 NA
ATOM      6  N   UNL     1       3.421   2.682  20.089  0.00  0.00    +0.000 NA
ATOM      7  C   UNL     1       2.983   3.906  20.084  0.00  0.00    +0.000 A 
ATOM      8  S   UNL     1       1.882   4.843  20.989  0.00  0.00    +0.000 S 
ENDROOT
BRANCH   1  12
ATOM      9  C   UNL     1       0.826  10.200  20.390  0.00  0.00    +0.000 A 
ATOM     10  C   UNL     1       0.658   9.264  21.422  0.00  0.00    +0.000 A 
ATOM     11  C   UNL     1       1.111   7.949  21.288  0.00  0.00    +0.000 A 
ATOM     12  C   UNL     1       1.707   7.541  20.096  0.00  0.00    +0.000 A 
ATOM     13  C   UNL     1       1.782   8.450  19.030  0.00  0.00    +0.000 A 
ATOM     14  C   UNL     1       1.338   9.775  19.157  0.00  0.00    +0.000 A 
BRANCH   9  16
ATOM     15  C   UNL     1      -0.886  11.818  20.289  0.00  0.00    +0.000 C 
ATOM     16  O   UNL     1       0.480  11.510  20.575  0.00  0.00    +0.000 OA
ENDBRANCH   9  16
BRANCH  14  17
ATOM     17  O   UNL     1       1.515  10.489  18.003  0.00  0.00    +0.000 OA
ATOM     18  C   UNL     1       2.416  11.585  17.999  0.00  0.00    +0.000 C 
ENDBRANCH  14  17
ENDBRANCH   1  12
BRANCH   4  19
ATOM     19  C   UNL     1       5.307   4.201  17.369  0.00  0.00    +0.000 A 
ATOM     20  C   UNL     1       6.611   4.630  17.600  0.00  0.00    +0.000 A 
ATOM     21  C   UNL     1       7.396   5.004  16.511  0.00  0.00    +0.000 A 
ATOM     22  C   UNL     1       6.862   4.942  15.231  0.00  0.00    +0.000 A 
ATOM     23  C   UNL     1       5.559   4.502  15.087  0.00  0.00    +0.000 A 
ATOM     24  N   UNL     1       4.778   4.134  16.123  0.00  0.00    +0.000 NA
ENDBRANCH   4  19
TORSDOF 4
ENDMDL
MODEL 7
REMARK VINA RESULT:      -6.9      2.763      4.323
REMARK  Name = 
REMARK  6 active torsions:
REMARK  status: ('A' for Active; 'I' for Inactive)
REMARK    1  A    between atoms: C_1  and  O_2
REMARK    2  A    between atoms: O_2  and  C_3
REMARK    3  A    between atoms: C_6  and  C_7
REMARK    4  A    between atoms: C_10  and  C_11
REMARK    5  A    between atoms: C_22  and  O_23
REMARK    6  A    between atoms: O_23  and  C_24
REMARK                            x       y       z     vdW  Elec       q    Type
REMARK                         _______ _______ _______ _____ _____    ______ ____
ROOT
ATOM      1  C   UNL     1       1.339   8.805  20.055  0.00  0.00    +0.000 A 
ATOM      2  N   UNL     1       1.602   7.561  20.349  0.00  0.00    +0.000 NA
ATOM      3  N   UNL     1       2.323   7.059  19.313  0.00  0.00    +0.000 N 
ATOM      4  C   UNL     1       2.867   5.834  19.010  0.00  0.00    +0.000 A 
ATOM      5  N   UNL     1       3.488   5.950  17.833  0.00  0.00    +0.000 NA
ATOM      6  N   UNL     1       3.329   7.250  17.360  0.00  0.00    +0.000 NA
ATOM      7  C   UNL     1       2.629   7.862  18.268  0.00  0.00    +0.000 A 
ATOM      8  S   UNL     1       1.973   9.419  18.503  0.00  0.00    +0.000 S 
ENDROOT
BRANCH   1  12
ATOM      9  C   UNL     1      -0.796  11.493  22.633  0.00  0.00    +0.000 A 
ATOM     10  C   UNL     1      -0.648  10.146  22.997  0.00  0.00    +0.000 A 
ATOM     11  C   UNL     1       0.024   9.243  22.171  0.00  0.00    +0.000 A 
ATOM     12  C   UNL     1       0.526   9.670  20.943  0.00  0.00    +0.000 A 
ATOM     13  C   UNL     1       0.289  10.991  20.536  0.00  0.00    +0.000 A 
ATOM     14  C   UNL     1      -0.377  11.909  21.362  0.00  0.00    +0.000 A 
BRANCH   9  16
ATOM     15  C   UNL     1      -2.776  12.518  23.399  0.00  0.00    +0.000 C 
ATOM     16  O   UNL     1      -1.357  12.391  23.499  0.00  0.00    +0.000 OA
ENDBRANCH   9  16
BRANCH  14  17
ATOM     17  O   UNL     1      -0.490  13.140  20.776  0.00  0.00    +0.000 OA
ATOM     18  C   UNL     1      -1.414  13.319  19.713  0.00  0.00    +0.000 C 
ENDBRANCH  14  17
ENDBRANCH   1  12
BRANCH   4  19
ATOM     19  C   UNL     1       2.755   4.636  19.830  0.00  0.00    +0.000 A 
ATOM     20  C   UNL     1       1.646   4.418  20.641  0.00  0.00    +0.000 A 
ATOM     21  C   UNL     1       1.602   3.264  21.422  0.00  0.00    +0.000 A 
ATOM     22  C   UNL     1       2.660   2.367  21.373  0.00  0.00    +0.000 A 
ATOM     23  C   UNL     1       3.724   2.656  20.538  0.00  0.00    +0.000 A 
ATOM     24  N   UNL     1       3.791   3.764  19.773  0.00  0.00    +0.000 NA
ENDBRANCH   4  19
TORSDOF 4
ENDMDL
MODEL 8
REMARK VINA RESULT:      -6.8      3.556      7.406
REMARK  Name = 
REMARK  6 active torsions:
REMARK  status: ('A' for Active; 'I' for Inactive)
REMARK    1  A    between atoms: C_1  and  O_2
REMARK    2  A    between atoms: O_2  and  C_3
REMARK    3  A    between atoms: C_6  and  C_7
REMARK    4  A    between atoms: C_10  and  C_11
REMARK    5  A    between atoms: C_22  and  O_23
REMARK    6  A    between atoms: O_23  and  C_24
REMARK                            x       y       z     vdW  Elec       q    Type
REMARK                         _______ _______ _______ _____ _____    ______ ____
ROOT
ATOM      1  C   UNL     1       4.219   4.499  18.001  0.00  0.00    +0.000 A 
ATOM      2  N   UNL     1       3.620   5.535  18.521  0.00  0.00    +0.000 NA
ATOM      3  N   UNL     1       2.716   5.056  19.414  0.00  0.00    +0.000 N 
ATOM      4  C   UNL     1       1.780   5.620  20.247  0.00  0.00    +0.000 A 
ATOM      5  N   UNL     1       1.183   4.625  20.911  0.00  0.00    +0.000 NA
ATOM      6  N   UNL     1       1.720   3.411  20.492  0.00  0.00    +0.000 NA
ATOM      7  C   UNL     1       2.616   3.721  19.604  0.00  0.00    +0.000 A 
ATOM      8  S   UNL     1       3.710   2.893  18.590  0.00  0.00    +0.000 S 
ENDROOT
BRANCH   1  12
ATOM      9  C   UNL     1       7.125   5.156  14.909  0.00  0.00    +0.000 A 
ATOM     10  C   UNL     1       6.233   4.077  14.811  0.00  0.00    +0.000 A 
ATOM     11  C   UNL     1       5.290   3.825  15.810  0.00  0.00    +0.000 A 
ATOM     12  C   UNL     1       5.252   4.633  16.946  0.00  0.00    +0.000 A 
ATOM     13  C   UNL     1       6.210   5.648  17.087  0.00  0.00    +0.000 A 
ATOM     14  C   UNL     1       7.156   5.915  16.087  0.00  0.00    +0.000 A 
BRANCH   9  16
ATOM     15  C   UNL     1       7.584   4.920  12.608  0.00  0.00    +0.000 C 
ATOM     16  O   UNL     1       7.967   5.459  13.875  0.00  0.00    +0.000 OA
ENDBRANCH   9  16
BRANCH  14  17
ATOM     17  O   UNL     1       7.983   6.951  16.425  0.00  0.00    +0.000 OA
ATOM     18  C   UNL     1       7.666   7.750  17.554  0.00  0.00    +0.000 C 
ENDBRANCH  14  17
ENDBRANCH   1  12
BRANCH   4  19
ATOM     19  C   UNL     1       1.494   7.043  20.354  0.00  0.00    +0.000 A 
ATOM     20  C   UNL     1       0.889   7.574  21.489  0.00  0.00    +0.000 A 
ATOM     21  C   UNL     1       0.620   8.941  21.529  0.00  0.00    +0.000 A 
ATOM     22  C   UNL     1       0.958   9.735  20.441  0.00  0.00    +0.000 A 
ATOM     23  C   UNL     1       1.560   9.130  19.353  0.00  0.00    +0.000 A 
ATOM     24  N   UNL     1       1.831   7.811  19.289  0.00  0.00    +0.000 NA
ENDBRANCH   4  19
TORSDOF 4
ENDMDL
MODEL 9
REMARK VINA RESULT:      -6.7      3.871      7.840
REMARK  Name = 
REMARK  6 active torsions:
REMARK  status: ('A' for Active; 'I' for Inactive)
REMARK    1  A    between atoms: C_1  and  O_2
REMARK    2  A    between atoms: O_2  and  C_3
REMARK    3  A    between atoms: C_6  and  C_7
REMARK    4  A    between atoms: C_10  and  C_11
REMARK    5  A    between atoms: C_22  and  O_23
REMARK    6  A    between atoms: O_23  and  C_24
REMARK                            x       y       z     vdW  Elec       q    Type
REMARK                         _______ _______ _______ _____ _____    ______ ____
ROOT
ATOM      1  C   UNL     1       2.321   7.377  19.212  0.00  0.00    +0.000 A 
ATOM      2  N   UNL     1       1.905   8.598  19.010  0.00  0.00    +0.000 NA
ATOM      3  N   UNL     1       1.145   8.934  20.085  0.00  0.00    +0.000 N 
ATOM      4  C   UNL     1       0.420  10.041  20.454  0.00  0.00    +0.000 A 
ATOM      5  N   UNL     1      -0.118   9.787  21.650  0.00  0.00    +0.000 NA
ATOM      6  N   UNL     1       0.240   8.502  22.048  0.00  0.00    +0.000 NA
ATOM      7  C   UNL     1       0.981   8.040  21.086  0.00  0.00    +0.000 A 
ATOM      8  S   UNL     1       1.808   6.591  20.730  0.00  0.00    +0.000 S 
ENDROOT
BRANCH   1  12
ATOM      9  C   UNL     1       4.850   5.142  16.559  0.00  0.00    +0.000 A 
ATOM     10  C   UNL     1       4.831   6.544  16.489  0.00  0.00    +0.000 A 
ATOM     11  C   UNL     1       4.004   7.298  17.325  0.00  0.00    +0.000 A 
ATOM     12  C   UNL     1       3.152   6.653  18.221  0.00  0.00    +0.000 A 
ATOM     13  C   UNL     1       3.100   5.252  18.217  0.00  0.00    +0.000 A 
ATOM     14  C   UNL     1       3.932   4.484  17.388  0.00  0.00    +0.000 A 
BRANCH   9  16
ATOM     15  C   UNL     1       7.098   4.491  16.265  0.00  0.00    +0.000 C 
ATOM     16  O   UNL     1       5.743   4.421  15.815  0.00  0.00    +0.000 OA
ENDBRANCH   9  16
BRANCH  14  17
ATOM     17  O   UNL     1       3.725   3.142  17.553  0.00  0.00    +0.000 OA
ATOM     18  C   UNL     1       2.396   2.652  17.641  0.00  0.00    +0.000 C 
ENDBRANCH  14  17
ENDBRANCH   1  12
BRANCH   4  19
ATOM     19  C   UNL     1       0.267  11.252  19.660  0.00  0.00    +0.000 A 
ATOM     20  C   UNL     1       1.265  12.220  19.621  0.00  0.00    +0.000 A 
ATOM     21  C   UNL     1       1.056  13.370  18.861  0.00  0.00    +0.000 A 
ATOM     22  C   UNL     1      -0.138  13.521  18.168  0.00  0.00    +0.000 A 
ATOM     23  C   UNL     1      -1.078  12.511  18.257  0.00  0.00    +0.000 A 
ATOM     24  N   UNL     1      -0.900  11.389  18.984  0.00  0.00    +0.000 NA
ENDBRANCH   4  19
TORSDOF 4
ENDMDL
