MODEL 1
REMARK VINA RESULT:      -8.1      0.000      0.000
REMARK  Name = 
REMARK  8 active torsions:
REMARK  status: ('A' for Active; 'I' for Inactive)
REMARK    1  A    between atoms: C_1  and  C_2
REMARK    2  A    between atoms: C_2  and  C_3
REMARK    3  A    between atoms: C_2  and  C_23
REMARK    4  A    between atoms: C_3  and  C_4
REMARK    5  A    between atoms: C_7  and  C_9
REMARK    6  A    between atoms: C_12  and  C_13
REMARK    7  A    between atoms: C_13  and  C_14
REMARK    8  A    between atoms: C_23  and  O_25
REMARK                            x       y       z     vdW  Elec       q    Type
REMARK                         _______ _______ _______ _____ _____    ______ ____
ROOT
ATOM      1  C   UNL     1       6.131   5.979  18.102  0.00  0.00    +0.000 A 
ATOM      2  C   UNL     1       5.926   6.954  17.205  0.00  0.00    +0.000 A 
ATOM      3  O   UNL     1       6.765   8.015  16.987  0.00  0.00    +0.000 OA
ATOM      4  C   UNL     1       7.933   8.093  17.728  0.00  0.00    +0.000 A 
ATOM      5  C   UNL     1       8.269   7.183  18.658  0.00  0.00    +0.000 A 
ATOM      6  C   UNL     1       7.351   6.055  18.922  0.00  0.00    +0.000 A 
ATOM      7  O   UNL     1       7.609   5.213  19.778  0.00  0.00    +0.000 OA
ENDROOT
BRANCH   1  11
ATOM      8  C   UNL     1       4.533   2.880  19.447  0.00  0.00    +0.000 C 
ATOM      9  O   UNL     1       4.899   2.088  20.314  0.00  0.00    +0.000 OA
ATOM     10  N   UNL     1       5.403   3.844  18.990  0.00  0.00    +0.000 N 
ATOM     11  C   UNL     1       5.097   4.925  18.193  0.00  0.00    +0.000 C 
ATOM     12  O   UNL     1       4.054   5.044  17.552  0.00  0.00    +0.000 OA
ATOM     13  H   UNL     1       6.315   3.819  19.447  0.00  0.00    +0.000 HD
BRANCH   8  14
ATOM     14  C   UNL     1       3.125   2.883  18.876  0.00  0.00    +0.000 C 
BRANCH  14  16
ATOM     15  C   UNL     1       0.651   2.429  19.227  0.00  0.00    +0.000 C 
ATOM     16  C   UNL     1       2.038   2.462  19.862  0.00  0.00    +0.000 C 
BRANCH  16  17
ATOM     17  C   UNL     1       2.021   3.460  21.009  0.00  0.00    +0.000 C 
ATOM     18  O   UNL     1       1.592   4.601  20.938  0.00  0.00    +0.000 OA
BRANCH  17  19
ATOM     19  O   UNL     1       2.508   2.952  22.163  0.00  0.00    +0.000 OA
ATOM     20  H   UNL     1       1.870   2.397  22.653  0.00  0.00    +0.000 HD
ENDBRANCH  17  19
ENDBRANCH  16  17
ENDBRANCH  14  16
ENDBRANCH   8  14
ENDBRANCH   1  11
BRANCH   4  21
ATOM     21  C   UNL     1       8.827   9.234  17.331  0.00  0.00    +0.000 C 
BRANCH  21  22
ATOM     22  C   UNL     1       8.914  10.338  18.354  0.00  0.00    +0.000 A 
ATOM     23  C   UNL     1       9.233  10.042  19.687  0.00  0.00    +0.000 A 
ATOM     24  C   UNL     1       9.406  11.067  20.619  0.00  0.00    +0.000 A 
ATOM     25  C   UNL     1       9.254  12.397  20.230  0.00  0.00    +0.000 A 
ATOM     26  C   UNL     1       8.898  12.702  18.917  0.00  0.00    +0.000 A 
ATOM     27  C   UNL     1       8.719  11.678  17.985  0.00  0.00    +0.000 A 
ENDBRANCH  21  22
ENDBRANCH   4  21
TORSDOF 7
ENDMDL
MODEL 2
REMARK VINA RESULT:      -8.1      4.328      6.640
REMARK  Name = 
REMARK  8 active torsions:
REMARK  status: ('A' for Active; 'I' for Inactive)
REMARK    1  A    between atoms: C_1  and  C_2
REMARK    2  A    between atoms: C_2  and  C_3
REMARK    3  A    between atoms: C_2  and  C_23
REMARK    4  A    between atoms: C_3  and  C_4
REMARK    5  A    between atoms: C_7  and  C_9
REMARK    6  A    between atoms: C_12  and  C_13
REMARK    7  A    between atoms: C_13  and  C_14
REMARK    8  A    between atoms: C_23  and  O_25
REMARK                            x       y       z     vdW  Elec       q    Type
REMARK                         _______ _______ _______ _____ _____    ______ ____
ROOT
ATOM      1  C   UNL     1       5.427   4.623  17.212  0.00  0.00    +0.000 A 
ATOM      2  C   UNL     1       4.715   4.777  16.087  0.00  0.00    +0.000 A 
ATOM      3  O   UNL     1       5.244   4.894  14.828  0.00  0.00    +0.000 OA
ATOM      4  C   UNL     1       6.621   4.831  14.683  0.00  0.00    +0.000 A 
ATOM      5  C   UNL     1       7.456   4.674  15.724  0.00  0.00    +0.000 A 
ATOM      6  C   UNL     1       6.894   4.582  17.088  0.00  0.00    +0.000 A 
ATOM      7  O   UNL     1       7.623   4.460  18.069  0.00  0.00    +0.000 OA
ENDROOT
BRANCH   1  11
ATOM      8  C   UNL     1       2.905   5.677  19.760  0.00  0.00    +0.000 C 
ATOM      9  O   UNL     1       2.154   6.649  19.805  0.00  0.00    +0.000 OA
ATOM     10  N   UNL     1       3.891   5.618  18.800  0.00  0.00    +0.000 N 
ATOM     11  C   UNL     1       4.667   4.527  18.477  0.00  0.00    +0.000 C 
ATOM     12  O   UNL     1       4.781   3.522  19.176  0.00  0.00    +0.000 OA
ATOM     13  H   UNL     1       3.899   6.424  18.175  0.00  0.00    +0.000 HD
BRANCH   8  14
ATOM     14  C   UNL     1       2.769   4.488  20.695  0.00  0.00    +0.000 C 
BRANCH  14  16
ATOM     15  C   UNL     1       1.277   2.661  21.639  0.00  0.00    +0.000 C 
ATOM     16  C   UNL     1       1.471   3.700  20.539  0.00  0.00    +0.000 C 
BRANCH  16  17
ATOM     17  C   UNL     1       1.507   2.982  19.199  0.00  0.00    +0.000 C 
ATOM     18  O   UNL     1       0.911   3.341  18.196  0.00  0.00    +0.000 OA
BRANCH  17  19
ATOM     19  O   UNL     1       2.307   1.892  19.201  0.00  0.00    +0.000 OA
ATOM     20  H   UNL     1       2.157   1.291  19.957  0.00  0.00    +0.000 HD
ENDBRANCH  17  19
ENDBRANCH  16  17
ENDBRANCH  14  16
ENDBRANCH   8  14
ENDBRANCH   1  11
BRANCH   4  21
ATOM     21  C   UNL     1       7.082   4.861  13.253  0.00  0.00    +0.000 C 
BRANCH  21  22
ATOM     22  C   UNL     1       6.678   3.652  12.448  0.00  0.00    +0.000 A 
ATOM     23  C   UNL     1       5.321   3.358  12.246  0.00  0.00    +0.000 A 
ATOM     24  C   UNL     1       4.940   2.295  11.425  0.00  0.00    +0.000 A 
ATOM     25  C   UNL     1       5.910   1.511  10.805  0.00  0.00    +0.000 A 
ATOM     26  C   UNL     1       7.262   1.768  11.028  0.00  0.00    +0.000 A 
ATOM     27  C   UNL     1       7.645   2.827  11.853  0.00  0.00    +0.000 A 
ENDBRANCH  21  22
ENDBRANCH   4  21
TORSDOF 7
ENDMDL
MODEL 3
REMARK VINA RESULT:      -8.0      4.345      6.633
REMARK  Name = 
REMARK  8 active torsions:
REMARK  status: ('A' for Active; 'I' for Inactive)
REMARK    1  A    between atoms: C_1  and  C_2
REMARK    2  A    between atoms: C_2  and  C_3
REMARK    3  A    between atoms: C_2  and  C_23
REMARK    4  A    between atoms: C_3  and  C_4
REMARK    5  A    between atoms: C_7  and  C_9
REMARK    6  A    between atoms: C_12  and  C_13
REMARK    7  A    between atoms: C_13  and  C_14
REMARK    8  A    between atoms: C_23  and  O_25
REMARK                            x       y       z     vdW  Elec       q    Type
REMARK                         _______ _______ _______ _____ _____    ______ ____
ROOT
ATOM      1  C   UNL     1       5.497   4.498  17.191  0.00  0.00    +0.000 A 
ATOM      2  C   UNL     1       4.770   4.641  16.075  0.00  0.00    +0.000 A 
ATOM      3  O   UNL     1       5.282   4.807  14.814  0.00  0.00    +0.000 OA
ATOM      4  C   UNL     1       6.659   4.810  14.659  0.00  0.00    +0.000 A 
ATOM      5  C   UNL     1       7.510   4.673  15.690  0.00  0.00    +0.000 A 
ATOM      6  C   UNL     1       6.963   4.528  17.056  0.00  0.00    +0.000 A 
ATOM      7  O   UNL     1       7.705   4.421  18.028  0.00  0.00    +0.000 OA
ENDROOT
BRANCH   1  11
ATOM      8  C   UNL     1       2.850   5.288  19.708  0.00  0.00    +0.000 C 
ATOM      9  O   UNL     1       1.976   6.153  19.722  0.00  0.00    +0.000 OA
ATOM     10  N   UNL     1       3.838   5.331  18.749  0.00  0.00    +0.000 N 
ATOM     11  C   UNL     1       4.753   4.343  18.460  0.00  0.00    +0.000 C 
ATOM     12  O   UNL     1       4.997   3.385  19.191  0.00  0.00    +0.000 OA
ATOM     13  H   UNL     1       3.740   6.110  18.098  0.00  0.00    +0.000 HD
BRANCH   8  14
ATOM     14  C   UNL     1       2.870   4.122  20.681  0.00  0.00    +0.000 C 
BRANCH  14  16
ATOM     15  C   UNL     1       1.506   2.415  21.974  0.00  0.00    +0.000 C 
ATOM     16  C   UNL     1       1.565   3.335  20.759  0.00  0.00    +0.000 C 
BRANCH  16  17
ATOM     17  C   UNL     1       1.445   2.485  19.503  0.00  0.00    +0.000 C 
ATOM     18  O   UNL     1       2.322   1.760  19.062  0.00  0.00    +0.000 OA
BRANCH  17  19
ATOM     19  O   UNL     1       0.232   2.578  18.914  0.00  0.00    +0.000 OA
ATOM     20  H   UNL     1      -0.508   2.690  19.542  0.00  0.00    +0.000 HD
ENDBRANCH  17  19
ENDBRANCH  16  17
ENDBRANCH  14  16
ENDBRANCH   8  14
ENDBRANCH   1  11
BRANCH   4  21
ATOM     21  C   UNL     1       7.106   4.889  13.226  0.00  0.00    +0.000 C 
BRANCH  21  22
ATOM     22  C   UNL     1       6.665   3.725  12.375  0.00  0.00    +0.000 A 
ATOM     23  C   UNL     1       7.614   2.855  11.821  0.00  0.00    +0.000 A 
ATOM     24  C   UNL     1       7.210   1.724  11.110  0.00  0.00    +0.000 A 
ATOM     25  C   UNL     1       5.853   1.456  10.938  0.00  0.00    +0.000 A 
ATOM     26  C   UNL     1       4.899   2.334  11.451  0.00  0.00    +0.000 A 
ATOM     27  C   UNL     1       5.302   3.469  12.157  0.00  0.00    +0.000 A 
ENDBRANCH  21  22
ENDBRANCH   4  21
TORSDOF 7
ENDMDL
MODEL 4
REMARK VINA RESULT:      -7.9      4.297      6.749
REMARK  Name = 
REMARK  8 active torsions:
REMARK  status: ('A' for Active; 'I' for Inactive)
REMARK    1  A    between atoms: C_1  and  C_2
REMARK    2  A    between atoms: C_2  and  C_3
REMARK    3  A    between atoms: C_2  and  C_23
REMARK    4  A    between atoms: C_3  and  C_4
REMARK    5  A    between atoms: C_7  and  C_9
REMARK    6  A    between atoms: C_12  and  C_13
REMARK    7  A    between atoms: C_13  and  C_14
REMARK    8  A    between atoms: C_23  and  O_25
REMARK                            x       y       z     vdW  Elec       q    Type
REMARK                         _______ _______ _______ _____ _____    ______ ____
ROOT
ATOM      1  C   UNL     1       4.952   4.777  17.141  0.00  0.00    +0.000 A 
ATOM      2  C   UNL     1       5.512   3.707  16.559  0.00  0.00    +0.000 A 
ATOM      3  O   UNL     1       6.125   3.705  15.333  0.00  0.00    +0.000 OA
ATOM      4  C   UNL     1       6.201   4.898  14.633  0.00  0.00    +0.000 A 
ATOM      5  C   UNL     1       5.687   6.050  15.098  0.00  0.00    +0.000 A 
ATOM      6  C   UNL     1       4.994   6.051  16.404  0.00  0.00    +0.000 A 
ATOM      7  O   UNL     1       4.492   7.076  16.855  0.00  0.00    +0.000 OA
ENDROOT
BRANCH   1  11
ATOM      8  C   UNL     1       2.588   5.495  19.944  0.00  0.00    +0.000 C 
ATOM      9  O   UNL     1       1.751   6.384  20.093  0.00  0.00    +0.000 OA
ATOM     10  N   UNL     1       3.481   5.564  18.898  0.00  0.00    +0.000 N 
ATOM     11  C   UNL     1       4.328   4.569  18.465  0.00  0.00    +0.000 C 
ATOM     12  O   UNL     1       4.606   3.561  19.113  0.00  0.00    +0.000 OA
ATOM     13  H   UNL     1       3.349   6.384  18.305  0.00  0.00    +0.000 HD
BRANCH   8  14
ATOM     14  C   UNL     1       2.660   4.273  20.843  0.00  0.00    +0.000 C 
BRANCH  14  16
ATOM     15  C   UNL     1       1.379   2.419  22.015  0.00  0.00    +0.000 C 
ATOM     16  C   UNL     1       1.390   3.426  20.870  0.00  0.00    +0.000 C 
BRANCH  16  17
ATOM     17  C   UNL     1       1.296   2.665  19.556  0.00  0.00    +0.000 C 
ATOM     18  O   UNL     1       0.410   2.803  18.729  0.00  0.00    +0.000 OA
BRANCH  17  19
ATOM     19  O   UNL     1       2.330   1.816  19.360  0.00  0.00    +0.000 OA
ATOM     20  H   UNL     1       2.113   0.879  19.534  0.00  0.00    +0.000 HD
ENDBRANCH  17  19
ENDBRANCH  16  17
ENDBRANCH  14  16
ENDBRANCH   8  14
ENDBRANCH   1  11
BRANCH   4  21
ATOM     21  C   UNL     1       6.988   4.803  13.357  0.00  0.00    +0.000 C 
BRANCH  21  22
ATOM     22  C   UNL     1       6.548   3.689  12.440  0.00  0.00    +0.000 A 
ATOM     23  C   UNL     1       7.495   2.819  11.881  0.00  0.00    +0.000 A 
ATOM     24  C   UNL     1       7.088   1.730  11.107  0.00  0.00    +0.000 A 
ATOM     25  C   UNL     1       5.732   1.505  10.878  0.00  0.00    +0.000 A 
ATOM     26  C   UNL     1       4.783   2.385  11.396  0.00  0.00    +0.000 A 
ATOM     27  C   UNL     1       5.188   3.478  12.165  0.00  0.00    +0.000 A 
ENDBRANCH  21  22
ENDBRANCH   4  21
TORSDOF 7
ENDMDL
MODEL 5
REMARK VINA RESULT:      -7.9      1.013      1.401
REMARK  Name = 
REMARK  8 active torsions:
REMARK  status: ('A' for Active; 'I' for Inactive)
REMARK    1  A    between atoms: C_1  and  C_2
REMARK    2  A    between atoms: C_2  and  C_3
REMARK    3  A    between atoms: C_2  and  C_23
REMARK    4  A    between atoms: C_3  and  C_4
REMARK    5  A    between atoms: C_7  and  C_9
REMARK    6  A    between atoms: C_12  and  C_13
REMARK    7  A    between atoms: C_13  and  C_14
REMARK    8  A    between atoms: C_23  and  O_25
REMARK                            x       y       z     vdW  Elec       q    Type
REMARK                         _______ _______ _______ _____ _____    ______ ____
ROOT
ATOM      1  C   UNL     1       6.199   5.726  18.137  0.00  0.00    +0.000 A 
ATOM      2  C   UNL     1       5.972   6.601  17.148  0.00  0.00    +0.000 A 
ATOM      3  O   UNL     1       6.728   7.715  16.891  0.00  0.00    +0.000 OA
ATOM      4  C   UNL     1       7.831   7.962  17.693  0.00  0.00    +0.000 A 
ATOM      5  C   UNL     1       8.179   7.166  18.718  0.00  0.00    +0.000 A 
ATOM      6  C   UNL     1       7.348   5.982  19.022  0.00  0.00    +0.000 A 
ATOM      7  O   UNL     1       7.618   5.241  19.962  0.00  0.00    +0.000 OA
ENDROOT
BRANCH   1  11
ATOM      8  C   UNL     1       4.711   2.683  19.716  0.00  0.00    +0.000 C 
ATOM      9  O   UNL     1       5.026   2.055  20.726  0.00  0.00    +0.000 OA
ATOM     10  N   UNL     1       5.548   3.664  19.232  0.00  0.00    +0.000 N 
ATOM     11  C   UNL     1       5.257   4.591  18.256  0.00  0.00    +0.000 C 
ATOM     12  O   UNL     1       4.303   4.514  17.484  0.00  0.00    +0.000 OA
ATOM     13  H   UNL     1       6.390   3.794  19.793  0.00  0.00    +0.000 HD
BRANCH   8  14
ATOM     14  C   UNL     1       3.397   2.462  18.987  0.00  0.00    +0.000 C 
BRANCH  14  16
ATOM     15  C   UNL     1       1.741   2.519  20.911  0.00  0.00    +0.000 C 
ATOM     16  C   UNL     1       2.197   3.170  19.609  0.00  0.00    +0.000 C 
BRANCH  16  17
ATOM     17  C   UNL     1       1.046   3.122  18.616  0.00  0.00    +0.000 C 
ATOM     18  O   UNL     1       0.049   2.428  18.734  0.00  0.00    +0.000 OA
BRANCH  17  19
ATOM     19  O   UNL     1       1.210   3.964  17.571  0.00  0.00    +0.000 OA
ATOM     20  H   UNL     1       0.401   4.104  17.042  0.00  0.00    +0.000 HD
ENDBRANCH  17  19
ENDBRANCH  16  17
ENDBRANCH  14  16
ENDBRANCH   8  14
ENDBRANCH   1  11
BRANCH   4  21
ATOM     21  C   UNL     1       8.646   9.145  17.254  0.00  0.00    +0.000 C 
BRANCH  21  22
ATOM     22  C   UNL     1       8.815  10.208  18.311  0.00  0.00    +0.000 A 
ATOM     23  C   UNL     1       9.096   9.847  19.636  0.00  0.00    +0.000 A 
ATOM     24  C   UNL     1       9.344  10.826  20.600  0.00  0.00    +0.000 A 
ATOM     25  C   UNL     1       9.307  12.174  20.250  0.00  0.00    +0.000 A 
ATOM     26  C   UNL     1       8.990  12.547  18.945  0.00  0.00    +0.000 A 
ATOM     27  C   UNL     1       8.736  11.569  17.981  0.00  0.00    +0.000 A 
ENDBRANCH  21  22
ENDBRANCH   4  21
TORSDOF 7
ENDMDL
MODEL 6
REMARK VINA RESULT:      -7.8      2.564      8.757
REMARK  Name = 
REMARK  8 active torsions:
REMARK  status: ('A' for Active; 'I' for Inactive)
REMARK    1  A    between atoms: C_1  and  C_2
REMARK    2  A    between atoms: C_2  and  C_3
REMARK    3  A    between atoms: C_2  and  C_23
REMARK    4  A    between atoms: C_3  and  C_4
REMARK    5  A    between atoms: C_7  and  C_9
REMARK    6  A    between atoms: C_12  and  C_13
REMARK    7  A    between atoms: C_13  and  C_14
REMARK    8  A    between atoms: C_23  and  O_25
REMARK                            x       y       z     vdW  Elec       q    Type
REMARK                         _______ _______ _______ _____ _____    ______ ____
ROOT
ATOM      1  C   UNL     1       6.854   6.240  17.979  0.00  0.00    +0.000 A 
ATOM      2  C   UNL     1       6.091   5.827  19.001  0.00  0.00    +0.000 A 
ATOM      3  O   UNL     1       5.176   4.809  18.943  0.00  0.00    +0.000 OA
ATOM      4  C   UNL     1       5.027   4.125  17.748  0.00  0.00    +0.000 A 
ATOM      5  C   UNL     1       5.729   4.428  16.642  0.00  0.00    +0.000 A 
ATOM      6  C   UNL     1       6.692   5.548  16.689  0.00  0.00    +0.000 A 
ATOM      7  O   UNL     1       7.339   5.871  15.696  0.00  0.00    +0.000 OA
ENDROOT
BRANCH   1  11
ATOM      8  C   UNL     1       8.078   9.763  17.752  0.00  0.00    +0.000 C 
ATOM      9  O   UNL     1       7.636  10.739  17.149  0.00  0.00    +0.000 OA
ATOM     10  N   UNL     1       7.549   8.514  17.514  0.00  0.00    +0.000 N 
ATOM     11  C   UNL     1       7.774   7.367  18.242  0.00  0.00    +0.000 C 
ATOM     12  O   UNL     1       8.688   7.225  19.052  0.00  0.00    +0.000 OA
ATOM     13  H   UNL     1       6.791   8.517  16.832  0.00  0.00    +0.000 HD
BRANCH   8  14
ATOM     14  C   UNL     1       9.168   9.870  18.806  0.00  0.00    +0.000 C 
BRANCH  14  16
ATOM     15  C   UNL     1      10.821  11.601  17.957  0.00  0.00    +0.000 C 
ATOM     16  C   UNL     1       9.744  11.272  18.985  0.00  0.00    +0.000 C 
BRANCH  16  17
ATOM     17  C   UNL     1      10.358  11.362  20.374  0.00  0.00    +0.000 C 
ATOM     18  O   UNL     1      11.507  11.699  20.610  0.00  0.00    +0.000 OA
BRANCH  17  19
ATOM     19  O   UNL     1       9.486  11.058  21.361  0.00  0.00    +0.000 OA
ATOM     20  H   UNL     1       8.572  11.361  21.191  0.00  0.00    +0.000 HD
ENDBRANCH  17  19
ENDBRANCH  16  17
ENDBRANCH  14  16
ENDBRANCH   8  14
ENDBRANCH   1  11
BRANCH   4  21
ATOM     21  C   UNL     1       4.079   2.962  17.829  0.00  0.00    +0.000 C 
BRANCH  21  22
ATOM     22  C   UNL     1       3.109   3.034  18.982  0.00  0.00    +0.000 A 
ATOM     23  C   UNL     1       1.818   3.545  18.787  0.00  0.00    +0.000 A 
ATOM     24  C   UNL     1       0.885   3.529  19.826  0.00  0.00    +0.000 A 
ATOM     25  C   UNL     1       1.235   3.009  21.070  0.00  0.00    +0.000 A 
ATOM     26  C   UNL     1       2.527   2.534  21.287  0.00  0.00    +0.000 A 
ATOM     27  C   UNL     1       3.464   2.554  20.252  0.00  0.00    +0.000 A 
ENDBRANCH  21  22
ENDBRANCH   4  21
TORSDOF 7
ENDMDL
MODEL 7
REMARK VINA RESULT:      -7.8      5.425      7.115
REMARK  Name = 
REMARK  8 active torsions:
REMARK  status: ('A' for Active; 'I' for Inactive)
REMARK    1  A    between atoms: C_1  and  C_2
REMARK    2  A    between atoms: C_2  and  C_3
REMARK    3  A    between atoms: C_2  and  C_23
REMARK    4  A    between atoms: C_3  and  C_4
REMARK    5  A    between atoms: C_7  and  C_9
REMARK    6  A    between atoms: C_12  and  C_13
REMARK    7  A    between atoms: C_13  and  C_14
REMARK    8  A    between atoms: C_23  and  O_25
REMARK                            x       y       z     vdW  Elec       q    Type
REMARK                         _______ _______ _______ _____ _____    ______ ____
ROOT
ATOM      1  C   UNL     1       2.250   7.302  19.350  0.00  0.00    +0.000 A 
ATOM      2  C   UNL     1       1.485   7.813  20.325  0.00  0.00    +0.000 A 
ATOM      3  O   UNL     1       0.895   9.049  20.300  0.00  0.00    +0.000 OA
ATOM      4  C   UNL     1       1.074   9.841  19.178  0.00  0.00    +0.000 A 
ATOM      5  C   UNL     1       1.811   9.455  18.123  0.00  0.00    +0.000 A 
ATOM      6  C   UNL     1       2.479   8.137  18.159  0.00  0.00    +0.000 A 
ATOM      7  O   UNL     1       3.180   7.754  17.226  0.00  0.00    +0.000 OA
ENDROOT
BRANCH   1  11
ATOM      8  C   UNL     1       2.523   3.959  20.998  0.00  0.00    +0.000 C 
ATOM      9  O   UNL     1       1.908   3.467  21.943  0.00  0.00    +0.000 OA
ATOM     10  N   UNL     1       2.370   5.296  20.705  0.00  0.00    +0.000 N 
ATOM     11  C   UNL     1       2.808   5.950  19.575  0.00  0.00    +0.000 C 
ATOM     12  O   UNL     1       3.632   5.497  18.783  0.00  0.00    +0.000 OA
ATOM     13  H   UNL     1       1.716   5.776  21.324  0.00  0.00    +0.000 HD
BRANCH   8  14
ATOM     14  C   UNL     1       3.424   3.143  20.087  0.00  0.00    +0.000 C 
BRANCH  14  16
ATOM     15  C   UNL     1       3.629   1.315  18.335  0.00  0.00    +0.000 C 
ATOM     16  C   UNL     1       2.720   2.011  19.343  0.00  0.00    +0.000 C 
BRANCH  16  17
ATOM     17  C   UNL     1       1.531   2.597  18.597  0.00  0.00    +0.000 C 
ATOM     18  O   UNL     1       0.363   2.464  18.926  0.00  0.00    +0.000 OA
BRANCH  17  19
ATOM     19  O   UNL     1       1.890   3.329  17.519  0.00  0.00    +0.000 OA
ATOM     20  H   UNL     1       1.989   2.807  16.699  0.00  0.00    +0.000 HD
ENDBRANCH  17  19
ENDBRANCH  16  17
ENDBRANCH  14  16
ENDBRANCH   8  14
ENDBRANCH   1  11
BRANCH   4  21
ATOM     21  C   UNL     1       0.294  11.125  19.212  0.00  0.00    +0.000 C 
BRANCH  21  22
ATOM     22  C   UNL     1      -1.125  11.001  18.717  0.00  0.00    +0.000 A 
ATOM     23  C   UNL     1      -2.129  11.832  19.237  0.00  0.00    +0.000 A 
ATOM     24  C   UNL     1      -3.425  11.786  18.719  0.00  0.00    +0.000 A 
ATOM     25  C   UNL     1      -3.732  10.906  17.683  0.00  0.00    +0.000 A 
ATOM     26  C   UNL     1      -2.752  10.048  17.185  0.00  0.00    +0.000 A 
ATOM     27  C   UNL     1      -1.458  10.087  17.706  0.00  0.00    +0.000 A 
ENDBRANCH  21  22
ENDBRANCH   4  21
TORSDOF 7
ENDMDL
MODEL 8
REMARK VINA RESULT:      -7.7      5.517      7.662
REMARK  Name = 
REMARK  8 active torsions:
REMARK  status: ('A' for Active; 'I' for Inactive)
REMARK    1  A    between atoms: C_1  and  C_2
REMARK    2  A    between atoms: C_2  and  C_3
REMARK    3  A    between atoms: C_2  and  C_23
REMARK    4  A    between atoms: C_3  and  C_4
REMARK    5  A    between atoms: C_7  and  C_9
REMARK    6  A    between atoms: C_12  and  C_13
REMARK    7  A    between atoms: C_13  and  C_14
REMARK    8  A    between atoms: C_23  and  O_25
REMARK                            x       y       z     vdW  Elec       q    Type
REMARK                         _______ _______ _______ _____ _____    ______ ____
ROOT
ATOM      1  C   UNL     1       2.543   7.488  18.603  0.00  0.00    +0.000 A 
ATOM      2  C   UNL     1       2.436   8.423  17.649  0.00  0.00    +0.000 A 
ATOM      3  O   UNL     1       1.667   9.554  17.734  0.00  0.00    +0.000 OA
ATOM      4  C   UNL     1       0.951   9.778  18.899  0.00  0.00    +0.000 A 
ATOM      5  C   UNL     1       0.969   8.927  19.939  0.00  0.00    +0.000 A 
ATOM      6  C   UNL     1       1.769   7.688  19.840  0.00  0.00    +0.000 A 
ATOM      7  O   UNL     1       1.795   6.874  20.759  0.00  0.00    +0.000 OA
ENDROOT
BRANCH   1  11
ATOM      8  C   UNL     1       3.375   4.090  17.290  0.00  0.00    +0.000 C 
ATOM      9  O   UNL     1       2.674   3.231  16.758  0.00  0.00    +0.000 OA
ATOM     10  N   UNL     1       2.785   5.191  17.870  0.00  0.00    +0.000 N 
ATOM     11  C   UNL     1       3.418   6.331  18.313  0.00  0.00    +0.000 C 
ATOM     12  O   UNL     1       4.629   6.427  18.502  0.00  0.00    +0.000 OA
ATOM     13  H   UNL     1       1.769   5.198  17.789  0.00  0.00    +0.000 HD
BRANCH   8  14
ATOM     14  C   UNL     1       4.893   4.025  17.299  0.00  0.00    +0.000 C 
BRANCH  14  16
ATOM     15  C   UNL     1       5.762   3.578  14.955  0.00  0.00    +0.000 C 
ATOM     16  C   UNL     1       5.563   4.611  16.059  0.00  0.00    +0.000 C 
BRANCH  16  17
ATOM     17  C   UNL     1       6.925   5.154  16.464  0.00  0.00    +0.000 C 
ATOM     18  O   UNL     1       7.906   4.470  16.706  0.00  0.00    +0.000 OA
BRANCH  17  19
ATOM     19  O   UNL     1       6.968   6.504  16.504  0.00  0.00    +0.000 OA
ATOM     20  H   UNL     1       7.832   6.882  16.249  0.00  0.00    +0.000 HD
ENDBRANCH  17  19
ENDBRANCH  16  17
ENDBRANCH  14  16
ENDBRANCH   8  14
ENDBRANCH   1  11
BRANCH   4  21
ATOM     21  C   UNL     1       0.233  11.097  18.925  0.00  0.00    +0.000 C 
BRANCH  21  22
ATOM     22  C   UNL     1      -1.204  11.029  18.472  0.00  0.00    +0.000 A 
ATOM     23  C   UNL     1      -1.600  10.079  17.519  0.00  0.00    +0.000 A 
ATOM     24  C   UNL     1      -2.944   9.948  17.164  0.00  0.00    +0.000 A 
ATOM     25  C   UNL     1      -3.903  10.770  17.752  0.00  0.00    +0.000 A 
ATOM     26  C   UNL     1      -3.517  11.744  18.671  0.00  0.00    +0.000 A 
ATOM     27  C   UNL     1      -2.173  11.881  19.023  0.00  0.00    +0.000 A 
ENDBRANCH  21  22
ENDBRANCH   4  21
TORSDOF 7
ENDMDL
MODEL 9
REMARK VINA RESULT:      -7.7      6.036      7.397
REMARK  Name = 
REMARK  8 active torsions:
REMARK  status: ('A' for Active; 'I' for Inactive)
REMARK    1  A    between atoms: C_1  and  C_2
REMARK    2  A    between atoms: C_2  and  C_3
REMARK    3  A    between atoms: C_2  and  C_23
REMARK    4  A    between atoms: C_3  and  C_4
REMARK    5  A    between atoms: C_7  and  C_9
REMARK    6  A    between atoms: C_12  and  C_13
REMARK    7  A    between atoms: C_13  and  C_14
REMARK    8  A    between atoms: C_23  and  O_25
REMARK                            x       y       z     vdW  Elec       q    Type
REMARK                         _______ _______ _______ _____ _____    ______ ____
ROOT
ATOM      1  C   UNL     1       1.835   7.899  19.468  0.00  0.00    +0.000 A 
ATOM      2  C   UNL     1       1.723   8.494  18.272  0.00  0.00    +0.000 A 
ATOM      3  O   UNL     1       1.151   9.720  18.051  0.00  0.00    +0.000 OA
ATOM      4  C   UNL     1       0.664  10.425  19.139  0.00  0.00    +0.000 A 
ATOM      5  C   UNL     1       0.715   9.952  20.396  0.00  0.00    +0.000 A 
ATOM      6  C   UNL     1       1.299   8.616  20.637  0.00  0.00    +0.000 A 
ATOM      7  O   UNL     1       1.346   8.138  21.767  0.00  0.00    +0.000 OA
ENDROOT
BRANCH   1  11
ATOM      8  C   UNL     1       2.491   4.460  20.775  0.00  0.00    +0.000 C 
ATOM      9  O   UNL     1       2.047   3.866  21.757  0.00  0.00    +0.000 OA
ATOM     10  N   UNL     1       2.241   5.805  20.619  0.00  0.00    +0.000 N 
ATOM     11  C   UNL     1       2.475   6.565  19.495  0.00  0.00    +0.000 C 
ATOM     12  O   UNL     1       3.187   6.217  18.555  0.00  0.00    +0.000 OA
ATOM     13  H   UNL     1       1.670   6.202  21.366  0.00  0.00    +0.000 HD
BRANCH   8  14
ATOM     14  C   UNL     1       3.275   3.763  19.677  0.00  0.00    +0.000 C 
BRANCH  14  16
ATOM     15  C   UNL     1       3.535   1.736  18.169  0.00  0.00    +0.000 C 
ATOM     16  C   UNL     1       2.648   2.466  19.171  0.00  0.00    +0.000 C 
BRANCH  16  17
ATOM     17  C   UNL     1       1.330   2.806  18.492  0.00  0.00    +0.000 C 
ATOM     18  O   UNL     1       0.254   2.293  18.754  0.00  0.00    +0.000 OA
BRANCH  17  19
ATOM     19  O   UNL     1       1.448   3.780  17.562  0.00  0.00    +0.000 OA
ATOM     20  H   UNL     1       2.110   4.464  17.785  0.00  0.00    +0.000 HD
ENDBRANCH  17  19
ENDBRANCH  16  17
ENDBRANCH  14  16
ENDBRANCH   8  14
ENDBRANCH   1  11
BRANCH   4  21
ATOM     21  C   UNL     1       0.161  11.798  18.795  0.00  0.00    +0.000 C 
BRANCH  21  22
ATOM     22  C   UNL     1      -1.342  11.925  18.792  0.00  0.00    +0.000 A 
ATOM     23  C   UNL     1      -2.089  11.444  17.707  0.00  0.00    +0.000 A 
ATOM     24  C   UNL     1      -3.484  11.473  17.738  0.00  0.00    +0.000 A 
ATOM     25  C   UNL     1      -4.146  11.990  18.850  0.00  0.00    +0.000 A 
ATOM     26  C   UNL     1      -3.415  12.507  19.918  0.00  0.00    +0.000 A 
ATOM     27  C   UNL     1      -2.019  12.484  19.886  0.00  0.00    +0.000 A 
ENDBRANCH  21  22
ENDBRANCH   4  21
TORSDOF 7
ENDMDL
