MODEL 1
REMARK VINA RESULT:      -7.4      0.000      0.000
REMARK  Name = 
REMARK  7 active torsions:
REMARK  status: ('A' for Active; 'I' for Inactive)
REMARK    1  A    between atoms: C_1  and  C_2
REMARK    2  A    between atoms: N_4  and  C_5
REMARK    3  A    between atoms: C_8  and  C_9
REMARK    4  A    between atoms: N_11  and  C_12
REMARK    5  A    between atoms: C_12  and  C_13
REMARK    6  A    between atoms: N_15  and  C_16
REMARK    7  A    between atoms: C_16  and  C_17
REMARK                            x       y       z     vdW  Elec       q    Type
REMARK                         _______ _______ _______ _____ _____    ______ ____
ROOT
ATOM      1  C   UNL     1       5.078   4.591  18.857  0.00  0.00    +0.000 C 
ATOM      2  O   UNL     1       5.676   5.215  19.732  0.00  0.00    +0.000 OA
ATOM      3  N   UNL     1       5.707   4.176  17.707  0.00  0.00    +0.000 N 
ATOM      4  H   UNL     1       5.229   3.538  17.084  0.00  0.00    +0.000 HD
ENDROOT
BRANCH   1  12
ATOM      5  C   UNL     1       2.601   6.568  19.560  0.00  0.00    +0.000 C 
ATOM      6  C   UNL     1       2.572   5.108  19.279  0.00  0.00    +0.000 A 
ATOM      7  N   UNL     1       1.396   4.462  19.294  0.00  0.00    +0.000 NA
ATOM      8  N   UNL     1       1.716   3.191  18.998  0.00  0.00    +0.000 N 
ATOM      9  C   UNL     1       0.669   2.198  18.928  0.00  0.00    +0.000 C 
ATOM     10  C   UNL     1       3.052   3.019  18.796  0.00  0.00    +0.000 A 
ATOM     11 CL   UNL     1       3.653   1.468  18.408  0.00  0.00    +0.000 Cl
ATOM     12  C   UNL     1       3.668   4.241  18.969  0.00  0.00    +0.000 A 
ENDBRANCH   1  12
BRANCH   3  13
ATOM     13  C   UNL     1       7.104   4.447  17.448  0.00  0.00    +0.000 C 
BRANCH  13  14
ATOM     14  C   UNL     1       7.277   5.124  16.089  0.00  0.00    +0.000 C 
ATOM     15  O   UNL     1       7.536   6.320  15.986  0.00  0.00    +0.000 OA
ATOM     16  N   UNL     1       7.035   4.295  15.018  0.00  0.00    +0.000 N 
ATOM     17  H   UNL     1       6.629   3.381  15.197  0.00  0.00    +0.000 HD
BRANCH  16  18
ATOM     18  C   UNL     1       7.139   4.741  13.648  0.00  0.00    +0.000 C 
BRANCH  18  19
ATOM     19  C   UNL     1       6.402   3.808  12.722  0.00  0.00    +0.000 A 
ATOM     20  C   UNL     1       7.087   2.805  12.020  0.00  0.00    +0.000 A 
ATOM     21  C   UNL     1       6.399   1.945  11.161  0.00  0.00    +0.000 A 
ATOM     22  C   UNL     1       5.023   2.083  10.988  0.00  0.00    +0.000 A 
ATOM     23  C   UNL     1       4.333   3.083  11.670  0.00  0.00    +0.000 A 
ATOM     24  C   UNL     1       5.019   3.944  12.529  0.00  0.00    +0.000 A 
ENDBRANCH  18  19
ENDBRANCH  16  18
ENDBRANCH  13  14
ENDBRANCH   3  13
TORSDOF 5
ENDMDL
MODEL 2
REMARK VINA RESULT:      -7.3      4.708      8.241
REMARK  Name = 
REMARK  7 active torsions:
REMARK  status: ('A' for Active; 'I' for Inactive)
REMARK    1  A    between atoms: C_1  and  C_2
REMARK    2  A    between atoms: N_4  and  C_5
REMARK    3  A    between atoms: C_8  and  C_9
REMARK    4  A    between atoms: N_11  and  C_12
REMARK    5  A    between atoms: C_12  and  C_13
REMARK    6  A    between atoms: N_15  and  C_16
REMARK    7  A    between atoms: C_16  and  C_17
REMARK                            x       y       z     vdW  Elec       q    Type
REMARK                         _______ _______ _______ _____ _____    ______ ____
ROOT
ATOM      1  C   UNL     1       3.958   6.631  17.725  0.00  0.00    +0.000 C 
ATOM      2  O   UNL     1       4.771   7.171  16.976  0.00  0.00    +0.000 OA
ATOM      3  N   UNL     1       2.805   7.267  18.117  0.00  0.00    +0.000 N 
ATOM      4  H   UNL     1       2.090   6.740  18.605  0.00  0.00    +0.000 HD
ENDROOT
BRANCH   1  12
ATOM      5  C   UNL     1       6.557   5.466  19.282  0.00  0.00    +0.000 C 
ATOM      6  C   UNL     1       5.292   4.765  18.935  0.00  0.00    +0.000 A 
ATOM      7  N   UNL     1       5.137   3.480  19.290  0.00  0.00    +0.000 NA
ATOM      8  N   UNL     1       3.909   3.163  18.843  0.00  0.00    +0.000 N 
ATOM      9  C   UNL     1       3.406   1.826  19.059  0.00  0.00    +0.000 C 
ATOM     10  C   UNL     1       3.291   4.205  18.222  0.00  0.00    +0.000 A 
ATOM     11 CL   UNL     1       1.720   3.994  17.586  0.00  0.00    +0.000 Cl
ATOM     12  C   UNL     1       4.149   5.284  18.247  0.00  0.00    +0.000 A 
ENDBRANCH   1  12
BRANCH   3  13
ATOM     13  C   UNL     1       2.472   8.606  17.684  0.00  0.00    +0.000 C 
BRANCH  13  14
ATOM     14  C   UNL     1       1.479   9.251  18.650  0.00  0.00    +0.000 C 
ATOM     15  O   UNL     1       1.328   8.843  19.799  0.00  0.00    +0.000 OA
ATOM     16  N   UNL     1       0.730  10.259  18.089  0.00  0.00    +0.000 N 
ATOM     17  H   UNL     1       0.777  10.393  17.083  0.00  0.00    +0.000 HD
BRANCH  16  18
ATOM     18  C   UNL     1      -0.268  10.995  18.829  0.00  0.00    +0.000 C 
BRANCH  18  19
ATOM     19  C   UNL     1      -1.617  10.889  18.166  0.00  0.00    +0.000 A 
ATOM     20  C   UNL     1      -2.690  11.687  18.591  0.00  0.00    +0.000 A 
ATOM     21  C   UNL     1      -3.938  11.583  17.974  0.00  0.00    +0.000 A 
ATOM     22  C   UNL     1      -4.130  10.678  16.932  0.00  0.00    +0.000 A 
ATOM     23  C   UNL     1      -3.076   9.872  16.508  0.00  0.00    +0.000 A 
ATOM     24  C   UNL     1      -1.827   9.974  17.124  0.00  0.00    +0.000 A 
ENDBRANCH  18  19
ENDBRANCH  16  18
ENDBRANCH  13  14
ENDBRANCH   3  13
TORSDOF 5
ENDMDL
MODEL 3
REMARK VINA RESULT:      -7.3      4.235      6.569
REMARK  Name = 
REMARK  7 active torsions:
REMARK  status: ('A' for Active; 'I' for Inactive)
REMARK    1  A    between atoms: C_1  and  C_2
REMARK    2  A    between atoms: N_4  and  C_5
REMARK    3  A    between atoms: C_8  and  C_9
REMARK    4  A    between atoms: N_11  and  C_12
REMARK    5  A    between atoms: C_12  and  C_13
REMARK    6  A    between atoms: N_15  and  C_16
REMARK    7  A    between atoms: C_16  and  C_17
REMARK                            x       y       z     vdW  Elec       q    Type
REMARK                         _______ _______ _______ _____ _____    ______ ____
ROOT
ATOM      1  C   UNL     1       5.404   4.627  18.401  0.00  0.00    +0.000 C 
ATOM      2  O   UNL     1       5.593   4.196  17.265  0.00  0.00    +0.000 OA
ATOM      3  N   UNL     1       6.385   5.302  19.089  0.00  0.00    +0.000 N 
ATOM      4  H   UNL     1       6.148   5.773  19.954  0.00  0.00    +0.000 HD
ENDROOT
BRANCH   1  12
ATOM      5  C   UNL     1       2.844   6.622  18.346  0.00  0.00    +0.000 C 
ATOM      6  C   UNL     1       3.006   5.339  19.081  0.00  0.00    +0.000 A 
ATOM      7  N   UNL     1       1.992   4.885  19.834  0.00  0.00    +0.000 NA
ATOM      8  N   UNL     1       2.453   3.727  20.339  0.00  0.00    +0.000 N 
ATOM      9  C   UNL     1       1.603   2.954  21.215  0.00  0.00    +0.000 C 
ATOM     10  C   UNL     1       3.719   3.441  19.928  0.00  0.00    +0.000 A 
ATOM     11 CL   UNL     1       4.476   2.008  20.465  0.00  0.00    +0.000 Cl
ATOM     12  C   UNL     1       4.138   4.463  19.101  0.00  0.00    +0.000 A 
ENDBRANCH   1  12
BRANCH   3  13
ATOM     13  C   UNL     1       7.696   5.546  18.531  0.00  0.00    +0.000 C 
BRANCH  13  14
ATOM     14  C   UNL     1       7.669   6.763  17.607  0.00  0.00    +0.000 C 
ATOM     15  O   UNL     1       7.468   6.660  16.400  0.00  0.00    +0.000 OA
ATOM     16  N   UNL     1       7.968   7.948  18.238  0.00  0.00    +0.000 N 
ATOM     17  H   UNL     1       8.320   7.913  19.190  0.00  0.00    +0.000 HD
BRANCH  16  18
ATOM     18  C   UNL     1       8.002   9.214  17.543  0.00  0.00    +0.000 C 
BRANCH  18  19
ATOM     19  C   UNL     1       8.696  10.264  18.372  0.00  0.00    +0.000 A 
ATOM     20  C   UNL     1       8.895  11.558  17.869  0.00  0.00    +0.000 A 
ATOM     21  C   UNL     1       9.542  12.526  18.639  0.00  0.00    +0.000 A 
ATOM     22  C   UNL     1      10.003  12.211  19.916  0.00  0.00    +0.000 A 
ATOM     23  C   UNL     1       9.822  10.926  20.423  0.00  0.00    +0.000 A 
ATOM     24  C   UNL     1       9.176   9.956  19.653  0.00  0.00    +0.000 A 
ENDBRANCH  18  19
ENDBRANCH  16  18
ENDBRANCH  13  14
ENDBRANCH   3  13
TORSDOF 5
ENDMDL
MODEL 4
REMARK VINA RESULT:      -7.3      2.660      7.293
REMARK  Name = 
REMARK  7 active torsions:
REMARK  status: ('A' for Active; 'I' for Inactive)
REMARK    1  A    between atoms: C_1  and  C_2
REMARK    2  A    between atoms: N_4  and  C_5
REMARK    3  A    between atoms: C_8  and  C_9
REMARK    4  A    between atoms: N_11  and  C_12
REMARK    5  A    between atoms: C_12  and  C_13
REMARK    6  A    between atoms: N_15  and  C_16
REMARK    7  A    between atoms: C_16  and  C_17
REMARK                            x       y       z     vdW  Elec       q    Type
REMARK                         _______ _______ _______ _____ _____    ______ ____
ROOT
ATOM      1  C   UNL     1       4.349   3.578  17.105  0.00  0.00    +0.000 C 
ATOM      2  O   UNL     1       3.323   3.584  16.428  0.00  0.00    +0.000 OA
ATOM      3  N   UNL     1       4.535   2.678  18.128  0.00  0.00    +0.000 N 
ATOM      4  H   UNL     1       5.447   2.601  18.561  0.00  0.00    +0.000 HD
ENDROOT
BRANCH   1  12
ATOM      5  C   UNL     1       5.964   4.093  14.337  0.00  0.00    +0.000 C 
ATOM      6  C   UNL     1       6.159   4.744  15.660  0.00  0.00    +0.000 A 
ATOM      7  N   UNL     1       7.107   5.684  15.793  0.00  0.00    +0.000 NA
ATOM      8  N   UNL     1       7.014   6.064  17.079  0.00  0.00    +0.000 N 
ATOM      9  C   UNL     1       7.907   7.084  17.579  0.00  0.00    +0.000 C 
ATOM     10  C   UNL     1       6.039   5.395  17.755  0.00  0.00    +0.000 A 
ATOM     11 CL   UNL     1       5.768   5.742  19.405  0.00  0.00    +0.000 Cl
ATOM     12  C   UNL     1       5.443   4.513  16.878  0.00  0.00    +0.000 A 
ENDBRANCH   1  12
BRANCH   3  13
ATOM     13  C   UNL     1       3.541   1.687  18.478  0.00  0.00    +0.000 C 
BRANCH  13  14
ATOM     14  C   UNL     1       2.362   2.339  19.198  0.00  0.00    +0.000 C 
ATOM     15  O   UNL     1       1.207   1.952  19.040  0.00  0.00    +0.000 OA
ATOM     16  N   UNL     1       2.709   3.431  19.960  0.00  0.00    +0.000 N 
ATOM     17  H   UNL     1       3.650   3.802  19.871  0.00  0.00    +0.000 HD
BRANCH  16  18
ATOM     18  C   UNL     1       1.743   4.192  20.717  0.00  0.00    +0.000 C 
BRANCH  18  19
ATOM     19  C   UNL     1       1.775   5.646  20.322  0.00  0.00    +0.000 A 
ATOM     20  C   UNL     1       2.357   6.047  19.110  0.00  0.00    +0.000 A 
ATOM     21  C   UNL     1       2.386   7.396  18.750  0.00  0.00    +0.000 A 
ATOM     22  C   UNL     1       1.842   8.358  19.599  0.00  0.00    +0.000 A 
ATOM     23  C   UNL     1       1.272   7.974  20.811  0.00  0.00    +0.000 A 
ATOM     24  C   UNL     1       1.243   6.626  21.173  0.00  0.00    +0.000 A 
ENDBRANCH  18  19
ENDBRANCH  16  18
ENDBRANCH  13  14
ENDBRANCH   3  13
TORSDOF 5
ENDMDL
MODEL 5
REMARK VINA RESULT:      -7.1      1.362      1.710
REMARK  Name = 
REMARK  7 active torsions:
REMARK  status: ('A' for Active; 'I' for Inactive)
REMARK    1  A    between atoms: C_1  and  C_2
REMARK    2  A    between atoms: N_4  and  C_5
REMARK    3  A    between atoms: C_8  and  C_9
REMARK    4  A    between atoms: N_11  and  C_12
REMARK    5  A    between atoms: C_12  and  C_13
REMARK    6  A    between atoms: N_15  and  C_16
REMARK    7  A    between atoms: C_16  and  C_17
REMARK                            x       y       z     vdW  Elec       q    Type
REMARK                         _______ _______ _______ _____ _____    ______ ____
ROOT
ATOM      1  C   UNL     1       5.066   3.929  17.981  0.00  0.00    +0.000 C 
ATOM      2  O   UNL     1       4.969   3.547  16.816  0.00  0.00    +0.000 OA
ATOM      3  N   UNL     1       6.247   4.419  18.485  0.00  0.00    +0.000 N 
ATOM      4  H   UNL     1       6.251   4.864  19.395  0.00  0.00    +0.000 HD
ENDROOT
BRANCH   1  12
ATOM      5  C   UNL     1       2.454   5.856  17.995  0.00  0.00    +0.000 C 
ATOM      6  C   UNL     1       2.791   4.743  18.923  0.00  0.00    +0.000 A 
ATOM      7  N   UNL     1       1.941   4.439  19.915  0.00  0.00    +0.000 NA
ATOM      8  N   UNL     1       2.529   3.406  20.545  0.00  0.00    +0.000 N 
ATOM      9  C   UNL     1       1.875   2.814  21.689  0.00  0.00    +0.000 C 
ATOM     10  C   UNL     1       3.717   3.054  19.980  0.00  0.00    +0.000 A 
ATOM     11 CL   UNL     1       4.614   1.760  20.641  0.00  0.00    +0.000 Cl
ATOM     12  C   UNL     1       3.946   3.896  18.912  0.00  0.00    +0.000 A 
ENDBRANCH   1  12
BRANCH   3  13
ATOM     13  C   UNL     1       7.450   4.515  17.687  0.00  0.00    +0.000 C 
BRANCH  13  14
ATOM     14  C   UNL     1       7.187   5.318  16.414  0.00  0.00    +0.000 C 
ATOM     15  O   UNL     1       6.828   6.493  16.447  0.00  0.00    +0.000 OA
ATOM     16  N   UNL     1       7.311   4.585  15.257  0.00  0.00    +0.000 N 
ATOM     17  H   UNL     1       7.410   3.576  15.333  0.00  0.00    +0.000 HD
BRANCH  16  18
ATOM     18  C   UNL     1       7.100   5.154  13.947  0.00  0.00    +0.000 C 
BRANCH  18  19
ATOM     19  C   UNL     1       6.505   4.136  13.008  0.00  0.00    +0.000 A 
ATOM     20  C   UNL     1       5.114   3.987  12.899  0.00  0.00    +0.000 A 
ATOM     21  C   UNL     1       4.569   3.040  12.030  0.00  0.00    +0.000 A 
ATOM     22  C   UNL     1       5.405   2.228  11.265  0.00  0.00    +0.000 A 
ATOM     23  C   UNL     1       6.788   2.358  11.372  0.00  0.00    +0.000 A 
ATOM     24  C   UNL     1       7.335   3.304  12.242  0.00  0.00    +0.000 A 
ENDBRANCH  18  19
ENDBRANCH  16  18
ENDBRANCH  13  14
ENDBRANCH   3  13
TORSDOF 5
ENDMDL
MODEL 6
REMARK VINA RESULT:      -7.1      5.978      8.440
REMARK  Name = 
REMARK  7 active torsions:
REMARK  status: ('A' for Active; 'I' for Inactive)
REMARK    1  A    between atoms: C_1  and  C_2
REMARK    2  A    between atoms: N_4  and  C_5
REMARK    3  A    between atoms: C_8  and  C_9
REMARK    4  A    between atoms: N_11  and  C_12
REMARK    5  A    between atoms: C_12  and  C_13
REMARK    6  A    between atoms: N_15  and  C_16
REMARK    7  A    between atoms: C_16  and  C_17
REMARK                            x       y       z     vdW  Elec       q    Type
REMARK                         _______ _______ _______ _____ _____    ______ ____
ROOT
ATOM      1  C   UNL     1      -0.127  10.228  19.442  0.00  0.00    +0.000 C 
ATOM      2  O   UNL     1      -1.043   9.938  18.674  0.00  0.00    +0.000 OA
ATOM      3  N   UNL     1       1.188   9.981  19.123  0.00  0.00    +0.000 N 
ATOM      4  H   UNL     1       1.920  10.368  19.706  0.00  0.00    +0.000 HD
ENDROOT
BRANCH   1  12
ATOM      5  C   UNL     1       0.698   9.083  22.365  0.00  0.00    +0.000 C 
ATOM      6  C   UNL     1       0.004  10.355  22.028  0.00  0.00    +0.000 A 
ATOM      7  N   UNL     1      -0.350  11.189  23.018  0.00  0.00    +0.000 NA
ATOM      8  N   UNL     1      -0.933  12.221  22.384  0.00  0.00    +0.000 N 
ATOM      9  C   UNL     1      -1.443  13.327  23.161  0.00  0.00    +0.000 C 
ATOM     10  C   UNL     1      -0.955  12.062  21.031  0.00  0.00    +0.000 A 
ATOM     11 CL   UNL     1      -1.656  13.272  20.052  0.00  0.00    +0.000 Cl
ATOM     12  C   UNL     1      -0.358  10.854  20.736  0.00  0.00    +0.000 A 
ENDBRANCH   1  12
BRANCH   3  13
ATOM     13  C   UNL     1       1.580   9.364  17.875  0.00  0.00    +0.000 C 
BRANCH  13  14
ATOM     14  C   UNL     1       2.526   8.191  18.130  0.00  0.00    +0.000 C 
ATOM     15  O   UNL     1       3.401   7.874  17.328  0.00  0.00    +0.000 OA
ATOM     16  N   UNL     1       2.250   7.492  19.282  0.00  0.00    +0.000 N 
ATOM     17  H   UNL     1       1.387   7.698  19.776  0.00  0.00    +0.000 HD
BRANCH  16  18
ATOM     18  C   UNL     1       3.022   6.347  19.703  0.00  0.00    +0.000 C 
BRANCH  18  19
ATOM     19  C   UNL     1       2.239   5.073  19.518  0.00  0.00    +0.000 A 
ATOM     20  C   UNL     1       2.034   4.535  18.239  0.00  0.00    +0.000 A 
ATOM     21  C   UNL     1       1.306   3.356  18.074  0.00  0.00    +0.000 A 
ATOM     22  C   UNL     1       0.767   2.705  19.182  0.00  0.00    +0.000 A 
ATOM     23  C   UNL     1       0.953   3.235  20.458  0.00  0.00    +0.000 A 
ATOM     24  C   UNL     1       1.681   4.415  20.624  0.00  0.00    +0.000 A 
ENDBRANCH  18  19
ENDBRANCH  16  18
ENDBRANCH  13  14
ENDBRANCH   3  13
TORSDOF 5
ENDMDL
MODEL 7
REMARK VINA RESULT:      -7.0      1.181      1.186
REMARK  Name = 
REMARK  7 active torsions:
REMARK  status: ('A' for Active; 'I' for Inactive)
REMARK    1  A    between atoms: C_1  and  C_2
REMARK    2  A    between atoms: N_4  and  C_5
REMARK    3  A    between atoms: C_8  and  C_9
REMARK    4  A    between atoms: N_11  and  C_12
REMARK    5  A    between atoms: C_12  and  C_13
REMARK    6  A    between atoms: N_15  and  C_16
REMARK    7  A    between atoms: C_16  and  C_17
REMARK                            x       y       z     vdW  Elec       q    Type
REMARK                         _______ _______ _______ _____ _____    ______ ____
ROOT
ATOM      1  C   UNL     1       5.383   4.884  18.832  0.00  0.00    +0.000 C 
ATOM      2  O   UNL     1       6.194   5.653  19.345  0.00  0.00    +0.000 OA
ATOM      3  N   UNL     1       5.616   4.298  17.611  0.00  0.00    +0.000 N 
ATOM      4  H   UNL     1       5.003   3.557  17.292  0.00  0.00    +0.000 HD
ENDROOT
BRANCH   1  12
ATOM      5  C   UNL     1       2.725   6.726  19.113  0.00  0.00    +0.000 C 
ATOM      6  C   UNL     1       2.949   5.339  19.601  0.00  0.00    +0.000 A 
ATOM      7  N   UNL     1       1.958   4.704  20.245  0.00  0.00    +0.000 NA
ATOM      8  N   UNL     1       2.475   3.498  20.535  0.00  0.00    +0.000 N 
ATOM      9  C   UNL     1       1.663   2.535  21.243  0.00  0.00    +0.000 C 
ATOM     10  C   UNL     1       3.755   3.355  20.093  0.00  0.00    +0.000 A 
ATOM     11 CL   UNL     1       4.583   1.887  20.368  0.00  0.00    +0.000 Cl
ATOM     12  C   UNL     1       4.124   4.531  19.474  0.00  0.00    +0.000 A 
ENDBRANCH   1  12
BRANCH   3  13
ATOM     13  C   UNL     1       6.819   4.548  16.848  0.00  0.00    +0.000 C 
BRANCH  13  14
ATOM     14  C   UNL     1       6.473   4.962  15.418  0.00  0.00    +0.000 C 
ATOM     15  O   UNL     1       5.406   5.502  15.137  0.00  0.00    +0.000 OA
ATOM     16  N   UNL     1       7.420   4.601  14.488  0.00  0.00    +0.000 N 
ATOM     17  H   UNL     1       8.170   3.980  14.779  0.00  0.00    +0.000 HD
BRANCH  16  18
ATOM     18  C   UNL     1       7.282   4.895  13.081  0.00  0.00    +0.000 C 
BRANCH  18  19
ATOM     19  C   UNL     1       6.715   3.713  12.338  0.00  0.00    +0.000 A 
ATOM     20  C   UNL     1       7.562   2.749  11.770  0.00  0.00    +0.000 A 
ATOM     21  C   UNL     1       7.031   1.658  11.080  0.00  0.00    +0.000 A 
ATOM     22  C   UNL     1       5.651   1.520  10.944  0.00  0.00    +0.000 A 
ATOM     23  C   UNL     1       4.799   2.476  11.493  0.00  0.00    +0.000 A 
ATOM     24  C   UNL     1       5.328   3.569  12.183  0.00  0.00    +0.000 A 
ENDBRANCH  18  19
ENDBRANCH  16  18
ENDBRANCH  13  14
ENDBRANCH   3  13
TORSDOF 5
ENDMDL
MODEL 8
REMARK VINA RESULT:      -7.0      0.478      1.132
REMARK  Name = 
REMARK  7 active torsions:
REMARK  status: ('A' for Active; 'I' for Inactive)
REMARK    1  A    between atoms: C_1  and  C_2
REMARK    2  A    between atoms: N_4  and  C_5
REMARK    3  A    between atoms: C_8  and  C_9
REMARK    4  A    between atoms: N_11  and  C_12
REMARK    5  A    between atoms: C_12  and  C_13
REMARK    6  A    between atoms: N_15  and  C_16
REMARK    7  A    between atoms: C_16  and  C_17
REMARK                            x       y       z     vdW  Elec       q    Type
REMARK                         _______ _______ _______ _____ _____    ______ ____
ROOT
ATOM      1  C   UNL     1       4.966   4.757  18.400  0.00  0.00    +0.000 C 
ATOM      2  O   UNL     1       5.449   5.674  19.062  0.00  0.00    +0.000 OA
ATOM      3  N   UNL     1       5.718   4.048  17.494  0.00  0.00    +0.000 N 
ATOM      4  H   UNL     1       5.332   3.207  17.081  0.00  0.00    +0.000 HD
ENDROOT
BRANCH   1  12
ATOM      5  C   UNL     1       2.337   6.660  18.321  0.00  0.00    +0.000 C 
ATOM      6  C   UNL     1       2.410   5.184  18.490  0.00  0.00    +0.000 A 
ATOM      7  N   UNL     1       1.273   4.484  18.626  0.00  0.00    +0.000 NA
ATOM      8  N   UNL     1       1.685   3.210  18.747  0.00  0.00    +0.000 N 
ATOM      9  C   UNL     1       0.701   2.165  18.913  0.00  0.00    +0.000 C 
ATOM     10  C   UNL     1       3.040   3.088  18.689  0.00  0.00    +0.000 A 
ATOM     11 CL   UNL     1       3.754   1.543  18.823  0.00  0.00    +0.000 Cl
ATOM     12  C   UNL     1       3.573   4.350  18.525  0.00  0.00    +0.000 A 
ENDBRANCH   1  12
BRANCH   3  13
ATOM     13  C   UNL     1       7.116   4.331  17.255  0.00  0.00    +0.000 C 
BRANCH  13  14
ATOM     14  C   UNL     1       7.304   4.995  15.892  0.00  0.00    +0.000 C 
ATOM     15  O   UNL     1       7.730   6.142  15.779  0.00  0.00    +0.000 OA
ATOM     16  N   UNL     1       6.881   4.225  14.834  0.00  0.00    +0.000 N 
ATOM     17  H   UNL     1       6.356   3.378  15.032  0.00  0.00    +0.000 HD
BRANCH  16  18
ATOM     18  C   UNL     1       6.966   4.670  13.462  0.00  0.00    +0.000 C 
BRANCH  18  19
ATOM     19  C   UNL     1       6.281   3.698  12.537  0.00  0.00    +0.000 A 
ATOM     20  C   UNL     1       4.917   3.833  12.237  0.00  0.00    +0.000 A 
ATOM     21  C   UNL     1       4.286   2.928  11.382  0.00  0.00    +0.000 A 
ATOM     22  C   UNL     1       5.007   1.874  10.823  0.00  0.00    +0.000 A 
ATOM     23  C   UNL     1       6.359   1.722  11.122  0.00  0.00    +0.000 A 
ATOM     24  C   UNL     1       6.992   2.626  11.979  0.00  0.00    +0.000 A 
ENDBRANCH  18  19
ENDBRANCH  16  18
ENDBRANCH  13  14
ENDBRANCH   3  13
TORSDOF 5
ENDMDL
MODEL 9
REMARK VINA RESULT:      -7.0      2.576      7.350
REMARK  Name = 
REMARK  7 active torsions:
REMARK  status: ('A' for Active; 'I' for Inactive)
REMARK    1  A    between atoms: C_1  and  C_2
REMARK    2  A    between atoms: N_4  and  C_5
REMARK    3  A    between atoms: C_8  and  C_9
REMARK    4  A    between atoms: N_11  and  C_12
REMARK    5  A    between atoms: C_12  and  C_13
REMARK    6  A    between atoms: N_15  and  C_16
REMARK    7  A    between atoms: C_16  and  C_17
REMARK                            x       y       z     vdW  Elec       q    Type
REMARK                         _______ _______ _______ _____ _____    ______ ____
ROOT
ATOM      1  C   UNL     1       4.563   4.187  16.584  0.00  0.00    +0.000 C 
ATOM      2  O   UNL     1       3.580   4.902  16.769  0.00  0.00    +0.000 OA
ATOM      3  N   UNL     1       4.666   2.939  17.152  0.00  0.00    +0.000 N 
ATOM      4  H   UNL     1       5.412   2.320  16.858  0.00  0.00    +0.000 HD
ENDROOT
BRANCH   1  12
ATOM      5  C   UNL     1       7.230   5.787  17.515  0.00  0.00    +0.000 C 
ATOM      6  C   UNL     1       6.864   5.303  16.156  0.00  0.00    +0.000 A 
ATOM      7  N   UNL     1       7.709   5.518  15.136  0.00  0.00    +0.000 NA
ATOM      8  N   UNL     1       7.094   4.960  14.079  0.00  0.00    +0.000 N 
ATOM      9  C   UNL     1       7.736   5.008  12.785  0.00  0.00    +0.000 C 
ATOM     10  C   UNL     1       5.894   4.403  14.402  0.00  0.00    +0.000 A 
ATOM     11 CL   UNL     1       4.964   3.644  13.189  0.00  0.00    +0.000 Cl
ATOM     12  C   UNL     1       5.686   4.598  15.752  0.00  0.00    +0.000 A 
ENDBRANCH   1  12
BRANCH   3  13
ATOM     13  C   UNL     1       3.635   2.388  18.004  0.00  0.00    +0.000 C 
BRANCH  13  14
ATOM     14  C   UNL     1       3.567   3.149  19.327  0.00  0.00    +0.000 C 
ATOM     15  O   UNL     1       4.225   2.811  20.308  0.00  0.00    +0.000 OA
ATOM     16  N   UNL     1       2.653   4.177  19.332  0.00  0.00    +0.000 N 
ATOM     17  H   UNL     1       2.010   4.256  18.550  0.00  0.00    +0.000 HD
BRANCH  16  18
ATOM     18  C   UNL     1       2.431   5.017  20.486  0.00  0.00    +0.000 C 
BRANCH  18  19
ATOM     19  C   UNL     1       2.116   6.431  20.070  0.00  0.00    +0.000 A 
ATOM     20  C   UNL     1       1.446   7.302  20.942  0.00  0.00    +0.000 A 
ATOM     21  C   UNL     1       1.154   8.610  20.550  0.00  0.00    +0.000 A 
ATOM     22  C   UNL     1       1.521   9.059  19.283  0.00  0.00    +0.000 A 
ATOM     23  C   UNL     1       2.177   8.200  18.403  0.00  0.00    +0.000 A 
ATOM     24  C   UNL     1       2.468   6.891  18.793  0.00  0.00    +0.000 A 
ENDBRANCH  18  19
ENDBRANCH  16  18
ENDBRANCH  13  14
ENDBRANCH   3  13
TORSDOF 5
ENDMDL
