MODEL 1
REMARK VINA RESULT:      -7.9      0.000      0.000
REMARK  Name = 
REMARK  8 active torsions:
REMARK  status: ('A' for Active; 'I' for Inactive)
REMARK    1  A    between atoms: C_1  and  C_2
REMARK    2  A    between atoms: C_2  and  C_3
REMARK    3  A    between atoms: C_3  and  C_4
REMARK    4  A    between atoms: C_6  and  C_7
REMARK    5  A    between atoms: C_7  and  N_8
REMARK    6  A    between atoms: N_8  and  C_9
REMARK    7  A    between atoms: C_9  and  C_10
REMARK    8  A    between atoms: C_11  and  C_13
REMARK                            x       y       z     vdW  Elec       q    Type
REMARK                         _______ _______ _______ _____ _____    ______ ____
ROOT
ATOM      1  N   UNL     1       5.065   4.877  18.006  0.00  0.00    +0.000 N 
ATOM      2  C   UNL     1       4.573   3.977  18.977  0.00  0.00    +0.000 C 
ATOM      3  O   UNL     1       5.294   3.161  19.569  0.00  0.00    +0.000 OA
ENDROOT
BRANCH   2   4
ATOM      4  C   UNL     1       3.036   3.969  19.208  0.00  0.00    +0.000 C 
ATOM      5  C   UNL     1       2.564   3.711  20.629  0.00  0.00    +0.000 C 
ATOM      6  C   UNL     1       1.071   3.456  20.408  0.00  0.00    +0.000 C 
ATOM      7  C   UNL     1       1.064   2.761  19.067  0.00  0.00    +0.000 C 
ATOM      8  O   UNL     1       0.124   2.178  18.556  0.00  0.00    +0.000 OA
ATOM      9  N   UNL     1       2.297   2.968  18.482  0.00  0.00    +0.000 N 
ATOM     10  H   UNL     1       2.498   2.677  17.535  0.00  0.00    +0.000 HD
ENDBRANCH   2   4
BRANCH   1  11
ATOM     11  C   UNL     1       4.126   5.684  17.221  0.00  0.00    +0.000 C 
ATOM     12  C   UNL     1       3.943   7.165  17.477  0.00  0.00    +0.000 C 
ENDBRANCH   1  11
BRANCH   1  13
ATOM     13  C   UNL     1       6.399   4.546  17.471  0.00  0.00    +0.000 C 
BRANCH  13  16
ATOM     14  C   UNL     1       6.797   4.489  13.986  0.00  0.00    +0.000 A 
ATOM     15  N   UNL     1       6.123   4.081  15.036  0.00  0.00    +0.000 NA
ATOM     16  C   UNL     1       6.612   4.888  16.036  0.00  0.00    +0.000 A 
ATOM     17  N   UNL     1       7.501   5.809  15.617  0.00  0.00    +0.000 NA
ATOM     18  O   UNL     1       7.623   5.543  14.248  0.00  0.00    +0.000 OA
BRANCH  14  19
ATOM     19  C   UNL     1       6.863   3.873  12.641  0.00  0.00    +0.000 C 
BRANCH  19  21
ATOM     20  C   UNL     1       5.662   1.948  11.449  0.00  0.00    +0.000 C 
ATOM     21  C   UNL     1       5.523   3.258  12.219  0.00  0.00    +0.000 C 
ENDBRANCH  19  21
ENDBRANCH  14  19
ENDBRANCH  13  16
ENDBRANCH   1  13
TORSDOF 6
ENDMDL
MODEL 2
REMARK VINA RESULT:      -7.1      1.646      1.995
REMARK  Name = 
REMARK  8 active torsions:
REMARK  status: ('A' for Active; 'I' for Inactive)
REMARK    1  A    between atoms: C_1  and  C_2
REMARK    2  A    between atoms: C_2  and  C_3
REMARK    3  A    between atoms: C_3  and  C_4
REMARK    4  A    between atoms: C_6  and  C_7
REMARK    5  A    between atoms: C_7  and  N_8
REMARK    6  A    between atoms: N_8  and  C_9
REMARK    7  A    between atoms: C_9  and  C_10
REMARK    8  A    between atoms: C_11  and  C_13
REMARK                            x       y       z     vdW  Elec       q    Type
REMARK                         _______ _______ _______ _____ _____    ______ ____
ROOT
ATOM      1  N   UNL     1       4.805   4.340  17.511  0.00  0.00    +0.000 N 
ATOM      2  C   UNL     1       4.593   4.826  18.820  0.00  0.00    +0.000 C 
ATOM      3  O   UNL     1       5.465   5.424  19.469  0.00  0.00    +0.000 OA
ENDROOT
BRANCH   2   4
ATOM      4  C   UNL     1       3.229   4.484  19.482  0.00  0.00    +0.000 C 
ATOM      5  C   UNL     1       2.420   5.654  20.016  0.00  0.00    +0.000 C 
ATOM      6  C   UNL     1       1.360   4.930  20.851  0.00  0.00    +0.000 C 
ATOM      7  C   UNL     1       2.133   3.747  21.386  0.00  0.00    +0.000 C 
ATOM      8  O   UNL     1       1.775   2.985  22.267  0.00  0.00    +0.000 OA
ATOM      9  N   UNL     1       3.291   3.633  20.643  0.00  0.00    +0.000 N 
ATOM     10  H   UNL     1       3.925   2.854  20.754  0.00  0.00    +0.000 HD
ENDBRANCH   2   4
BRANCH   1  11
ATOM     11  C   UNL     1       3.792   3.488  16.880  0.00  0.00    +0.000 C 
ATOM     12  C   UNL     1       3.444   2.123  17.434  0.00  0.00    +0.000 C 
ENDBRANCH   1  11
BRANCH   1  13
ATOM     13  C   UNL     1       6.218   4.255  17.100  0.00  0.00    +0.000 C 
BRANCH  13  16
ATOM     14  C   UNL     1       6.770   4.433  13.641  0.00  0.00    +0.000 A 
ATOM     15  N   UNL     1       6.041   3.969  14.629  0.00  0.00    +0.000 NA
ATOM     16  C   UNL     1       6.503   4.691  15.704  0.00  0.00    +0.000 A 
ATOM     17  N   UNL     1       7.428   5.618  15.390  0.00  0.00    +0.000 NA
ATOM     18  O   UNL     1       7.606   5.445  14.012  0.00  0.00    +0.000 OA
BRANCH  14  19
ATOM     19  C   UNL     1       6.883   3.911  12.259  0.00  0.00    +0.000 C 
BRANCH  19  21
ATOM     20  C   UNL     1       4.497   3.328  11.531  0.00  0.00    +0.000 C 
ATOM     21  C   UNL     1       5.860   2.805  11.972  0.00  0.00    +0.000 C 
ENDBRANCH  19  21
ENDBRANCH  14  19
ENDBRANCH  13  16
ENDBRANCH   1  13
TORSDOF 6
ENDMDL
MODEL 3
REMARK VINA RESULT:      -7.0      1.030      1.243
REMARK  Name = 
REMARK  8 active torsions:
REMARK  status: ('A' for Active; 'I' for Inactive)
REMARK    1  A    between atoms: C_1  and  C_2
REMARK    2  A    between atoms: C_2  and  C_3
REMARK    3  A    between atoms: C_3  and  C_4
REMARK    4  A    between atoms: C_6  and  C_7
REMARK    5  A    between atoms: C_7  and  N_8
REMARK    6  A    between atoms: N_8  and  C_9
REMARK    7  A    between atoms: C_9  and  C_10
REMARK    8  A    between atoms: C_11  and  C_13
REMARK                            x       y       z     vdW  Elec       q    Type
REMARK                         _______ _______ _______ _____ _____    ______ ____
ROOT
ATOM      1  N   UNL     1       4.772   5.858  18.194  0.00  0.00    +0.000 N 
ATOM      2  C   UNL     1       4.391   4.830  19.085  0.00  0.00    +0.000 C 
ATOM      3  O   UNL     1       5.209   4.115  19.682  0.00  0.00    +0.000 OA
ENDROOT
BRANCH   2   4
ATOM      4  C   UNL     1       2.868   4.546  19.215  0.00  0.00    +0.000 C 
ATOM      5  C   UNL     1       2.344   4.277  20.615  0.00  0.00    +0.000 C 
ATOM      6  C   UNL     1       0.945   3.735  20.313  0.00  0.00    +0.000 C 
ATOM      7  C   UNL     1       1.168   2.983  19.023  0.00  0.00    +0.000 C 
ATOM      8  O   UNL     1       0.393   2.208  18.490  0.00  0.00    +0.000 OA
ATOM      9  N   UNL     1       2.384   3.388  18.507  0.00  0.00    +0.000 N 
ATOM     10  H   UNL     1       2.706   3.091  17.596  0.00  0.00    +0.000 HD
ENDBRANCH   2   4
BRANCH   1  11
ATOM     11  C   UNL     1       3.751   6.538  17.391  0.00  0.00    +0.000 C 
ATOM     12  C   UNL     1       3.121   7.838  17.842  0.00  0.00    +0.000 C 
ENDBRANCH   1  11
BRANCH   1  13
ATOM     13  C   UNL     1       6.170   5.793  17.731  0.00  0.00    +0.000 C 
BRANCH  13  16
ATOM     14  C   UNL     1       6.646   4.504  14.504  0.00  0.00    +0.000 A 
ATOM     15  N   UNL     1       6.920   5.444  15.378  0.00  0.00    +0.000 NA
ATOM     16  C   UNL     1       6.408   4.924  16.544  0.00  0.00    +0.000 A 
ATOM     17  N   UNL     1       5.902   3.683  16.419  0.00  0.00    +0.000 NA
ATOM     18  O   UNL     1       6.062   3.402  15.057  0.00  0.00    +0.000 OA
BRANCH  14  19
ATOM     19  C   UNL     1       6.768   4.559  13.028  0.00  0.00    +0.000 C 
BRANCH  19  21
ATOM     20  C   UNL     1       4.750   3.514  11.846  0.00  0.00    +0.000 C 
ATOM     21  C   UNL     1       6.175   3.317  12.352  0.00  0.00    +0.000 C 
ENDBRANCH  19  21
ENDBRANCH  14  19
ENDBRANCH  13  16
ENDBRANCH   1  13
TORSDOF 6
ENDMDL
MODEL 4
REMARK VINA RESULT:      -7.0      3.411      5.007
REMARK  Name = 
REMARK  8 active torsions:
REMARK  status: ('A' for Active; 'I' for Inactive)
REMARK    1  A    between atoms: C_1  and  C_2
REMARK    2  A    between atoms: C_2  and  C_3
REMARK    3  A    between atoms: C_3  and  C_4
REMARK    4  A    between atoms: C_6  and  C_7
REMARK    5  A    between atoms: C_7  and  N_8
REMARK    6  A    between atoms: N_8  and  C_9
REMARK    7  A    between atoms: C_9  and  C_10
REMARK    8  A    between atoms: C_11  and  C_13
REMARK                            x       y       z     vdW  Elec       q    Type
REMARK                         _______ _______ _______ _____ _____    ______ ____
ROOT
ATOM      1  N   UNL     1       5.894   5.077  17.671  0.00  0.00    +0.000 N 
ATOM      2  C   UNL     1       4.821   5.035  18.588  0.00  0.00    +0.000 C 
ATOM      3  O   UNL     1       4.877   5.538  19.720  0.00  0.00    +0.000 OA
ENDROOT
BRANCH   2   4
ATOM      4  C   UNL     1       3.568   4.219  18.162  0.00  0.00    +0.000 C 
ATOM      5  C   UNL     1       2.276   5.000  17.986  0.00  0.00    +0.000 C 
ATOM      6  C   UNL     1       1.250   3.867  17.900  0.00  0.00    +0.000 C 
ATOM      7  C   UNL     1       1.834   2.840  18.840  0.00  0.00    +0.000 C 
ATOM      8  O   UNL     1       1.276   1.843  19.264  0.00  0.00    +0.000 OA
ATOM      9  N   UNL     1       3.149   3.188  19.077  0.00  0.00    +0.000 N 
ATOM     10  H   UNL     1       3.775   2.594  19.603  0.00  0.00    +0.000 HD
ENDBRANCH   2   4
BRANCH   1  11
ATOM     11  C   UNL     1       5.817   4.306  16.427  0.00  0.00    +0.000 C 
ATOM     12  C   UNL     1       5.593   4.976  15.088  0.00  0.00    +0.000 C 
ENDBRANCH   1  11
BRANCH   1  13
ATOM     13  C   UNL     1       7.200   5.424  18.259  0.00  0.00    +0.000 C 
BRANCH  13  16
ATOM     14  C   UNL     1       8.451   8.699  18.391  0.00  0.00    +0.000 A 
ATOM     15  N   UNL     1       8.537   7.458  18.808  0.00  0.00    +0.000 NA
ATOM     16  C   UNL     1       7.695   6.795  17.946  0.00  0.00    +0.000 A 
ATOM     17  N   UNL     1       7.162   7.575  16.987  0.00  0.00    +0.000 NA
ATOM     18  O   UNL     1       7.668   8.846  17.284  0.00  0.00    +0.000 OA
BRANCH  14  19
ATOM     19  C   UNL     1       8.973   9.924  19.040  0.00  0.00    +0.000 C 
BRANCH  19  21
ATOM     20  C   UNL     1      10.499  11.588  17.831  0.00  0.00    +0.000 C 
ATOM     21  C   UNL     1       9.073  11.100  18.062  0.00  0.00    +0.000 C 
ENDBRANCH  19  21
ENDBRANCH  14  19
ENDBRANCH  13  16
ENDBRANCH   1  13
TORSDOF 6
ENDMDL
MODEL 5
REMARK VINA RESULT:      -6.9      1.688      2.125
REMARK  Name = 
REMARK  8 active torsions:
REMARK  status: ('A' for Active; 'I' for Inactive)
REMARK    1  A    between atoms: C_1  and  C_2
REMARK    2  A    between atoms: C_2  and  C_3
REMARK    3  A    between atoms: C_3  and  C_4
REMARK    4  A    between atoms: C_6  and  C_7
REMARK    5  A    between atoms: C_7  and  N_8
REMARK    6  A    between atoms: N_8  and  C_9
REMARK    7  A    between atoms: C_9  and  C_10
REMARK    8  A    between atoms: C_11  and  C_13
REMARK                            x       y       z     vdW  Elec       q    Type
REMARK                         _______ _______ _______ _____ _____    ______ ____
ROOT
ATOM      1  N   UNL     1       5.289   5.225  18.183  0.00  0.00    +0.000 N 
ATOM      2  C   UNL     1       4.113   4.463  18.354  0.00  0.00    +0.000 C 
ATOM      3  O   UNL     1       3.235   4.369  17.484  0.00  0.00    +0.000 OA
ENDROOT
BRANCH   2   4
ATOM      4  C   UNL     1       3.896   3.813  19.750  0.00  0.00    +0.000 C 
ATOM      5  C   UNL     1       4.224   2.335  19.870  0.00  0.00    +0.000 C 
ATOM      6  C   UNL     1       3.595   1.997  21.225  0.00  0.00    +0.000 C 
ATOM      7  C   UNL     1       2.380   2.894  21.242  0.00  0.00    +0.000 C 
ATOM      8  O   UNL     1       1.450   2.841  22.026  0.00  0.00    +0.000 OA
ATOM      9  N   UNL     1       2.546   3.843  20.253  0.00  0.00    +0.000 N 
ATOM     10  H   UNL     1       1.903   4.614  20.136  0.00  0.00    +0.000 HD
ENDBRANCH   2   4
BRANCH   1  11
ATOM     11  C   UNL     1       6.191   5.433  19.320  0.00  0.00    +0.000 C 
ATOM     12  C   UNL     1       7.663   5.727  19.125  0.00  0.00    +0.000 C 
ENDBRANCH   1  11
BRANCH   1  13
ATOM     13  C   UNL     1       5.248   6.192  17.071  0.00  0.00    +0.000 C 
BRANCH  13  16
ATOM     14  C   UNL     1       6.362   4.504  14.205  0.00  0.00    +0.000 A 
ATOM     15  N   UNL     1       5.348   4.921  14.927  0.00  0.00    +0.000 NA
ATOM     16  C   UNL     1       5.953   5.764  15.829  0.00  0.00    +0.000 A 
ATOM     17  N   UNL     1       7.276   5.925  15.635  0.00  0.00    +0.000 NA
ATOM     18  O   UNL     1       7.548   5.084  14.549  0.00  0.00    +0.000 OA
BRANCH  14  19
ATOM     19  C   UNL     1       6.386   3.420  13.195  0.00  0.00    +0.000 C 
BRANCH  19  21
ATOM     20  C   UNL     1       4.414   3.188  11.576  0.00  0.00    +0.000 C 
ATOM     21  C   UNL     1       5.756   3.853  11.866  0.00  0.00    +0.000 C 
ENDBRANCH  19  21
ENDBRANCH  14  19
ENDBRANCH  13  16
ENDBRANCH   1  13
TORSDOF 6
ENDMDL
MODEL 6
REMARK VINA RESULT:      -6.7      2.815      4.409
REMARK  Name = 
REMARK  8 active torsions:
REMARK  status: ('A' for Active; 'I' for Inactive)
REMARK    1  A    between atoms: C_1  and  C_2
REMARK    2  A    between atoms: C_2  and  C_3
REMARK    3  A    between atoms: C_3  and  C_4
REMARK    4  A    between atoms: C_6  and  C_7
REMARK    5  A    between atoms: C_7  and  N_8
REMARK    6  A    between atoms: N_8  and  C_9
REMARK    7  A    between atoms: C_9  and  C_10
REMARK    8  A    between atoms: C_11  and  C_13
REMARK                            x       y       z     vdW  Elec       q    Type
REMARK                         _______ _______ _______ _____ _____    ______ ____
ROOT
ATOM      1  N   UNL     1       5.233   5.012  18.612  0.00  0.00    +0.000 N 
ATOM      2  C   UNL     1       4.642   3.909  19.266  0.00  0.00    +0.000 C 
ATOM      3  O   UNL     1       5.286   2.912  19.625  0.00  0.00    +0.000 OA
ENDROOT
BRANCH   2   4
ATOM      4  C   UNL     1       3.097   3.938  19.431  0.00  0.00    +0.000 C 
ATOM      5  C   UNL     1       2.554   3.597  20.809  0.00  0.00    +0.000 C 
ATOM      6  C   UNL     1       1.065   3.410  20.507  0.00  0.00    +0.000 C 
ATOM      7  C   UNL     1       1.097   2.811  19.121  0.00  0.00    +0.000 C 
ATOM      8  O   UNL     1       0.162   2.298  18.530  0.00  0.00    +0.000 OA
ATOM      9  N   UNL     1       2.360   3.017  18.604  0.00  0.00    +0.000 N 
ATOM     10  H   UNL     1       2.594   2.786  17.648  0.00  0.00    +0.000 HD
ENDBRANCH   2   4
BRANCH   1  11
ATOM     11  C   UNL     1       4.380   6.069  18.059  0.00  0.00    +0.000 C 
ATOM     12  C   UNL     1       4.282   6.313  16.568  0.00  0.00    +0.000 C 
ENDBRANCH   1  11
BRANCH   1  13
ATOM     13  C   UNL     1       6.573   4.759  18.052  0.00  0.00    +0.000 C 
BRANCH  13  16
ATOM     14  C   UNL     1       8.261   7.827  18.255  0.00  0.00    +0.000 A 
ATOM     15  N   UNL     1       7.949   6.689  18.829  0.00  0.00    +0.000 NA
ATOM     16  C   UNL     1       7.395   5.975  17.793  0.00  0.00    +0.000 A 
ATOM     17  N   UNL     1       7.423   6.612  16.606  0.00  0.00    +0.000 NA
ATOM     18  O   UNL     1       8.003   7.848  16.916  0.00  0.00    +0.000 OA
BRANCH  14  19
ATOM     19  C   UNL     1       8.712   9.085  18.896  0.00  0.00    +0.000 C 
BRANCH  19  21
ATOM     20  C   UNL     1       9.826  11.258  18.122  0.00  0.00    +0.000 C 
ATOM     21  C   UNL     1       8.679  10.272  17.925  0.00  0.00    +0.000 C 
ENDBRANCH  19  21
ENDBRANCH  14  19
ENDBRANCH  13  16
ENDBRANCH   1  13
TORSDOF 6
ENDMDL
MODEL 7
REMARK VINA RESULT:      -6.7      1.350      1.460
REMARK  Name = 
REMARK  8 active torsions:
REMARK  status: ('A' for Active; 'I' for Inactive)
REMARK    1  A    between atoms: C_1  and  C_2
REMARK    2  A    between atoms: C_2  and  C_3
REMARK    3  A    between atoms: C_3  and  C_4
REMARK    4  A    between atoms: C_6  and  C_7
REMARK    5  A    between atoms: C_7  and  N_8
REMARK    6  A    between atoms: N_8  and  C_9
REMARK    7  A    between atoms: C_9  and  C_10
REMARK    8  A    between atoms: C_11  and  C_13
REMARK                            x       y       z     vdW  Elec       q    Type
REMARK                         _______ _______ _______ _____ _____    ______ ____
ROOT
ATOM      1  N   UNL     1       4.707   6.631  18.073  0.00  0.00    +0.000 N 
ATOM      2  C   UNL     1       4.600   5.468  18.865  0.00  0.00    +0.000 C 
ATOM      3  O   UNL     1       5.582   4.888  19.352  0.00  0.00    +0.000 OA
ENDROOT
BRANCH   2   4
ATOM      4  C   UNL     1       3.180   4.856  19.024  0.00  0.00    +0.000 C 
ATOM      5  C   UNL     1       2.535   4.981  20.395  0.00  0.00    +0.000 C 
ATOM      6  C   UNL     1       1.354   4.016  20.260  0.00  0.00    +0.000 C 
ATOM      7  C   UNL     1       1.926   2.939  19.369  0.00  0.00    +0.000 C 
ATOM      8  O   UNL     1       1.431   1.849  19.140  0.00  0.00    +0.000 OA
ATOM      9  N   UNL     1       3.078   3.438  18.795  0.00  0.00    +0.000 N 
ATOM     10  H   UNL     1       3.586   2.930  18.084  0.00  0.00    +0.000 HD
ENDBRANCH   2   4
BRANCH   1  11
ATOM     11  C   UNL     1       3.521   7.153  17.386  0.00  0.00    +0.000 C 
ATOM     12  C   UNL     1       2.722   8.309  17.946  0.00  0.00    +0.000 C 
ENDBRANCH   1  11
BRANCH   1  13
ATOM     13  C   UNL     1       6.058   6.907  17.552  0.00  0.00    +0.000 C 
BRANCH  13  16
ATOM     14  C   UNL     1       6.281   4.710  14.826  0.00  0.00    +0.000 A 
ATOM     15  N   UNL     1       5.743   5.790  15.344  0.00  0.00    +0.000 NA
ATOM     16  C   UNL     1       6.517   6.001  16.461  0.00  0.00    +0.000 A 
ATOM     17  N   UNL     1       7.538   5.134  16.597  0.00  0.00    +0.000 NA
ATOM     18  O   UNL     1       7.380   4.273  15.505  0.00  0.00    +0.000 OA
BRANCH  14  19
ATOM     19  C   UNL     1       5.768   3.870  13.719  0.00  0.00    +0.000 C 
BRANCH  19  21
ATOM     20  C   UNL     1       6.619   2.645  11.637  0.00  0.00    +0.000 C 
ATOM     21  C   UNL     1       6.687   3.906  12.492  0.00  0.00    +0.000 C 
ENDBRANCH  19  21
ENDBRANCH  14  19
ENDBRANCH  13  16
ENDBRANCH   1  13
TORSDOF 6
ENDMDL
MODEL 8
REMARK VINA RESULT:      -6.7      2.467      3.356
REMARK  Name = 
REMARK  8 active torsions:
REMARK  status: ('A' for Active; 'I' for Inactive)
REMARK    1  A    between atoms: C_1  and  C_2
REMARK    2  A    between atoms: C_2  and  C_3
REMARK    3  A    between atoms: C_3  and  C_4
REMARK    4  A    between atoms: C_6  and  C_7
REMARK    5  A    between atoms: C_7  and  N_8
REMARK    6  A    between atoms: N_8  and  C_9
REMARK    7  A    between atoms: C_9  and  C_10
REMARK    8  A    between atoms: C_11  and  C_13
REMARK                            x       y       z     vdW  Elec       q    Type
REMARK                         _______ _______ _______ _____ _____    ______ ____
ROOT
ATOM      1  N   UNL     1       3.702   4.870  17.317  0.00  0.00    +0.000 N 
ATOM      2  C   UNL     1       3.881   6.219  17.692  0.00  0.00    +0.000 C 
ATOM      3  O   UNL     1       4.975   6.800  17.631  0.00  0.00    +0.000 OA
ENDROOT
BRANCH   2   4
ATOM      4  C   UNL     1       2.650   6.945  18.305  0.00  0.00    +0.000 C 
ATOM      5  C   UNL     1       2.466   8.406  17.931  0.00  0.00    +0.000 C 
ATOM      6  C   UNL     1       1.401   8.842  18.941  0.00  0.00    +0.000 C 
ATOM      7  C   UNL     1       1.761   8.020  20.155  0.00  0.00    +0.000 C 
ATOM      8  O   UNL     1       1.326   8.164  21.284  0.00  0.00    +0.000 OA
ATOM      9  N   UNL     1       2.617   7.018  19.744  0.00  0.00    +0.000 N 
ATOM     10  H   UNL     1       2.919   6.281  20.366  0.00  0.00    +0.000 HD
ENDBRANCH   2   4
BRANCH   1  11
ATOM     11  C   UNL     1       2.424   4.204  17.588  0.00  0.00    +0.000 C 
ATOM     12  C   UNL     1       2.275   3.193  18.705  0.00  0.00    +0.000 C 
ENDBRANCH   1  11
BRANCH   1  13
ATOM     13  C   UNL     1       4.946   4.088  17.199  0.00  0.00    +0.000 C 
BRANCH  13  16
ATOM     14  C   UNL     1       6.427   4.388  14.033  0.00  0.00    +0.000 A 
ATOM     15  N   UNL     1       5.328   4.371  14.750  0.00  0.00    +0.000 NA
ATOM     16  C   UNL     1       5.810   4.438  16.036  0.00  0.00    +0.000 A 
ATOM     17  N   UNL     1       7.148   4.564  16.118  0.00  0.00    +0.000 NA
ATOM     18  O   UNL     1       7.560   4.531  14.780  0.00  0.00    +0.000 OA
BRANCH  14  19
ATOM     19  C   UNL     1       6.580   4.139  12.580  0.00  0.00    +0.000 C 
BRANCH  19  21
ATOM     20  C   UNL     1       4.482   3.229  11.426  0.00  0.00    +0.000 C 
ATOM     21  C   UNL     1       5.800   2.902  12.120  0.00  0.00    +0.000 C 
ENDBRANCH  19  21
ENDBRANCH  14  19
ENDBRANCH  13  16
ENDBRANCH   1  13
TORSDOF 6
ENDMDL
MODEL 9
REMARK VINA RESULT:      -6.6      1.353      1.543
REMARK  Name = 
REMARK  8 active torsions:
REMARK  status: ('A' for Active; 'I' for Inactive)
REMARK    1  A    between atoms: C_1  and  C_2
REMARK    2  A    between atoms: C_2  and  C_3
REMARK    3  A    between atoms: C_3  and  C_4
REMARK    4  A    between atoms: C_6  and  C_7
REMARK    5  A    between atoms: C_7  and  N_8
REMARK    6  A    between atoms: N_8  and  C_9
REMARK    7  A    between atoms: C_9  and  C_10
REMARK    8  A    between atoms: C_11  and  C_13
REMARK                            x       y       z     vdW  Elec       q    Type
REMARK                         _______ _______ _______ _____ _____    ______ ____
ROOT
ATOM      1  N   UNL     1       5.168   5.976  17.985  0.00  0.00    +0.000 N 
ATOM      2  C   UNL     1       4.979   5.030  19.016  0.00  0.00    +0.000 C 
ATOM      3  O   UNL     1       5.916   4.447  19.580  0.00  0.00    +0.000 OA
ENDROOT
BRANCH   2   4
ATOM      4  C   UNL     1       3.510   4.652  19.358  0.00  0.00    +0.000 C 
ATOM      5  C   UNL     1       2.792   5.547  20.354  0.00  0.00    +0.000 C 
ATOM      6  C   UNL     1       1.554   4.705  20.675  0.00  0.00    +0.000 C 
ATOM      7  C   UNL     1       2.100   3.299  20.602  0.00  0.00    +0.000 C 
ATOM      8  O   UNL     1       1.543   2.283  20.980  0.00  0.00    +0.000 OA
ATOM      9  N   UNL     1       3.319   3.356  19.957  0.00  0.00    +0.000 N 
ATOM     10  H   UNL     1       3.833   2.522  19.705  0.00  0.00    +0.000 HD
ENDBRANCH   2   4
BRANCH   1  11
ATOM     11  C   UNL     1       4.009   6.487  17.246  0.00  0.00    +0.000 C 
ATOM     12  C   UNL     1       3.352   7.802  17.607  0.00  0.00    +0.000 C 
ENDBRANCH   1  11
BRANCH   1  13
ATOM     13  C   UNL     1       6.506   5.962  17.366  0.00  0.00    +0.000 C 
BRANCH  13  16
ATOM     14  C   UNL     1       6.879   4.487  14.206  0.00  0.00    +0.000 A 
ATOM     15  N   UNL     1       7.235   5.436  15.039  0.00  0.00    +0.000 NA
ATOM     16  C   UNL     1       6.668   5.021  16.222  0.00  0.00    +0.000 A 
ATOM     17  N   UNL     1       6.046   3.829  16.148  0.00  0.00    +0.000 NA
ATOM     18  O   UNL     1       6.188   3.472  14.801  0.00  0.00    +0.000 OA
BRANCH  14  19
ATOM     19  C   UNL     1       7.015   4.461  12.730  0.00  0.00    +0.000 C 
BRANCH  19  21
ATOM     20  C   UNL     1       6.912   2.218  11.499  0.00  0.00    +0.000 C 
ATOM     21  C   UNL     1       6.130   3.389  12.086  0.00  0.00    +0.000 C 
ENDBRANCH  19  21
ENDBRANCH  14  19
ENDBRANCH  13  16
ENDBRANCH   1  13
TORSDOF 6
ENDMDL
