MODEL 1
REMARK VINA RESULT:      -8.0      0.000      0.000
REMARK  Name = 
REMARK  2 active torsions:
REMARK  status: ('A' for Active; 'I' for Inactive)
REMARK    1  A    between atoms: C_5  and  C_6
REMARK    2  A    between atoms: N_10  and  C_11
REMARK                            x       y       z     vdW  Elec       q    Type
REMARK                         _______ _______ _______ _____ _____    ______ ____
ROOT
ATOM      1  C   UNL     1       2.997   6.959  18.134  0.00  0.00    +0.000 A 
ATOM      2  C   UNL     1       3.820   7.274  17.058  0.00  0.00    +0.000 A 
ATOM      3  N   UNL     1       4.593   6.176  16.796  0.00  0.00    +0.000 N 
ATOM      4  C   UNL     1       4.209   5.185  17.578  0.00  0.00    +0.000 A 
ATOM      5  N   UNL     1       3.242   5.576  18.409  0.00  0.00    +0.000 N 
ATOM      6  S   UNL     1       4.999   3.668  17.246  0.00  0.00    +0.000 S 
ATOM      7  C   UNL     1       6.021   4.426  15.923  0.00  0.00    +0.000 C 
ATOM      8  C   UNL     1       5.637   5.913  15.824  0.00  0.00    +0.000 C 
ENDROOT
BRANCH   1  13
ATOM      9 BR   UNL     1      -0.586  11.106  21.011  0.00  0.00    +0.000 Br
ATOM     10  C   UNL     1       0.521   9.848  20.137  0.00  0.00    +0.000 A 
ATOM     11  C   UNL     1       0.796   9.993  18.779  0.00  0.00    +0.000 A 
ATOM     12  C   UNL     1       1.610   9.061  18.129  0.00  0.00    +0.000 A 
ATOM     13  C   UNL     1       2.135   7.970  18.840  0.00  0.00    +0.000 A 
ATOM     14  C   UNL     1       1.874   7.845  20.209  0.00  0.00    +0.000 A 
ATOM     15  C   UNL     1       1.060   8.781  20.853  0.00  0.00    +0.000 A 
ENDBRANCH   1  13
BRANCH   5  16
ATOM     16  C   UNL     1       2.470   4.673  19.271  0.00  0.00    +0.000 A 
ATOM     17  C   UNL     1       2.778   4.570  20.628  0.00  0.00    +0.000 A 
ATOM     18  C   UNL     1       2.076   3.661  21.425  0.00  0.00    +0.000 A 
ATOM     19  C   UNL     1       1.052   2.894  20.873  0.00  0.00    +0.000 A 
ATOM     20  C   UNL     1       0.734   3.028  19.524  0.00  0.00    +0.000 A 
ATOM     21  C   UNL     1       1.456   3.906  18.715  0.00  0.00    +0.000 A 
ENDBRANCH   5  16
TORSDOF 2
ENDMDL
MODEL 2
REMARK VINA RESULT:      -7.9      0.025      1.056
REMARK  Name = 
REMARK  2 active torsions:
REMARK  status: ('A' for Active; 'I' for Inactive)
REMARK    1  A    between atoms: C_5  and  C_6
REMARK    2  A    between atoms: N_10  and  C_11
REMARK                            x       y       z     vdW  Elec       q    Type
REMARK                         _______ _______ _______ _____ _____    ______ ____
ROOT
ATOM      1  C   UNL     1       3.008   6.959  18.134  0.00  0.00    +0.000 A 
ATOM      2  C   UNL     1       3.835   7.275  17.062  0.00  0.00    +0.000 A 
ATOM      3  N   UNL     1       4.608   6.176  16.801  0.00  0.00    +0.000 N 
ATOM      4  C   UNL     1       4.221   5.185  17.581  0.00  0.00    +0.000 A 
ATOM      5  N   UNL     1       3.252   5.576  18.408  0.00  0.00    +0.000 N 
ATOM      6  S   UNL     1       5.012   3.667  17.250  0.00  0.00    +0.000 S 
ATOM      7  C   UNL     1       6.039   4.426  15.932  0.00  0.00    +0.000 C 
ATOM      8  C   UNL     1       5.656   5.913  15.832  0.00  0.00    +0.000 C 
ENDROOT
BRANCH   1  13
ATOM      9 BR   UNL     1      -0.514  11.128  21.053  0.00  0.00    +0.000 Br
ATOM     10  C   UNL     1       0.548   9.848  20.158  0.00  0.00    +0.000 A 
ATOM     11  C   UNL     1       1.074   8.768  20.864  0.00  0.00    +0.000 A 
ATOM     12  C   UNL     1       1.865   7.823  20.205  0.00  0.00    +0.000 A 
ATOM     13  C   UNL     1       2.144   7.970  18.837  0.00  0.00    +0.000 A 
ATOM     14  C   UNL     1       1.591   9.043  18.130  0.00  0.00    +0.000 A 
ATOM     15  C   UNL     1       0.801   9.985  18.794  0.00  0.00    +0.000 A 
ENDBRANCH   1  13
BRANCH   5  16
ATOM     16  C   UNL     1       2.475   4.673  19.267  0.00  0.00    +0.000 A 
ATOM     17  C   UNL     1       2.779   4.568  20.624  0.00  0.00    +0.000 A 
ATOM     18  C   UNL     1       2.074   3.658  21.418  0.00  0.00    +0.000 A 
ATOM     19  C   UNL     1       1.051   2.893  20.862  0.00  0.00    +0.000 A 
ATOM     20  C   UNL     1       0.738   3.028  19.513  0.00  0.00    +0.000 A 
ATOM     21  C   UNL     1       1.463   3.907  18.706  0.00  0.00    +0.000 A 
ENDBRANCH   5  16
TORSDOF 2
ENDMDL
MODEL 3
REMARK VINA RESULT:      -7.9      0.078      1.056
REMARK  Name = 
REMARK  2 active torsions:
REMARK  status: ('A' for Active; 'I' for Inactive)
REMARK    1  A    between atoms: C_5  and  C_6
REMARK    2  A    between atoms: N_10  and  C_11
REMARK                            x       y       z     vdW  Elec       q    Type
REMARK                         _______ _______ _______ _____ _____    ______ ____
ROOT
ATOM      1  C   UNL     1       3.027   6.910  18.125  0.00  0.00    +0.000 A 
ATOM      2  C   UNL     1       3.835   7.241  17.044  0.00  0.00    +0.000 A 
ATOM      3  N   UNL     1       4.611   6.150  16.760  0.00  0.00    +0.000 N 
ATOM      4  C   UNL     1       4.242   5.149  17.537  0.00  0.00    +0.000 A 
ATOM      5  N   UNL     1       3.283   5.525  18.382  0.00  0.00    +0.000 N 
ATOM      6  S   UNL     1       5.038   3.640  17.179  0.00  0.00    +0.000 S 
ATOM      7  C   UNL     1       6.040   4.418  15.853  0.00  0.00    +0.000 C 
ATOM      8  C   UNL     1       5.646   5.903  15.774  0.00  0.00    +0.000 C 
ENDROOT
BRANCH   1  13
ATOM      9 BR   UNL     1      -0.547  11.005  21.086  0.00  0.00    +0.000 Br
ATOM     10  C   UNL     1       0.556   9.763  20.186  0.00  0.00    +0.000 A 
ATOM     11  C   UNL     1       0.836   9.937  18.833  0.00  0.00    +0.000 A 
ATOM     12  C   UNL     1       1.647   9.016  18.164  0.00  0.00    +0.000 A 
ATOM     13  C   UNL     1       2.166   7.908  18.851  0.00  0.00    +0.000 A 
ATOM     14  C   UNL     1       1.902   7.753  20.216  0.00  0.00    +0.000 A 
ATOM     15  C   UNL     1       1.090   8.678  20.879  0.00  0.00    +0.000 A 
ENDBRANCH   1  13
BRANCH   5  16
ATOM     16  C   UNL     1       2.526   4.609  19.243  0.00  0.00    +0.000 A 
ATOM     17  C   UNL     1       1.466   3.871  18.716  0.00  0.00    +0.000 A 
ATOM     18  C   UNL     1       0.713   3.049  19.560  0.00  0.00    +0.000 A 
ATOM     19  C   UNL     1       1.047   2.941  20.908  0.00  0.00    +0.000 A 
ATOM     20  C   UNL     1       2.124   3.660  21.417  0.00  0.00    +0.000 A 
ATOM     21  C   UNL     1       2.856   4.511  20.587  0.00  0.00    +0.000 A 
ENDBRANCH   5  16
TORSDOF 2
ENDMDL
MODEL 4
REMARK VINA RESULT:      -7.9      0.089      1.494
REMARK  Name = 
REMARK  2 active torsions:
REMARK  status: ('A' for Active; 'I' for Inactive)
REMARK    1  A    between atoms: C_5  and  C_6
REMARK    2  A    between atoms: N_10  and  C_11
REMARK                            x       y       z     vdW  Elec       q    Type
REMARK                         _______ _______ _______ _____ _____    ______ ____
ROOT
ATOM      1  C   UNL     1       3.039   6.915  18.115  0.00  0.00    +0.000 A 
ATOM      2  C   UNL     1       3.853   7.247  17.038  0.00  0.00    +0.000 A 
ATOM      3  N   UNL     1       4.628   6.155  16.755  0.00  0.00    +0.000 N 
ATOM      4  C   UNL     1       4.253   5.152  17.527  0.00  0.00    +0.000 A 
ATOM      5  N   UNL     1       3.290   5.528  18.369  0.00  0.00    +0.000 N 
ATOM      6  S   UNL     1       5.045   3.642  17.168  0.00  0.00    +0.000 S 
ATOM      7  C   UNL     1       6.056   4.421  15.849  0.00  0.00    +0.000 C 
ATOM      8  C   UNL     1       5.666   5.908  15.773  0.00  0.00    +0.000 C 
ENDROOT
BRANCH   1  13
ATOM      9 BR   UNL     1      -0.467  11.031  21.126  0.00  0.00    +0.000 Br
ATOM     10  C   UNL     1       0.590   9.767  20.202  0.00  0.00    +0.000 A 
ATOM     11  C   UNL     1       1.110   8.669  20.884  0.00  0.00    +0.000 A 
ATOM     12  C   UNL     1       1.898   7.736  20.205  0.00  0.00    +0.000 A 
ATOM     13  C   UNL     1       2.178   7.913  18.841  0.00  0.00    +0.000 A 
ATOM     14  C   UNL     1       1.631   9.004  18.158  0.00  0.00    +0.000 A 
ATOM     15  C   UNL     1       0.844   9.934  18.842  0.00  0.00    +0.000 A 
ENDBRANCH   1  13
BRANCH   5  16
ATOM     16  C   UNL     1       2.527   4.611  19.224  0.00  0.00    +0.000 A 
ATOM     17  C   UNL     1       1.467   3.878  18.689  0.00  0.00    +0.000 A 
ATOM     18  C   UNL     1       0.708   3.055  19.527  0.00  0.00    +0.000 A 
ATOM     19  C   UNL     1       1.035   2.943  20.877  0.00  0.00    +0.000 A 
ATOM     20  C   UNL     1       2.112   3.657  21.392  0.00  0.00    +0.000 A 
ATOM     21  C   UNL     1       2.850   4.509  20.569  0.00  0.00    +0.000 A 
ENDBRANCH   5  16
TORSDOF 2
ENDMDL
MODEL 5
REMARK VINA RESULT:      -7.0      1.831      4.040
REMARK  Name = 
REMARK  2 active torsions:
REMARK  status: ('A' for Active; 'I' for Inactive)
REMARK    1  A    between atoms: C_5  and  C_6
REMARK    2  A    between atoms: N_10  and  C_11
REMARK                            x       y       z     vdW  Elec       q    Type
REMARK                         _______ _______ _______ _____ _____    ______ ____
ROOT
ATOM      1  C   UNL     1       2.530   5.816  18.933  0.00  0.00    +0.000 A 
ATOM      2  C   UNL     1       1.635   4.790  19.216  0.00  0.00    +0.000 A 
ATOM      3  N   UNL     1       2.242   3.610  18.880  0.00  0.00    +0.000 N 
ATOM      4  C   UNL     1       3.486   3.858  18.513  0.00  0.00    +0.000 A 
ATOM      5  N   UNL     1       3.739   5.166  18.529  0.00  0.00    +0.000 N 
ATOM      6  S   UNL     1       4.435   2.429  18.208  0.00  0.00    +0.000 S 
ATOM      7  C   UNL     1       3.004   1.334  18.558  0.00  0.00    +0.000 C 
ATOM      8  C   UNL     1       1.806   2.227  18.924  0.00  0.00    +0.000 C 
ENDROOT
BRANCH   1  13
ATOM      9 BR   UNL     1       0.983  11.805  19.142  0.00  0.00    +0.000 Br
ATOM     10  C   UNL     1       1.470   9.981  19.083  0.00  0.00    +0.000 A 
ATOM     11  C   UNL     1       1.914   9.420  17.888  0.00  0.00    +0.000 A 
ATOM     12  C   UNL     1       2.269   8.070  17.840  0.00  0.00    +0.000 A 
ATOM     13  C   UNL     1       2.162   7.274  18.991  0.00  0.00    +0.000 A 
ATOM     14  C   UNL     1       1.740   7.850  20.194  0.00  0.00    +0.000 A 
ATOM     15  C   UNL     1       1.387   9.202  20.236  0.00  0.00    +0.000 A 
ENDBRANCH   1  13
BRANCH   5  16
ATOM     16  C   UNL     1       5.072   5.758  18.359  0.00  0.00    +0.000 A 
ATOM     17  C   UNL     1       5.315   6.641  17.307  0.00  0.00    +0.000 A 
ATOM     18  C   UNL     1       6.605   7.149  17.119  0.00  0.00    +0.000 A 
ATOM     19  C   UNL     1       7.626   6.803  18.002  0.00  0.00    +0.000 A 
ATOM     20  C   UNL     1       7.364   5.944  19.065  0.00  0.00    +0.000 A 
ATOM     21  C   UNL     1       6.088   5.404  19.236  0.00  0.00    +0.000 A 
ENDBRANCH   5  16
TORSDOF 2
ENDMDL
MODEL 6
REMARK VINA RESULT:      -7.0      1.831      4.161
REMARK  Name = 
REMARK  2 active torsions:
REMARK  status: ('A' for Active; 'I' for Inactive)
REMARK    1  A    between atoms: C_5  and  C_6
REMARK    2  A    between atoms: N_10  and  C_11
REMARK                            x       y       z     vdW  Elec       q    Type
REMARK                         _______ _______ _______ _____ _____    ______ ____
ROOT
ATOM      1  C   UNL     1       2.533   5.819  18.945  0.00  0.00    +0.000 A 
ATOM      2  C   UNL     1       1.639   4.795  19.237  0.00  0.00    +0.000 A 
ATOM      3  N   UNL     1       2.245   3.612  18.906  0.00  0.00    +0.000 N 
ATOM      4  C   UNL     1       3.488   3.857  18.535  0.00  0.00    +0.000 A 
ATOM      5  N   UNL     1       3.742   5.166  18.541  0.00  0.00    +0.000 N 
ATOM      6  S   UNL     1       4.436   2.426  18.236  0.00  0.00    +0.000 S 
ATOM      7  C   UNL     1       3.006   1.334  18.597  0.00  0.00    +0.000 C 
ATOM      8  C   UNL     1       1.808   2.230  18.960  0.00  0.00    +0.000 C 
ENDROOT
BRANCH   1  13
ATOM      9 BR   UNL     1       1.056  11.824  19.177  0.00  0.00    +0.000 Br
ATOM     10  C   UNL     1       1.492   9.988  19.101  0.00  0.00    +0.000 A 
ATOM     11  C   UNL     1       1.384   9.202  20.246  0.00  0.00    +0.000 A 
ATOM     12  C   UNL     1       1.712   7.845  20.195  0.00  0.00    +0.000 A 
ATOM     13  C   UNL     1       2.166   7.277  18.994  0.00  0.00    +0.000 A 
ATOM     14  C   UNL     1       2.247   8.066  17.842  0.00  0.00    +0.000 A 
ATOM     15  C   UNL     1       1.918   9.423  17.900  0.00  0.00    +0.000 A 
ENDBRANCH   1  13
BRANCH   5  16
ATOM     16  C   UNL     1       5.074   5.756  18.364  0.00  0.00    +0.000 A 
ATOM     17  C   UNL     1       5.312   6.638  17.310  0.00  0.00    +0.000 A 
ATOM     18  C   UNL     1       6.601   7.144  17.116  0.00  0.00    +0.000 A 
ATOM     19  C   UNL     1       7.627   6.798  17.993  0.00  0.00    +0.000 A 
ATOM     20  C   UNL     1       7.370   5.941  19.058  0.00  0.00    +0.000 A 
ATOM     21  C   UNL     1       6.094   5.402  19.236  0.00  0.00    +0.000 A 
ENDBRANCH   5  16
TORSDOF 2
ENDMDL
MODEL 7
REMARK VINA RESULT:      -7.0      3.517      5.830
REMARK  Name = 
REMARK  2 active torsions:
REMARK  status: ('A' for Active; 'I' for Inactive)
REMARK    1  A    between atoms: C_5  and  C_6
REMARK    2  A    between atoms: N_10  and  C_11
REMARK                            x       y       z     vdW  Elec       q    Type
REMARK                         _______ _______ _______ _____ _____    ______ ____
ROOT
ATOM      1  C   UNL     1       5.067   4.082  15.960  0.00  0.00    +0.000 A 
ATOM      2  C   UNL     1       4.941   3.393  14.760  0.00  0.00    +0.000 A 
ATOM      3  N   UNL     1       5.864   3.907  13.890  0.00  0.00    +0.000 N 
ATOM      4  C   UNL     1       6.609   4.789  14.529  0.00  0.00    +0.000 A 
ATOM      5  N   UNL     1       6.197   4.944  15.788  0.00  0.00    +0.000 N 
ATOM      6  S   UNL     1       7.937   5.414  13.590  0.00  0.00    +0.000 S 
ATOM      7  C   UNL     1       7.438   4.428  12.124  0.00  0.00    +0.000 C 
ATOM      8  C   UNL     1       6.187   3.616  12.506  0.00  0.00    +0.000 C 
ENDROOT
BRANCH   1  13
ATOM      9 BR   UNL     1       1.129   3.461  20.694  0.00  0.00    +0.000 Br
ATOM     10  C   UNL     1       2.319   3.649  19.239  0.00  0.00    +0.000 A 
ATOM     11  C   UNL     1       2.995   2.534  18.748  0.00  0.00    +0.000 A 
ATOM     12  C   UNL     1       3.880   2.671  17.676  0.00  0.00    +0.000 A 
ATOM     13  C   UNL     1       4.102   3.934  17.104  0.00  0.00    +0.000 A 
ATOM     14  C   UNL     1       3.400   5.044  17.586  0.00  0.00    +0.000 A 
ATOM     15  C   UNL     1       2.516   4.901  18.659  0.00  0.00    +0.000 A 
ENDBRANCH   1  13
BRANCH   5  16
ATOM     16  C   UNL     1       6.922   5.703  16.814  0.00  0.00    +0.000 A 
ATOM     17  C   UNL     1       7.439   5.048  17.932  0.00  0.00    +0.000 A 
ATOM     18  C   UNL     1       8.072   5.791  18.933  0.00  0.00    +0.000 A 
ATOM     19  C   UNL     1       8.218   7.169  18.791  0.00  0.00    +0.000 A 
ATOM     20  C   UNL     1       7.725   7.808  17.657  0.00  0.00    +0.000 A 
ATOM     21  C   UNL     1       7.057   7.076  16.673  0.00  0.00    +0.000 A 
ENDBRANCH   5  16
TORSDOF 2
ENDMDL
MODEL 8
REMARK VINA RESULT:      -6.9      1.821      4.081
REMARK  Name = 
REMARK  2 active torsions:
REMARK  status: ('A' for Active; 'I' for Inactive)
REMARK    1  A    between atoms: C_5  and  C_6
REMARK    2  A    between atoms: N_10  and  C_11
REMARK                            x       y       z     vdW  Elec       q    Type
REMARK                         _______ _______ _______ _____ _____    ______ ____
ROOT
ATOM      1  C   UNL     1       2.519   5.808  18.964  0.00  0.00    +0.000 A 
ATOM      2  C   UNL     1       1.614   4.803  19.290  0.00  0.00    +0.000 A 
ATOM      3  N   UNL     1       2.194   3.606  18.967  0.00  0.00    +0.000 N 
ATOM      4  C   UNL     1       3.433   3.825  18.568  0.00  0.00    +0.000 A 
ATOM      5  N   UNL     1       3.708   5.129  18.549  0.00  0.00    +0.000 N 
ATOM      6  S   UNL     1       4.353   2.374  18.274  0.00  0.00    +0.000 S 
ATOM      7  C   UNL     1       2.912   1.311  18.680  0.00  0.00    +0.000 C 
ATOM      8  C   UNL     1       1.737   2.232  19.052  0.00  0.00    +0.000 C 
ENDROOT
BRANCH   1  13
ATOM      9 BR   UNL     1       1.141  11.839  19.130  0.00  0.00    +0.000 Br
ATOM     10  C   UNL     1       1.547   9.995  19.074  0.00  0.00    +0.000 A 
ATOM     11  C   UNL     1       1.410   9.221  20.224  0.00  0.00    +0.000 A 
ATOM     12  C   UNL     1       1.715   7.857  20.187  0.00  0.00    +0.000 A 
ATOM     13  C   UNL     1       2.176   7.272  18.997  0.00  0.00    +0.000 A 
ATOM     14  C   UNL     1       2.286   8.051  17.841  0.00  0.00    +0.000 A 
ATOM     15  C   UNL     1       1.979   9.414  17.884  0.00  0.00    +0.000 A 
ENDBRANCH   1  13
BRANCH   5  16
ATOM     16  C   UNL     1       5.046   5.694  18.337  0.00  0.00    +0.000 A 
ATOM     17  C   UNL     1       6.086   5.372  19.209  0.00  0.00    +0.000 A 
ATOM     18  C   UNL     1       7.340   5.966  19.034  0.00  0.00    +0.000 A 
ATOM     19  C   UNL     1       7.554   6.842  17.971  0.00  0.00    +0.000 A 
ATOM     20  C   UNL     1       6.517   7.133  17.091  0.00  0.00    +0.000 A 
ATOM     21  C   UNL     1       5.253   6.573  17.283  0.00  0.00    +0.000 A 
ENDBRANCH   5  16
TORSDOF 2
ENDMDL
MODEL 9
REMARK VINA RESULT:      -6.9      3.495      5.759
REMARK  Name = 
REMARK  2 active torsions:
REMARK  status: ('A' for Active; 'I' for Inactive)
REMARK    1  A    between atoms: C_5  and  C_6
REMARK    2  A    between atoms: N_10  and  C_11
REMARK                            x       y       z     vdW  Elec       q    Type
REMARK                         _______ _______ _______ _____ _____    ______ ____
ROOT
ATOM      1  C   UNL     1       5.065   4.092  15.976  0.00  0.00    +0.000 A 
ATOM      2  C   UNL     1       4.935   3.406  14.773  0.00  0.00    +0.000 A 
ATOM      3  N   UNL     1       5.862   3.917  13.905  0.00  0.00    +0.000 N 
ATOM      4  C   UNL     1       6.612   4.794  14.547  0.00  0.00    +0.000 A 
ATOM      5  N   UNL     1       6.200   4.947  15.806  0.00  0.00    +0.000 N 
ATOM      6  S   UNL     1       7.944   5.413  13.609  0.00  0.00    +0.000 S 
ATOM      7  C   UNL     1       7.439   4.433  12.141  0.00  0.00    +0.000 C 
ATOM      8  C   UNL     1       6.183   3.628  12.521  0.00  0.00    +0.000 C 
ENDROOT
BRANCH   1  13
ATOM      9 BR   UNL     1       1.054   3.508  20.653  0.00  0.00    +0.000 Br
ATOM     10  C   UNL     1       2.290   3.689  19.236  0.00  0.00    +0.000 A 
ATOM     11  C   UNL     1       2.490   4.934  18.645  0.00  0.00    +0.000 A 
ATOM     12  C   UNL     1       3.399   5.069  17.592  0.00  0.00    +0.000 A 
ATOM     13  C   UNL     1       4.098   3.947  17.119  0.00  0.00    +0.000 A 
ATOM     14  C   UNL     1       3.911   2.705  17.735  0.00  0.00    +0.000 A 
ATOM     15  C   UNL     1       3.001   2.577  18.787  0.00  0.00    +0.000 A 
ENDBRANCH   1  13
BRANCH   5  16
ATOM     16  C   UNL     1       6.929   5.700  16.834  0.00  0.00    +0.000 A 
ATOM     17  C   UNL     1       7.446   5.038  17.948  0.00  0.00    +0.000 A 
ATOM     18  C   UNL     1       8.084   5.775  18.951  0.00  0.00    +0.000 A 
ATOM     19  C   UNL     1       8.234   7.153  18.815  0.00  0.00    +0.000 A 
ATOM     20  C   UNL     1       7.740   7.798  17.685  0.00  0.00    +0.000 A 
ATOM     21  C   UNL     1       7.069   7.073  16.699  0.00  0.00    +0.000 A 
ENDBRANCH   5  16
TORSDOF 2
ENDMDL
