MODEL 1
REMARK VINA RESULT:      -7.0      0.000      0.000
REMARK  Name = 
REMARK  17 active torsions:
REMARK  status: ('A' for Active; 'I' for Inactive)
REMARK    1  A    between atoms: C_1  and  C_2
REMARK    2  A    between atoms: C_2  and  C_3
REMARK    3  A    between atoms: C_3  and  C_4
REMARK    4  A    between atoms: C_4  and  C_5
REMARK    5  A    between atoms: C_5  and  C_6
REMARK    6  A    between atoms: C_7  and  C_8
REMARK    7  A    between atoms: C_8  and  C_9
REMARK    8  A    between atoms: C_10  and  C_11
REMARK    9  A    between atoms: C_11  and  C_12
REMARK   10  A    between atoms: C_13  and  C_14
REMARK   11  A    between atoms: C_14  and  C_15
REMARK   12  A    between atoms: C_16  and  C_17
REMARK   13  A    between atoms: C_17  and  C_18
REMARK   14  A    between atoms: C_18  and  C_19
REMARK   15  A    between atoms: C_19  and  C_20
REMARK   16  A    between atoms: N_22  and  C_23
REMARK   17  A    between atoms: C_26  and  N_27
REMARK                            x       y       z     vdW  Elec       q    Type
REMARK                         _______ _______ _______ _____ _____    ______ ____
ROOT
ATOM      1  C   UNL     1       1.593   2.431  20.242  0.00  0.00    +0.000 C 
ENDROOT
BRANCH   1   2
ATOM      2  C   UNL     1       1.470   2.607  18.746  0.00  0.00    +0.000 C 
BRANCH   2   4
ATOM      3  C   UNL     1       3.733   2.477  17.678  0.00  0.00    +0.000 C 
ATOM      4  C   UNL     1       2.599   1.890  18.077  0.00  0.00    +0.000 C 
BRANCH   3   5
ATOM      5  C   UNL     1       4.080   3.932  17.815  0.00  0.00    +0.000 C 
BRANCH   5   7
ATOM      6  C   UNL     1       5.847   5.337  19.000  0.00  0.00    +0.000 C 
ATOM      7  C   UNL     1       5.099   4.226  18.883  0.00  0.00    +0.000 C 
BRANCH   6   8
ATOM      8  C   UNL     1       5.932   6.444  17.993  0.00  0.00    +0.000 C 
BRANCH   8  10
ATOM      9  C   UNL     1       7.224   5.977  15.905  0.00  0.00    +0.000 C 
ATOM     10  C   UNL     1       7.187   6.446  17.167  0.00  0.00    +0.000 C 
BRANCH   9  11
ATOM     11  C   UNL     1       6.024   5.388  15.211  0.00  0.00    +0.000 C 
BRANCH  11  13
ATOM     12  C   UNL     1       6.025   3.193  13.968  0.00  0.00    +0.000 C 
ATOM     13  C   UNL     1       6.054   3.889  15.118  0.00  0.00    +0.000 C 
BRANCH  12  14
ATOM     14  C   UNL     1       5.911   3.844  12.622  0.00  0.00    +0.000 C 
BRANCH  14  15
ATOM     15  C   UNL     1       5.614   2.855  11.499  0.00  0.00    +0.000 C 
BRANCH  15  16
ATOM     16  C   UNL     1       4.107   2.794  11.240  0.00  0.00    +0.000 C 
BRANCH  16  18
ATOM     17  C   UNL     1       2.952   4.047   9.395  0.00  0.00    +0.000 C 
ATOM     18  C   UNL     1       3.566   4.144  10.782  0.00  0.00    +0.000 C 
ENDBRANCH  16  18
ENDBRANCH  15  16
ENDBRANCH  14  15
ENDBRANCH  12  14
ENDBRANCH  11  13
ENDBRANCH   9  11
ENDBRANCH   8  10
ENDBRANCH   6   8
ENDBRANCH   5   7
ENDBRANCH   3   5
ENDBRANCH   2   4
ENDBRANCH   1   2
BRANCH   1  19
ATOM     19  C   UNL     1       2.342   3.581  20.903  0.00  0.00    +0.000 C 
BRANCH  19  20
ATOM     20  C   UNL     1       1.566   4.850  20.633  0.00  0.00    +0.000 C 
ATOM     21  O   UNL     1       0.342   4.831  20.556  0.00  0.00    +0.000 OA
ATOM     22  N   UNL     1       2.365   5.959  20.482  0.00  0.00    +0.000 N 
ATOM     23  H   UNL     1       3.361   5.829  20.342  0.00  0.00    +0.000 HD
BRANCH  22  24
ATOM     24  C   UNL     1       1.866   7.274  20.322  0.00  0.00    +0.000 A 
ATOM     25  C   UNL     1       1.994   7.975  19.123  0.00  0.00    +0.000 A 
ATOM     26  C   UNL     1       1.512   9.275  18.998  0.00  0.00    +0.000 A 
ATOM     27  C   UNL     1       0.872   9.920  20.053  0.00  0.00    +0.000 A 
ATOM     28  C   UNL     1       0.747   9.200  21.254  0.00  0.00    +0.000 A 
ATOM     29  C   UNL     1       1.218   7.885  21.388  0.00  0.00    +0.000 A 
BRANCH  27  30
ATOM     30  N   UNL     1       0.342  11.187  19.936  0.00  0.00    +0.000 N 
ATOM     31  C   UNL     1       0.208  11.847  18.625  0.00  0.00    +0.000 C 
ATOM     32  C   UNL     1       1.224  12.985  18.464  0.00  0.00    +0.000 C 
ATOM     33  O   UNL     1       1.136  13.918  19.552  0.00  0.00    +0.000 OA
ATOM     34  C   UNL     1       1.419  13.250  20.793  0.00  0.00    +0.000 C 
ATOM     35  C   UNL     1       0.420  12.114  21.078  0.00  0.00    +0.000 C 
ENDBRANCH  27  30
ENDBRANCH  22  24
ENDBRANCH  19  20
ENDBRANCH   1  19
TORSDOF 16
ENDMDL
MODEL 2
REMARK VINA RESULT:      -6.9      1.966      2.971
REMARK  Name = 
REMARK  17 active torsions:
REMARK  status: ('A' for Active; 'I' for Inactive)
REMARK    1  A    between atoms: C_1  and  C_2
REMARK    2  A    between atoms: C_2  and  C_3
REMARK    3  A    between atoms: C_3  and  C_4
REMARK    4  A    between atoms: C_4  and  C_5
REMARK    5  A    between atoms: C_5  and  C_6
REMARK    6  A    between atoms: C_7  and  C_8
REMARK    7  A    between atoms: C_8  and  C_9
REMARK    8  A    between atoms: C_10  and  C_11
REMARK    9  A    between atoms: C_11  and  C_12
REMARK   10  A    between atoms: C_13  and  C_14
REMARK   11  A    between atoms: C_14  and  C_15
REMARK   12  A    between atoms: C_16  and  C_17
REMARK   13  A    between atoms: C_17  and  C_18
REMARK   14  A    between atoms: C_18  and  C_19
REMARK   15  A    between atoms: C_19  and  C_20
REMARK   16  A    between atoms: N_22  and  C_23
REMARK   17  A    between atoms: C_26  and  N_27
REMARK                            x       y       z     vdW  Elec       q    Type
REMARK                         _______ _______ _______ _____ _____    ______ ____
ROOT
ATOM      1  C   UNL     1       1.702   5.238  19.488  0.00  0.00    +0.000 C 
ENDROOT
BRANCH   1   2
ATOM      2  C   UNL     1       1.848   4.638  18.108  0.00  0.00    +0.000 C 
BRANCH   2   4
ATOM      3  C   UNL     1       1.917   2.134  18.102  0.00  0.00    +0.000 C 
ATOM      4  C   UNL     1       1.225   3.279  18.099  0.00  0.00    +0.000 C 
BRANCH   3   5
ATOM      5  C   UNL     1       3.412   1.995  18.108  0.00  0.00    +0.000 C 
BRANCH   5   7
ATOM      6  C   UNL     1       4.892   3.351  19.678  0.00  0.00    +0.000 C 
ATOM      7  C   UNL     1       4.057   2.328  19.426  0.00  0.00    +0.000 C 
BRANCH   6   8
ATOM      8  C   UNL     1       5.477   4.277  18.655  0.00  0.00    +0.000 C 
BRANCH   8  10
ATOM      9  C   UNL     1       7.188   6.084  18.415  0.00  0.00    +0.000 C 
ATOM     10  C   UNL     1       6.428   5.302  19.205  0.00  0.00    +0.000 C 
BRANCH   9  11
ATOM     11  C   UNL     1       7.176   5.991  16.911  0.00  0.00    +0.000 C 
BRANCH  11  13
ATOM     12  C   UNL     1       5.310   5.639  15.250  0.00  0.00    +0.000 C 
ATOM     13  C   UNL     1       5.840   6.297  16.296  0.00  0.00    +0.000 C 
BRANCH  12  14
ATOM     14  C   UNL     1       6.025   4.532  14.534  0.00  0.00    +0.000 C 
BRANCH  14  15
ATOM     15  C   UNL     1       5.373   4.153  13.209  0.00  0.00    +0.000 C 
BRANCH  15  16
ATOM     16  C   UNL     1       6.353   3.345  12.355  0.00  0.00    +0.000 C 
BRANCH  16  18
ATOM     17  C   UNL     1       6.658   1.269  10.976  0.00  0.00    +0.000 C 
ATOM     18  C   UNL     1       5.654   2.187  11.652  0.00  0.00    +0.000 C 
ENDBRANCH  16  18
ENDBRANCH  15  16
ENDBRANCH  14  15
ENDBRANCH  12  14
ENDBRANCH  11  13
ENDBRANCH   9  11
ENDBRANCH   8  10
ENDBRANCH   6   8
ENDBRANCH   5   7
ENDBRANCH   3   5
ENDBRANCH   2   4
ENDBRANCH   1   2
BRANCH   1  19
ATOM     19  C   UNL     1       2.734   6.325  19.761  0.00  0.00    +0.000 C 
BRANCH  19  20
ATOM     20  C   UNL     1       2.005   7.647  19.814  0.00  0.00    +0.000 C 
ATOM     21  O   UNL     1       1.900   8.345  18.811  0.00  0.00    +0.000 OA
ATOM     22  N   UNL     1       1.515   7.953  21.063  0.00  0.00    +0.000 N 
ATOM     23  H   UNL     1       1.847   7.424  21.861  0.00  0.00    +0.000 HD
BRANCH  22  24
ATOM     24  C   UNL     1       0.713   9.087  21.339  0.00  0.00    +0.000 A 
ATOM     25  C   UNL     1       0.211   9.347  22.613  0.00  0.00    +0.000 A 
ATOM     26  C   UNL     1      -0.592  10.459  22.854  0.00  0.00    +0.000 A 
ATOM     27  C   UNL     1      -0.912  11.360  21.841  0.00  0.00    +0.000 A 
ATOM     28  C   UNL     1      -0.395  11.086  20.562  0.00  0.00    +0.000 A 
ATOM     29  C   UNL     1       0.425   9.976  20.311  0.00  0.00    +0.000 A 
BRANCH  27  30
ATOM     30  N   UNL     1      -1.663  12.494  22.067  0.00  0.00    +0.000 N 
ATOM     31  C   UNL     1      -2.253  13.261  20.956  0.00  0.00    +0.000 C 
ATOM     32  C   UNL     1      -1.528  14.596  20.749  0.00  0.00    +0.000 C 
ATOM     33  O   UNL     1      -1.480  15.356  21.967  0.00  0.00    +0.000 OA
ATOM     34  C   UNL     1      -0.766  14.621  22.974  0.00  0.00    +0.000 C 
ATOM     35  C   UNL     1      -1.442  13.276  23.296  0.00  0.00    +0.000 C 
ENDBRANCH  27  30
ENDBRANCH  22  24
ENDBRANCH  19  20
ENDBRANCH   1  19
TORSDOF 16
ENDMDL
MODEL 3
REMARK VINA RESULT:      -6.9      2.814      5.663
REMARK  Name = 
REMARK  17 active torsions:
REMARK  status: ('A' for Active; 'I' for Inactive)
REMARK    1  A    between atoms: C_1  and  C_2
REMARK    2  A    between atoms: C_2  and  C_3
REMARK    3  A    between atoms: C_3  and  C_4
REMARK    4  A    between atoms: C_4  and  C_5
REMARK    5  A    between atoms: C_5  and  C_6
REMARK    6  A    between atoms: C_7  and  C_8
REMARK    7  A    between atoms: C_8  and  C_9
REMARK    8  A    between atoms: C_10  and  C_11
REMARK    9  A    between atoms: C_11  and  C_12
REMARK   10  A    between atoms: C_13  and  C_14
REMARK   11  A    between atoms: C_14  and  C_15
REMARK   12  A    between atoms: C_16  and  C_17
REMARK   13  A    between atoms: C_17  and  C_18
REMARK   14  A    between atoms: C_18  and  C_19
REMARK   15  A    between atoms: C_19  and  C_20
REMARK   16  A    between atoms: N_22  and  C_23
REMARK   17  A    between atoms: C_26  and  N_27
REMARK                            x       y       z     vdW  Elec       q    Type
REMARK                         _______ _______ _______ _____ _____    ______ ____
ROOT
ATOM      1  C   UNL     1       1.580   8.096  18.000  0.00  0.00    +0.000 C 
ENDROOT
BRANCH   1   2
ATOM      2  C   UNL     1       2.549   7.139  18.654  0.00  0.00    +0.000 C 
BRANCH   2   4
ATOM      3  C   UNL     1       1.674   6.058  20.739  0.00  0.00    +0.000 C 
ATOM      4  C   UNL     1       2.267   7.087  20.121  0.00  0.00    +0.000 C 
BRANCH   3   5
ATOM      5  C   UNL     1       1.185   4.793  20.093  0.00  0.00    +0.000 C 
BRANCH   5   7
ATOM      6  C   UNL     1       2.068   2.481  20.701  0.00  0.00    +0.000 C 
ATOM      7  C   UNL     1       1.320   3.568  20.957  0.00  0.00    +0.000 C 
BRANCH   6   8
ATOM      8  C   UNL     1       2.796   2.200  19.421  0.00  0.00    +0.000 C 
BRANCH   8  10
ATOM      9  C   UNL     1       2.377   3.244  17.189  0.00  0.00    +0.000 C 
ATOM     10  C   UNL     1       1.983   2.417  18.176  0.00  0.00    +0.000 C 
BRANCH   9  11
ATOM     11  C   UNL     1       3.651   4.045  17.247  0.00  0.00    +0.000 C 
BRANCH  11  13
ATOM     12  C   UNL     1       5.758   4.006  15.861  0.00  0.00    +0.000 C 
ATOM     13  C   UNL     1       4.820   3.372  16.586  0.00  0.00    +0.000 C 
BRANCH  12  14
ATOM     14  C   UNL     1       5.721   5.480  15.585  0.00  0.00    +0.000 C 
BRANCH  14  15
ATOM     15  C   UNL     1       6.978   6.209  16.046  0.00  0.00    +0.000 C 
BRANCH  15  16
ATOM     16  C   UNL     1       6.729   6.879  17.400  0.00  0.00    +0.000 C 
BRANCH  16  18
ATOM     17  C   UNL     1       6.461   5.355  19.376  0.00  0.00    +0.000 C 
ATOM     18  C   UNL     1       7.444   6.140  18.525  0.00  0.00    +0.000 C 
ENDBRANCH  16  18
ENDBRANCH  15  16
ENDBRANCH  14  15
ENDBRANCH  12  14
ENDBRANCH  11  13
ENDBRANCH   9  11
ENDBRANCH   8  10
ENDBRANCH   6   8
ENDBRANCH   5   7
ENDBRANCH   3   5
ENDBRANCH   2   4
ENDBRANCH   1   2
BRANCH   1  19
ATOM     19  C   UNL     1       2.226   9.432  17.654  0.00  0.00    +0.000 C 
BRANCH  19  20
ATOM     20  C   UNL     1       1.518  10.504  18.447  0.00  0.00    +0.000 C 
ATOM     21  O   UNL     1       1.949  11.652  18.472  0.00  0.00    +0.000 OA
ATOM     22  N   UNL     1       0.401  10.049  19.109  0.00  0.00    +0.000 N 
ATOM     23  H   UNL     1       0.262   9.049  19.203  0.00  0.00    +0.000 HD
BRANCH  22  24
ATOM     24  C   UNL     1      -0.482  10.886  19.834  0.00  0.00    +0.000 A 
ATOM     25  C   UNL     1      -1.509  11.595  19.213  0.00  0.00    +0.000 A 
ATOM     26  C   UNL     1      -2.351  12.426  19.947  0.00  0.00    +0.000 A 
ATOM     27  C   UNL     1      -2.213  12.570  21.326  0.00  0.00    +0.000 A 
ATOM     28  C   UNL     1      -1.175  11.846  21.938  0.00  0.00    +0.000 A 
ATOM     29  C   UNL     1      -0.328  10.996  21.211  0.00  0.00    +0.000 A 
BRANCH  27  30
ATOM     30  N   UNL     1      -3.066  13.348  22.079  0.00  0.00    +0.000 N 
ATOM     31  C   UNL     1      -2.612  14.600  22.709  0.00  0.00    +0.000 C 
ATOM     32  C   UNL     1      -2.489  14.449  24.231  0.00  0.00    +0.000 C 
ATOM     33  O   UNL     1      -3.712  13.964  24.806  0.00  0.00    +0.000 OA
ATOM     34  C   UNL     1      -4.031  12.673  24.262  0.00  0.00    +0.000 C 
ATOM     35  C   UNL     1      -4.227  12.722  22.736  0.00  0.00    +0.000 C 
ENDBRANCH  27  30
ENDBRANCH  22  24
ENDBRANCH  19  20
ENDBRANCH   1  19
TORSDOF 16
ENDMDL
MODEL 4
REMARK VINA RESULT:      -6.9      2.366      4.620
REMARK  Name = 
REMARK  17 active torsions:
REMARK  status: ('A' for Active; 'I' for Inactive)
REMARK    1  A    between atoms: C_1  and  C_2
REMARK    2  A    between atoms: C_2  and  C_3
REMARK    3  A    between atoms: C_3  and  C_4
REMARK    4  A    between atoms: C_4  and  C_5
REMARK    5  A    between atoms: C_5  and  C_6
REMARK    6  A    between atoms: C_7  and  C_8
REMARK    7  A    between atoms: C_8  and  C_9
REMARK    8  A    between atoms: C_10  and  C_11
REMARK    9  A    between atoms: C_11  and  C_12
REMARK   10  A    between atoms: C_13  and  C_14
REMARK   11  A    between atoms: C_14  and  C_15
REMARK   12  A    between atoms: C_16  and  C_17
REMARK   13  A    between atoms: C_17  and  C_18
REMARK   14  A    between atoms: C_18  and  C_19
REMARK   15  A    between atoms: C_19  and  C_20
REMARK   16  A    between atoms: N_22  and  C_23
REMARK   17  A    between atoms: C_26  and  N_27
REMARK                            x       y       z     vdW  Elec       q    Type
REMARK                         _______ _______ _______ _____ _____    ______ ____
ROOT
ATOM      1  C   UNL     1       1.719   6.117  19.157  0.00  0.00    +0.000 C 
ENDROOT
BRANCH   1   2
ATOM      2  C   UNL     1       1.552   5.650  20.584  0.00  0.00    +0.000 C 
BRANCH   2   4
ATOM      3  C   UNL     1       2.491   3.406  21.185  0.00  0.00    +0.000 C 
ATOM      4  C   UNL     1       2.661   4.706  20.921  0.00  0.00    +0.000 C 
BRANCH   3   5
ATOM      5  C   UNL     1       1.185   2.663  21.199  0.00  0.00    +0.000 C 
BRANCH   5   7
ATOM      6  C   UNL     1       0.993   2.402  18.671  0.00  0.00    +0.000 C 
ATOM      7  C   UNL     1       0.463   2.660  19.879  0.00  0.00    +0.000 C 
BRANCH   6   8
ATOM      8  C   UNL     1       2.452   2.221  18.375  0.00  0.00    +0.000 C 
BRANCH   8  10
ATOM      9  C   UNL     1       4.176   3.737  17.386  0.00  0.00    +0.000 C 
ATOM     10  C   UNL     1       2.988   3.109  17.289  0.00  0.00    +0.000 C 
BRANCH   9  11
ATOM     11  C   UNL     1       5.067   3.627  18.595  0.00  0.00    +0.000 C 
BRANCH  11  13
ATOM     12  C   UNL     1       6.441   5.706  18.984  0.00  0.00    +0.000 C 
ATOM     13  C   UNL     1       5.364   4.946  19.249  0.00  0.00    +0.000 C 
BRANCH  12  14
ATOM     14  C   UNL     1       7.513   5.296  18.019  0.00  0.00    +0.000 C 
BRANCH  14  15
ATOM     15  C   UNL     1       7.210   5.693  16.578  0.00  0.00    +0.000 C 
BRANCH  15  16
ATOM     16  C   UNL     1       7.260   4.459  15.673  0.00  0.00    +0.000 C 
BRANCH  16  18
ATOM     17  C   UNL     1       5.428   4.322  13.962  0.00  0.00    +0.000 C 
ATOM     18  C   UNL     1       6.843   4.798  14.248  0.00  0.00    +0.000 C 
ENDBRANCH  16  18
ENDBRANCH  15  16
ENDBRANCH  14  15
ENDBRANCH  12  14
ENDBRANCH  11  13
ENDBRANCH   9  11
ENDBRANCH   8  10
ENDBRANCH   6   8
ENDBRANCH   5   7
ENDBRANCH   3   5
ENDBRANCH   2   4
ENDBRANCH   1   2
BRANCH   1  19
ATOM     19  C   UNL     1       2.505   7.419  19.061  0.00  0.00    +0.000 C 
BRANCH  19  20
ATOM     20  C   UNL     1       1.578   8.545  19.455  0.00  0.00    +0.000 C 
ATOM     21  O   UNL     1       0.890   9.114  18.615  0.00  0.00    +0.000 OA
ATOM     22  N   UNL     1       1.614   8.839  20.799  0.00  0.00    +0.000 N 
ATOM     23  H   UNL     1       2.372   8.467  21.361  0.00  0.00    +0.000 HD
BRANCH  22  24
ATOM     24  C   UNL     1       0.764   9.784  21.422  0.00  0.00    +0.000 A 
ATOM     25  C   UNL     1       0.736  11.124  21.037  0.00  0.00    +0.000 A 
ATOM     26  C   UNL     1      -0.095  12.037  21.680  0.00  0.00    +0.000 A 
ATOM     27  C   UNL     1      -0.939  11.649  22.718  0.00  0.00    +0.000 A 
ATOM     28  C   UNL     1      -0.903  10.295  23.093  0.00  0.00    +0.000 A 
ATOM     29  C   UNL     1      -0.079   9.363  22.444  0.00  0.00    +0.000 A 
BRANCH  27  30
ATOM     30  N   UNL     1      -1.807  12.526  23.334  0.00  0.00    +0.000 N 
ATOM     31  C   UNL     1      -3.252  12.247  23.418  0.00  0.00    +0.000 C 
ATOM     32  C   UNL     1      -4.054  13.163  22.485  0.00  0.00    +0.000 C 
ATOM     33  O   UNL     1      -3.753  14.546  22.728  0.00  0.00    +0.000 OA
ATOM     34  C   UNL     1      -2.358  14.792  22.490  0.00  0.00    +0.000 C 
ATOM     35  C   UNL     1      -1.457  13.955  23.416  0.00  0.00    +0.000 C 
ENDBRANCH  27  30
ENDBRANCH  22  24
ENDBRANCH  19  20
ENDBRANCH   1  19
TORSDOF 16
ENDMDL
MODEL 5
REMARK VINA RESULT:      -6.8      2.305      3.525
REMARK  Name = 
REMARK  17 active torsions:
REMARK  status: ('A' for Active; 'I' for Inactive)
REMARK    1  A    between atoms: C_1  and  C_2
REMARK    2  A    between atoms: C_2  and  C_3
REMARK    3  A    between atoms: C_3  and  C_4
REMARK    4  A    between atoms: C_4  and  C_5
REMARK    5  A    between atoms: C_5  and  C_6
REMARK    6  A    between atoms: C_7  and  C_8
REMARK    7  A    between atoms: C_8  and  C_9
REMARK    8  A    between atoms: C_10  and  C_11
REMARK    9  A    between atoms: C_11  and  C_12
REMARK   10  A    between atoms: C_13  and  C_14
REMARK   11  A    between atoms: C_14  and  C_15
REMARK   12  A    between atoms: C_16  and  C_17
REMARK   13  A    between atoms: C_17  and  C_18
REMARK   14  A    between atoms: C_18  and  C_19
REMARK   15  A    between atoms: C_19  and  C_20
REMARK   16  A    between atoms: N_22  and  C_23
REMARK   17  A    between atoms: C_26  and  N_27
REMARK                            x       y       z     vdW  Elec       q    Type
REMARK                         _______ _______ _______ _____ _____    ______ ____
ROOT
ATOM      1  C   UNL     1       1.890   6.015  17.859  0.00  0.00    +0.000 C 
ENDROOT
BRANCH   1   2
ATOM      2  C   UNL     1       2.526   4.683  17.536  0.00  0.00    +0.000 C 
BRANCH   2   4
ATOM      3  C   UNL     1       1.970   2.359  18.290  0.00  0.00    +0.000 C 
ATOM      4  C   UNL     1       1.586   3.588  17.923  0.00  0.00    +0.000 C 
BRANCH   3   5
ATOM      5  C   UNL     1       3.382   1.856  18.376  0.00  0.00    +0.000 C 
BRANCH   5   7
ATOM      6  C   UNL     1       4.955   3.317  19.749  0.00  0.00    +0.000 C 
ATOM      7  C   UNL     1       4.113   2.277  19.622  0.00  0.00    +0.000 C 
BRANCH   6   8
ATOM      8  C   UNL     1       5.463   4.175  18.629  0.00  0.00    +0.000 C 
BRANCH   8  10
ATOM      9  C   UNL     1       6.698   6.307  18.211  0.00  0.00    +0.000 C 
ATOM     10  C   UNL     1       6.307   5.340  19.062  0.00  0.00    +0.000 C 
BRANCH   9  11
ATOM     11  C   UNL     1       6.350   6.303  16.745  0.00  0.00    +0.000 C 
BRANCH  11  13
ATOM     12  C   UNL     1       6.864   4.545  15.011  0.00  0.00    +0.000 C 
ATOM     13  C   UNL     1       7.270   5.461  15.907  0.00  0.00    +0.000 C 
BRANCH  12  14
ATOM     14  C   UNL     1       5.420   4.219  14.772  0.00  0.00    +0.000 C 
BRANCH  14  15
ATOM     15  C   UNL     1       5.087   4.006  13.299  0.00  0.00    +0.000 C 
BRANCH  15  16
ATOM     16  C   UNL     1       6.281   3.376  12.578  0.00  0.00    +0.000 C 
BRANCH  16  18
ATOM     17  C   UNL     1       6.996   1.520  11.046  0.00  0.00    +0.000 C 
ATOM     18  C   UNL     1       5.828   2.356  11.540  0.00  0.00    +0.000 C 
ENDBRANCH  16  18
ENDBRANCH  15  16
ENDBRANCH  14  15
ENDBRANCH  12  14
ENDBRANCH  11  13
ENDBRANCH   9  11
ENDBRANCH   8  10
ENDBRANCH   6   8
ENDBRANCH   5   7
ENDBRANCH   3   5
ENDBRANCH   2   4
ENDBRANCH   1   2
BRANCH   1  19
ATOM     19  C   UNL     1       2.919   7.129  18.014  0.00  0.00    +0.000 C 
BRANCH  19  20
ATOM     20  C   UNL     1       2.174   8.399  18.350  0.00  0.00    +0.000 C 
ATOM     21  O   UNL     1       2.089   9.310  17.533  0.00  0.00    +0.000 OA
ATOM     22  N   UNL     1       1.646   8.406  19.620  0.00  0.00    +0.000 N 
ATOM     23  H   UNL     1       1.961   7.707  20.284  0.00  0.00    +0.000 HD
BRANCH  22  24
ATOM     24  C   UNL     1       0.823   9.441  20.127  0.00  0.00    +0.000 A 
ATOM     25  C   UNL     1       0.678   9.670  21.494  0.00  0.00    +0.000 A 
ATOM     26  C   UNL     1      -0.153  10.683  21.967  0.00  0.00    +0.000 A 
ATOM     27  C   UNL     1      -0.856  11.513  21.098  0.00  0.00    +0.000 A 
ATOM     28  C   UNL     1      -0.697  11.273  19.722  0.00  0.00    +0.000 A 
ATOM     29  C   UNL     1       0.147  10.263  19.234  0.00  0.00    +0.000 A 
BRANCH  27  30
ATOM     30  N   UNL     1      -1.644  12.554  21.542  0.00  0.00    +0.000 N 
ATOM     31  C   UNL     1      -1.837  12.813  22.980  0.00  0.00    +0.000 C 
ATOM     32  C   UNL     1      -3.254  12.435  23.432  0.00  0.00    +0.000 C 
ATOM     33  O   UNL     1      -4.248  13.084  22.625  0.00  0.00    +0.000 OA
ATOM     34  C   UNL     1      -4.104  12.682  21.253  0.00  0.00    +0.000 C 
ATOM     35  C   UNL     1      -2.726  13.062  20.682  0.00  0.00    +0.000 C 
ENDBRANCH  27  30
ENDBRANCH  22  24
ENDBRANCH  19  20
ENDBRANCH   1  19
TORSDOF 16
ENDMDL
MODEL 6
REMARK VINA RESULT:      -6.7      2.937      6.128
REMARK  Name = 
REMARK  17 active torsions:
REMARK  status: ('A' for Active; 'I' for Inactive)
REMARK    1  A    between atoms: C_1  and  C_2
REMARK    2  A    between atoms: C_2  and  C_3
REMARK    3  A    between atoms: C_3  and  C_4
REMARK    4  A    between atoms: C_4  and  C_5
REMARK    5  A    between atoms: C_5  and  C_6
REMARK    6  A    between atoms: C_7  and  C_8
REMARK    7  A    between atoms: C_8  and  C_9
REMARK    8  A    between atoms: C_10  and  C_11
REMARK    9  A    between atoms: C_11  and  C_12
REMARK   10  A    between atoms: C_13  and  C_14
REMARK   11  A    between atoms: C_14  and  C_15
REMARK   12  A    between atoms: C_16  and  C_17
REMARK   13  A    between atoms: C_17  and  C_18
REMARK   14  A    between atoms: C_18  and  C_19
REMARK   15  A    between atoms: C_19  and  C_20
REMARK   16  A    between atoms: N_22  and  C_23
REMARK   17  A    between atoms: C_26  and  N_27
REMARK                            x       y       z     vdW  Elec       q    Type
REMARK                         _______ _______ _______ _____ _____    ______ ____
ROOT
ATOM      1  C   UNL     1       0.087   8.646  21.558  0.00  0.00    +0.000 C 
ENDROOT
BRANCH   1   2
ATOM      2  C   UNL     1       1.542   8.289  21.366  0.00  0.00    +0.000 C 
BRANCH   2   4
ATOM      3  C   UNL     1       2.215   6.762  19.496  0.00  0.00    +0.000 C 
ATOM      4  C   UNL     1       1.774   7.949  19.928  0.00  0.00    +0.000 C 
BRANCH   3   5
ATOM      5  C   UNL     1       2.560   5.575  20.349  0.00  0.00    +0.000 C 
BRANCH   5   7
ATOM      6  C   UNL     1       0.938   3.693  19.780  0.00  0.00    +0.000 C 
ATOM      7  C   UNL     1       1.406   4.644  20.607  0.00  0.00    +0.000 C 
BRANCH   6   8
ATOM      8  C   UNL     1       1.373   3.473  18.362  0.00  0.00    +0.000 C 
BRANCH   8  10
ATOM      9  C   UNL     1       3.468   2.182  17.926  0.00  0.00    +0.000 C 
ATOM     10  C   UNL     1       2.137   2.201  18.129  0.00  0.00    +0.000 C 
BRANCH   9  11
ATOM     11  C   UNL     1       4.312   3.429  17.891  0.00  0.00    +0.000 C 
BRANCH  11  13
ATOM     12  C   UNL     1       4.946   5.187  16.196  0.00  0.00    +0.000 C 
ATOM     13  C   UNL     1       4.603   3.923  16.502  0.00  0.00    +0.000 C 
BRANCH  12  14
ATOM     14  C   UNL     1       5.037   6.280  17.219  0.00  0.00    +0.000 C 
BRANCH  14  15
ATOM     15  C   UNL     1       6.240   7.194  17.017  0.00  0.00    +0.000 C 
BRANCH  15  16
ATOM     16  C   UNL     1       7.434   6.676  17.822  0.00  0.00    +0.000 C 
BRANCH  16  18
ATOM     17  C   UNL     1       8.138   5.477  19.913  0.00  0.00    +0.000 C 
ATOM     18  C   UNL     1       6.984   5.787  18.975  0.00  0.00    +0.000 C 
ENDBRANCH  16  18
ENDBRANCH  15  16
ENDBRANCH  14  15
ENDBRANCH  12  14
ENDBRANCH  11  13
ENDBRANCH   9  11
ENDBRANCH   8  10
ENDBRANCH   6   8
ENDBRANCH   5   7
ENDBRANCH   3   5
ENDBRANCH   2   4
ENDBRANCH   1   2
BRANCH   1  19
ATOM     19  C   UNL     1      -0.450   9.523  20.433  0.00  0.00    +0.000 C 
BRANCH  19  20
ATOM     20  C   UNL     1       0.132  10.906  20.612  0.00  0.00    +0.000 C 
ATOM     21  O   UNL     1       0.310  11.371  21.733  0.00  0.00    +0.000 OA
ATOM     22  N   UNL     1       0.408  11.542  19.424  0.00  0.00    +0.000 N 
ATOM     23  H   UNL     1       0.019  11.166  18.566  0.00  0.00    +0.000 HD
BRANCH  22  24
ATOM     24  C   UNL     1       1.048  12.802  19.334  0.00  0.00    +0.000 A 
ATOM     25  C   UNL     1       2.409  12.963  19.592  0.00  0.00    +0.000 A 
ATOM     26  C   UNL     1       3.010  14.216  19.516  0.00  0.00    +0.000 A 
ATOM     27  C   UNL     1       2.285  15.352  19.164  0.00  0.00    +0.000 A 
ATOM     28  C   UNL     1       0.915  15.174  18.903  0.00  0.00    +0.000 A 
ATOM     29  C   UNL     1       0.301  13.914  18.965  0.00  0.00    +0.000 A 
BRANCH  27  30
ATOM     30  N   UNL     1       2.869  16.594  19.033  0.00  0.00    +0.000 N 
ATOM     31  C   UNL     1       4.214  16.753  18.452  0.00  0.00    +0.000 C 
ATOM     32  C   UNL     1       5.248  17.123  19.523  0.00  0.00    +0.000 C 
ATOM     33  O   UNL     1       4.836  18.282  20.265  0.00  0.00    +0.000 OA
ATOM     34  C   UNL     1       3.589  18.020  20.930  0.00  0.00    +0.000 C 
ATOM     35  C   UNL     1       2.463  17.685  19.936  0.00  0.00    +0.000 C 
ENDBRANCH  27  30
ENDBRANCH  22  24
ENDBRANCH  19  20
ENDBRANCH   1  19
TORSDOF 16
ENDMDL
MODEL 7
REMARK VINA RESULT:      -6.7      5.124     10.037
REMARK  Name = 
REMARK  17 active torsions:
REMARK  status: ('A' for Active; 'I' for Inactive)
REMARK    1  A    between atoms: C_1  and  C_2
REMARK    2  A    between atoms: C_2  and  C_3
REMARK    3  A    between atoms: C_3  and  C_4
REMARK    4  A    between atoms: C_4  and  C_5
REMARK    5  A    between atoms: C_5  and  C_6
REMARK    6  A    between atoms: C_7  and  C_8
REMARK    7  A    between atoms: C_8  and  C_9
REMARK    8  A    between atoms: C_10  and  C_11
REMARK    9  A    between atoms: C_11  and  C_12
REMARK   10  A    between atoms: C_13  and  C_14
REMARK   11  A    between atoms: C_14  and  C_15
REMARK   12  A    between atoms: C_16  and  C_17
REMARK   13  A    between atoms: C_17  and  C_18
REMARK   14  A    between atoms: C_18  and  C_19
REMARK   15  A    between atoms: C_19  and  C_20
REMARK   16  A    between atoms: N_22  and  C_23
REMARK   17  A    between atoms: C_26  and  N_27
REMARK                            x       y       z     vdW  Elec       q    Type
REMARK                         _______ _______ _______ _____ _____    ______ ____
ROOT
ATOM      1  C   UNL     1       8.337   9.921  18.344  0.00  0.00    +0.000 C 
ENDROOT
BRANCH   1   2
ATOM      2  C   UNL     1       9.624  10.007  19.132  0.00  0.00    +0.000 C 
BRANCH   2   4
ATOM      3  C   UNL     1      10.323  11.828  20.704  0.00  0.00    +0.000 C 
ATOM      4  C   UNL     1       9.424  10.926  20.293  0.00  0.00    +0.000 C 
BRANCH   3   5
ATOM      5  C   UNL     1      11.674  12.080  20.099  0.00  0.00    +0.000 C 
BRANCH   5   7
ATOM      6  C   UNL     1      11.865  14.198  18.694  0.00  0.00    +0.000 C 
ATOM      7  C   UNL     1      11.980  13.533  19.857  0.00  0.00    +0.000 C 
BRANCH   6   8
ATOM      8  C   UNL     1      11.560  13.583  17.360  0.00  0.00    +0.000 C 
BRANCH   8  10
ATOM      9  C   UNL     1       9.079  13.553  17.664  0.00  0.00    +0.000 C 
ATOM     10  C   UNL     1      10.208  12.938  17.260  0.00  0.00    +0.000 C 
BRANCH   9  11
ATOM     11  C   UNL     1       9.068  14.931  18.272  0.00  0.00    +0.000 C 
BRANCH  11  13
ATOM     12  C   UNL     1       7.039  15.413  19.691  0.00  0.00    +0.000 C 
ATOM     13  C   UNL     1       8.316  15.013  19.571  0.00  0.00    +0.000 C 
BRANCH  12  14
ATOM     14  C   UNL     1       6.214  15.876  18.527  0.00  0.00    +0.000 C 
BRANCH  14  15
ATOM     15  C   UNL     1       5.393  14.760  17.890  0.00  0.00    +0.000 C 
BRANCH  15  16
ATOM     16  C   UNL     1       3.947  15.221  17.690  0.00  0.00    +0.000 C 
BRANCH  16  18
ATOM     17  C   UNL     1       2.964  14.087  19.702  0.00  0.00    +0.000 C 
ATOM     18  C   UNL     1       2.957  14.174  18.185  0.00  0.00    +0.000 C 
ENDBRANCH  16  18
ENDBRANCH  15  16
ENDBRANCH  14  15
ENDBRANCH  12  14
ENDBRANCH  11  13
ENDBRANCH   9  11
ENDBRANCH   8  10
ENDBRANCH   6   8
ENDBRANCH   5   7
ENDBRANCH   3   5
ENDBRANCH   2   4
ENDBRANCH   1   2
BRANCH   1  19
ATOM     19  C   UNL     1       8.374   8.821  17.290  0.00  0.00    +0.000 C 
BRANCH  19  20
ATOM     20  C   UNL     1       7.660   7.616  17.859  0.00  0.00    +0.000 C 
ATOM     21  O   UNL     1       8.141   6.988  18.796  0.00  0.00    +0.000 OA
ATOM     22  N   UNL     1       6.477   7.328  17.219  0.00  0.00    +0.000 N 
ATOM     23  H   UNL     1       6.285   7.766  16.325  0.00  0.00    +0.000 HD
BRANCH  22  24
ATOM     24  C   UNL     1       5.584   6.310  17.634  0.00  0.00    +0.000 A 
ATOM     25  C   UNL     1       6.025   5.039  17.998  0.00  0.00    +0.000 A 
ATOM     26  C   UNL     1       5.124   4.051  18.384  0.00  0.00    +0.000 A 
ATOM     27  C   UNL     1       3.754   4.294  18.436  0.00  0.00    +0.000 A 
ATOM     28  C   UNL     1       3.324   5.581  18.070  0.00  0.00    +0.000 A 
ATOM     29  C   UNL     1       4.223   6.589  17.691  0.00  0.00    +0.000 A 
BRANCH  27  30
ATOM     30  N   UNL     1       2.848   3.346  18.863  0.00  0.00    +0.000 N 
ATOM     31  C   UNL     1       1.395   3.586  18.800  0.00  0.00    +0.000 C 
ATOM     32  C   UNL     1       0.802   3.808  20.197  0.00  0.00    +0.000 C 
ATOM     33  O   UNL     1       1.136   2.726  21.081  0.00  0.00    +0.000 OA
ATOM     34  C   UNL     1       2.563   2.631  21.221  0.00  0.00    +0.000 C 
ATOM     35  C   UNL     1       3.258   2.356  19.875  0.00  0.00    +0.000 C 
ENDBRANCH  27  30
ENDBRANCH  22  24
ENDBRANCH  19  20
ENDBRANCH   1  19
TORSDOF 16
ENDMDL
MODEL 8
REMARK VINA RESULT:      -6.6      2.945      5.764
REMARK  Name = 
REMARK  17 active torsions:
REMARK  status: ('A' for Active; 'I' for Inactive)
REMARK    1  A    between atoms: C_1  and  C_2
REMARK    2  A    between atoms: C_2  and  C_3
REMARK    3  A    between atoms: C_3  and  C_4
REMARK    4  A    between atoms: C_4  and  C_5
REMARK    5  A    between atoms: C_5  and  C_6
REMARK    6  A    between atoms: C_7  and  C_8
REMARK    7  A    between atoms: C_8  and  C_9
REMARK    8  A    between atoms: C_10  and  C_11
REMARK    9  A    between atoms: C_11  and  C_12
REMARK   10  A    between atoms: C_13  and  C_14
REMARK   11  A    between atoms: C_14  and  C_15
REMARK   12  A    between atoms: C_16  and  C_17
REMARK   13  A    between atoms: C_17  and  C_18
REMARK   14  A    between atoms: C_18  and  C_19
REMARK   15  A    between atoms: C_19  and  C_20
REMARK   16  A    between atoms: N_22  and  C_23
REMARK   17  A    between atoms: C_26  and  N_27
REMARK                            x       y       z     vdW  Elec       q    Type
REMARK                         _______ _______ _______ _____ _____    ______ ____
ROOT
ATOM      1  C   UNL     1       2.516   6.900  17.941  0.00  0.00    +0.000 C 
ENDROOT
BRANCH   1   2
ATOM      2  C   UNL     1       3.178   6.283  19.152  0.00  0.00    +0.000 C 
BRANCH   2   4
ATOM      3  C   UNL     1       1.508   4.431  19.395  0.00  0.00    +0.000 C 
ATOM      4  C   UNL     1       2.166   5.479  19.903  0.00  0.00    +0.000 C 
BRANCH   3   5
ATOM      5  C   UNL     1       1.650   3.877  18.006  0.00  0.00    +0.000 C 
BRANCH   5   7
ATOM      6  C   UNL     1       3.894   2.894  17.303  0.00  0.00    +0.000 C 
ATOM      7  C   UNL     1       2.684   2.791  17.877  0.00  0.00    +0.000 C 
BRANCH   6   8
ATOM      8  C   UNL     1       4.398   4.075  16.527  0.00  0.00    +0.000 C 
BRANCH   8  10
ATOM      9  C   UNL     1       6.833   4.456  16.942  0.00  0.00    +0.000 C 
ATOM     10  C   UNL     1       5.848   4.002  16.143  0.00  0.00    +0.000 C 
BRANCH   9  11
ATOM     11  C   UNL     1       6.576   5.099  18.280  0.00  0.00    +0.000 C 
BRANCH  11  13
ATOM     12  C   UNL     1       8.169   7.016  18.664  0.00  0.00    +0.000 C 
ATOM     13  C   UNL     1       7.789   5.745  18.884  0.00  0.00    +0.000 C 
BRANCH  12  14
ATOM     14  C   UNL     1       7.436   7.939  17.737  0.00  0.00    +0.000 C 
BRANCH  14  15
ATOM     15  C   UNL     1       8.148   9.272  17.527  0.00  0.00    +0.000 C 
BRANCH  15  16
ATOM     16  C   UNL     1       8.906   9.666  18.798  0.00  0.00    +0.000 C 
BRANCH  16  18
ATOM     17  C   UNL     1      10.603  11.342  19.581  0.00  0.00    +0.000 C 
ATOM     18  C   UNL     1       9.351  11.123  18.750  0.00  0.00    +0.000 C 
ENDBRANCH  16  18
ENDBRANCH  15  16
ENDBRANCH  14  15
ENDBRANCH  12  14
ENDBRANCH  11  13
ENDBRANCH   9  11
ENDBRANCH   8  10
ENDBRANCH   6   8
ENDBRANCH   5   7
ENDBRANCH   3   5
ENDBRANCH   2   4
ENDBRANCH   1   2
BRANCH   1  19
ATOM     19  C   UNL     1       2.797   8.393  17.823  0.00  0.00    +0.000 C 
BRANCH  19  20
ATOM     20  C   UNL     1       1.526   9.130  18.175  0.00  0.00    +0.000 C 
ATOM     21  O   UNL     1       0.504   8.963  17.519  0.00  0.00    +0.000 OA
ATOM     22  N   UNL     1       1.661   9.969  19.256  0.00  0.00    +0.000 N 
ATOM     23  H   UNL     1       2.593  10.201  19.582  0.00  0.00    +0.000 HD
BRANCH  22  24
ATOM     24  C   UNL     1       0.587  10.688  19.835  0.00  0.00    +0.000 A 
ATOM     25  C   UNL     1      -0.032  11.752  19.181  0.00  0.00    +0.000 A 
ATOM     26  C   UNL     1      -1.073  12.455  19.782  0.00  0.00    +0.000 A 
ATOM     27  C   UNL     1      -1.547  12.115  21.046  0.00  0.00    +0.000 A 
ATOM     28  C   UNL     1      -0.916  11.038  21.692  0.00  0.00    +0.000 A 
ATOM     29  C   UNL     1       0.126  10.315  21.092  0.00  0.00    +0.000 A 
BRANCH  27  30
ATOM     30  N   UNL     1      -2.610  12.764  21.638  0.00  0.00    +0.000 N 
ATOM     31  C   UNL     1      -3.185  13.989  21.055  0.00  0.00    +0.000 C 
ATOM     32  C   UNL     1      -2.833  15.227  21.890  0.00  0.00    +0.000 C 
ATOM     33  O   UNL     1      -3.210  15.051  23.265  0.00  0.00    +0.000 OA
ATOM     34  C   UNL     1      -2.508  13.930  23.825  0.00  0.00    +0.000 C 
ATOM     35  C   UNL     1      -2.832  12.618  23.088  0.00  0.00    +0.000 C 
ENDBRANCH  27  30
ENDBRANCH  22  24
ENDBRANCH  19  20
ENDBRANCH   1  19
TORSDOF 16
ENDMDL
MODEL 9
REMARK VINA RESULT:      -6.5      2.184      4.020
REMARK  Name = 
REMARK  17 active torsions:
REMARK  status: ('A' for Active; 'I' for Inactive)
REMARK    1  A    between atoms: C_1  and  C_2
REMARK    2  A    between atoms: C_2  and  C_3
REMARK    3  A    between atoms: C_3  and  C_4
REMARK    4  A    between atoms: C_4  and  C_5
REMARK    5  A    between atoms: C_5  and  C_6
REMARK    6  A    between atoms: C_7  and  C_8
REMARK    7  A    between atoms: C_8  and  C_9
REMARK    8  A    between atoms: C_10  and  C_11
REMARK    9  A    between atoms: C_11  and  C_12
REMARK   10  A    between atoms: C_13  and  C_14
REMARK   11  A    between atoms: C_14  and  C_15
REMARK   12  A    between atoms: C_16  and  C_17
REMARK   13  A    between atoms: C_17  and  C_18
REMARK   14  A    between atoms: C_18  and  C_19
REMARK   15  A    between atoms: C_19  and  C_20
REMARK   16  A    between atoms: N_22  and  C_23
REMARK   17  A    between atoms: C_26  and  N_27
REMARK                            x       y       z     vdW  Elec       q    Type
REMARK                         _______ _______ _______ _____ _____    ______ ____
ROOT
ATOM      1  C   UNL     1       2.629   5.960  18.431  0.00  0.00    +0.000 C 
ENDROOT
BRANCH   1   2
ATOM      2  C   UNL     1       1.484   5.351  17.657  0.00  0.00    +0.000 C 
BRANCH   2   4
ATOM      3  C   UNL     1       1.266   3.037  18.593  0.00  0.00    +0.000 C 
ATOM      4  C   UNL     1       1.657   3.867  17.618  0.00  0.00    +0.000 C 
BRANCH   3   5
ATOM      5  C   UNL     1       0.603   3.427  19.883  0.00  0.00    +0.000 C 
BRANCH   5   7
ATOM      6  C   UNL     1       2.373   2.714  21.573  0.00  0.00    +0.000 C 
ATOM      7  C   UNL     1       1.119   2.689  21.089  0.00  0.00    +0.000 C 
BRANCH   6   8
ATOM      8  C   UNL     1       3.554   3.357  20.912  0.00  0.00    +0.000 C 
BRANCH   8  10
ATOM      9  C   UNL     1       5.091   2.923  18.988  0.00  0.00    +0.000 C 
ATOM     10  C   UNL     1       4.331   2.454  19.997  0.00  0.00    +0.000 C 
BRANCH   9  11
ATOM     11  C   UNL     1       5.217   4.390  18.668  0.00  0.00    +0.000 C 
BRANCH  11  13
ATOM     12  C   UNL     1       6.774   5.318  16.915  0.00  0.00    +0.000 C 
ATOM     13  C   UNL     1       6.564   4.778  18.127  0.00  0.00    +0.000 C 
BRANCH  12  14
ATOM     14  C   UNL     1       5.673   5.560  15.925  0.00  0.00    +0.000 C 
BRANCH  14  15
ATOM     15  C   UNL     1       5.444   4.384  14.981  0.00  0.00    +0.000 C 
BRANCH  15  16
ATOM     16  C   UNL     1       6.330   4.528  13.741  0.00  0.00    +0.000 C 
BRANCH  16  18
ATOM     17  C   UNL     1       4.857   3.452  12.015  0.00  0.00    +0.000 C 
ATOM     18  C   UNL     1       6.157   3.345  12.795  0.00  0.00    +0.000 C 
ENDBRANCH  16  18
ENDBRANCH  15  16
ENDBRANCH  14  15
ENDBRANCH  12  14
ENDBRANCH  11  13
ENDBRANCH   9  11
ENDBRANCH   8  10
ENDBRANCH   6   8
ENDBRANCH   5   7
ENDBRANCH   3   5
ENDBRANCH   2   4
ENDBRANCH   1   2
BRANCH   1  19
ATOM     19  C   UNL     1       2.818   7.440  18.121  0.00  0.00    +0.000 C 
BRANCH  19  20
ATOM     20  C   UNL     1       1.916   8.222  19.047  0.00  0.00    +0.000 C 
ATOM     21  O   UNL     1       1.797   7.900  20.224  0.00  0.00    +0.000 OA
ATOM     22  N   UNL     1       1.276   9.273  18.431  0.00  0.00    +0.000 N 
ATOM     23  H   UNL     1       1.270   9.315  17.418  0.00  0.00    +0.000 HD
BRANCH  22  24
ATOM     24  C   UNL     1       0.460  10.208  19.112  0.00  0.00    +0.000 A 
ATOM     25  C   UNL     1      -0.775  10.618  18.612  0.00  0.00    +0.000 A 
ATOM     26  C   UNL     1      -1.549  11.554  19.292  0.00  0.00    +0.000 A 
ATOM     27  C   UNL     1      -1.131  12.104  20.501  0.00  0.00    +0.000 A 
ATOM     28  C   UNL     1       0.114  11.679  20.996  0.00  0.00    +0.000 A 
ATOM     29  C   UNL     1       0.897  10.727  20.325  0.00  0.00    +0.000 A 
BRANCH  27  30
ATOM     30  N   UNL     1      -1.904  12.994  21.217  0.00  0.00    +0.000 N 
ATOM     31  C   UNL     1      -1.313  14.176  21.868  0.00  0.00    +0.000 C 
ATOM     32  C   UNL     1      -1.278  14.017  23.394  0.00  0.00    +0.000 C 
ATOM     33  O   UNL     1      -2.580  13.706  23.914  0.00  0.00    +0.000 OA
ATOM     34  C   UNL     1      -3.047  12.467  23.354  0.00  0.00    +0.000 C 
ATOM     35  C   UNL     1      -3.167  12.535  21.821  0.00  0.00    +0.000 C 
ENDBRANCH  27  30
ENDBRANCH  22  24
ENDBRANCH  19  20
ENDBRANCH   1  19
TORSDOF 16
ENDMDL
