MODEL 1
REMARK VINA RESULT:      -8.6      0.000      0.000
REMARK  Name = 
REMARK  2 active torsions:
REMARK  status: ('A' for Active; 'I' for Inactive)
REMARK    1  A    between atoms: C_11  and  C_12
REMARK    2  A    between atoms: N_16  and  N_17
REMARK                            x       y       z     vdW  Elec       q    Type
REMARK                         _______ _______ _______ _____ _____    ______ ____
ROOT
ATOM      1  C   UNL     1       4.748   5.050  17.932  0.00  0.00    +0.000 A 
ATOM      2  C   UNL     1       4.708   4.057  18.887  0.00  0.00    +0.000 A 
ATOM      3  S   UNL     1       3.561   4.453  20.095  0.00  0.00    +0.000 S 
ATOM      4  C   UNL     1       3.180   5.908  19.259  0.00  0.00    +0.000 A 
ATOM      5  N   UNL     1       2.179   6.689  19.734  0.00  0.00    +0.000 N 
ATOM      6  N   UNL     1       3.895   6.123  18.177  0.00  0.00    +0.000 NA
ATOM      7  H   UNL     1       1.666   6.300  20.515  0.00  0.00    +0.000 HD
ENDROOT
BRANCH   1  18
ATOM      8  O   UNL     1       7.321   6.344  17.570  0.00  0.00    +0.000 OA
ATOM      9  C   UNL     1       6.812   5.760  16.618  0.00  0.00    +0.000 A 
ATOM     10  O   UNL     1       7.462   5.761  15.385  0.00  0.00    +0.000 OA
ATOM     11  C   UNL     1       6.987   5.019  14.295  0.00  0.00    +0.000 A 
ATOM     12  C   UNL     1       7.756   5.021  13.132  0.00  0.00    +0.000 A 
ATOM     13  C   UNL     1       7.337   4.262  12.040  0.00  0.00    +0.000 A 
ATOM     14  C   UNL     1       6.157   3.515  12.125  0.00  0.00    +0.000 A 
ATOM     15  C   UNL     1       5.396   3.532  13.297  0.00  0.00    +0.000 A 
ATOM     16  C   UNL     1       5.812   4.295  14.392  0.00  0.00    +0.000 A 
ATOM     17  C   UNL     1       5.059   4.359  15.628  0.00  0.00    +0.000 A 
ATOM     18  C   UNL     1       5.503   5.038  16.704  0.00  0.00    +0.000 A 
ENDBRANCH   1  18
BRANCH   5  19
ATOM     19  N   UNL     1       2.024   8.015  19.429  0.00  0.00    +0.000 NA
ATOM     20  C   UNL     1       1.245   8.711  20.202  0.00  0.00    +0.000 C 
ATOM     21  C   UNL     1       1.065  10.189  19.972  0.00  0.00    +0.000 C 
ATOM     22  C   UNL     1      -0.160  10.483  20.826  0.00  0.00    +0.000 C 
ATOM     23  C   UNL     1      -0.054   9.510  21.993  0.00  0.00    +0.000 C 
ATOM     24  C   UNL     1       0.424   8.207  21.362  0.00  0.00    +0.000 C 
ENDBRANCH   5  19
TORSDOF 2
ENDMDL
MODEL 2
REMARK VINA RESULT:      -8.5      2.265      8.343
REMARK  Name = 
REMARK  2 active torsions:
REMARK  status: ('A' for Active; 'I' for Inactive)
REMARK    1  A    between atoms: C_11  and  C_12
REMARK    2  A    between atoms: N_16  and  N_17
REMARK                            x       y       z     vdW  Elec       q    Type
REMARK                         _______ _______ _______ _____ _____    ______ ____
ROOT
ATOM      1  C   UNL     1       2.353   5.855  19.887  0.00  0.00    +0.000 A 
ATOM      2  C   UNL     1       1.694   4.671  20.136  0.00  0.00    +0.000 A 
ATOM      3  S   UNL     1       2.758   3.350  19.905  0.00  0.00    +0.000 S 
ATOM      4  C   UNL     1       4.029   4.440  19.508  0.00  0.00    +0.000 A 
ATOM      5  N   UNL     1       5.269   3.940  19.284  0.00  0.00    +0.000 N 
ATOM      6  N   UNL     1       3.680   5.707  19.491  0.00  0.00    +0.000 NA
ATOM      7  H   UNL     1       5.369   2.948  19.457  0.00  0.00    +0.000 HD
ENDROOT
BRANCH   1  18
ATOM      8  O   UNL     1       2.398   7.937  17.864  0.00  0.00    +0.000 OA
ATOM      9  C   UNL     1       1.932   8.195  18.970  0.00  0.00    +0.000 A 
ATOM     10  O   UNL     1       1.469   9.482  19.237  0.00  0.00    +0.000 OA
ATOM     11  C   UNL     1       0.825   9.805  20.440  0.00  0.00    +0.000 A 
ATOM     12  C   UNL     1       0.325  11.100  20.574  0.00  0.00    +0.000 A 
ATOM     13  C   UNL     1      -0.358  11.446  21.739  0.00  0.00    +0.000 A 
ATOM     14  C   UNL     1      -0.529  10.497  22.751  0.00  0.00    +0.000 A 
ATOM     15  C   UNL     1      -0.014   9.207  22.602  0.00  0.00    +0.000 A 
ATOM     16  C   UNL     1       0.674   8.858  21.436  0.00  0.00    +0.000 A 
ATOM     17  C   UNL     1       1.238   7.539  21.229  0.00  0.00    +0.000 A 
ATOM     18  C   UNL     1       1.836   7.188  20.075  0.00  0.00    +0.000 A 
ENDBRANCH   1  18
BRANCH   5  19
ATOM     19  N   UNL     1       6.254   4.600  18.599  0.00  0.00    +0.000 NA
ATOM     20  C   UNL     1       6.187   4.577  17.301  0.00  0.00    +0.000 C 
ATOM     21  C   UNL     1       7.198   5.326  16.472  0.00  0.00    +0.000 C 
ATOM     22  C   UNL     1       6.966   4.725  15.093  0.00  0.00    +0.000 C 
ATOM     23  C   UNL     1       5.479   4.397  15.066  0.00  0.00    +0.000 C 
ATOM     24  C   UNL     1       5.186   3.836  16.453  0.00  0.00    +0.000 C 
ENDBRANCH   5  19
TORSDOF 2
ENDMDL
MODEL 3
REMARK VINA RESULT:      -7.9      1.297      1.713
REMARK  Name = 
REMARK  2 active torsions:
REMARK  status: ('A' for Active; 'I' for Inactive)
REMARK    1  A    between atoms: C_11  and  C_12
REMARK    2  A    between atoms: N_16  and  N_17
REMARK                            x       y       z     vdW  Elec       q    Type
REMARK                         _______ _______ _______ _____ _____    ______ ____
ROOT
ATOM      1  C   UNL     1       3.764   4.988  19.292  0.00  0.00    +0.000 A 
ATOM      2  C   UNL     1       3.319   3.923  20.047  0.00  0.00    +0.000 A 
ATOM      3  S   UNL     1       2.068   4.434  21.098  0.00  0.00    +0.000 S 
ATOM      4  C   UNL     1       2.188   6.032  20.468  0.00  0.00    +0.000 A 
ATOM      5  N   UNL     1       1.307   6.969  20.897  0.00  0.00    +0.000 N 
ATOM      6  N   UNL     1       3.134   6.198  19.571  0.00  0.00    +0.000 NA
ATOM      7  H   UNL     1       0.576   6.622  21.505  0.00  0.00    +0.000 HD
ENDROOT
BRANCH   1  18
ATOM      8  O   UNL     1       6.623   5.353  19.638  0.00  0.00    +0.000 OA
ATOM      9  C   UNL     1       6.182   5.171  18.508  0.00  0.00    +0.000 A 
ATOM     10  O   UNL     1       7.053   5.177  17.420  0.00  0.00    +0.000 OA
ATOM     11  C   UNL     1       6.624   4.864  16.123  0.00  0.00    +0.000 A 
ATOM     12  C   UNL     1       7.592   4.816  15.120  0.00  0.00    +0.000 A 
ATOM     13  C   UNL     1       7.210   4.468  13.825  0.00  0.00    +0.000 A 
ATOM     14  C   UNL     1       5.870   4.174  13.551  0.00  0.00    +0.000 A 
ATOM     15  C   UNL     1       4.914   4.235  14.568  0.00  0.00    +0.000 A 
ATOM     16  C   UNL     1       5.293   4.587  15.866  0.00  0.00    +0.000 A 
ATOM     17  C   UNL     1       4.345   4.676  16.959  0.00  0.00    +0.000 A 
ATOM     18  C   UNL     1       4.729   4.945  18.221  0.00  0.00    +0.000 A 
ENDBRANCH   1  18
BRANCH   5  19
ATOM     19  N   UNL     1       1.509   8.319  20.799  0.00  0.00    +0.000 NA
ATOM     20  C   UNL     1       0.730   9.085  21.503  0.00  0.00    +0.000 C 
ATOM     21  C   UNL     1       0.922  10.580  21.498  0.00  0.00    +0.000 C 
ATOM     22  C   UNL     1      -0.384  11.056  22.119  0.00  0.00    +0.000 C 
ATOM     23  C   UNL     1      -0.764   9.953  23.098  0.00  0.00    +0.000 C 
ATOM     24  C   UNL     1      -0.431   8.659  22.364  0.00  0.00    +0.000 C 
ENDBRANCH   5  19
TORSDOF 2
ENDMDL
MODEL 4
REMARK VINA RESULT:      -7.9      2.696      8.088
REMARK  Name = 
REMARK  2 active torsions:
REMARK  status: ('A' for Active; 'I' for Inactive)
REMARK    1  A    between atoms: C_11  and  C_12
REMARK    2  A    between atoms: N_16  and  N_17
REMARK                            x       y       z     vdW  Elec       q    Type
REMARK                         _______ _______ _______ _____ _____    ______ ____
ROOT
ATOM      1  C   UNL     1       3.078   4.958  18.167  0.00  0.00    +0.000 A 
ATOM      2  C   UNL     1       2.576   3.677  18.251  0.00  0.00    +0.000 A 
ATOM      3  S   UNL     1       3.648   2.579  17.490  0.00  0.00    +0.000 S 
ATOM      4  C   UNL     1       4.715   3.877  17.116  0.00  0.00    +0.000 A 
ATOM      5  N   UNL     1       5.902   3.594  16.525  0.00  0.00    +0.000 N 
ATOM      6  N   UNL     1       4.285   5.064  17.481  0.00  0.00    +0.000 NA
ATOM      7  H   UNL     1       6.107   2.608  16.426  0.00  0.00    +0.000 HD
ENDROOT
BRANCH   1  18
ATOM      8  O   UNL     1       2.225   5.137  20.936  0.00  0.00    +0.000 OA
ATOM      9  C   UNL     1       2.094   6.119  20.211  0.00  0.00    +0.000 A 
ATOM     10  O   UNL     1       1.513   7.278  20.723  0.00  0.00    +0.000 OA
ATOM     11  C   UNL     1       1.440   8.463  19.977  0.00  0.00    +0.000 A 
ATOM     12  C   UNL     1       0.916   9.589  20.611  0.00  0.00    +0.000 A 
ATOM     13  C   UNL     1       0.865  10.796  19.916  0.00  0.00    +0.000 A 
ATOM     14  C   UNL     1       1.337  10.861  18.601  0.00  0.00    +0.000 A 
ATOM     15  C   UNL     1       1.852   9.720  17.980  0.00  0.00    +0.000 A 
ATOM     16  C   UNL     1       1.901   8.508  18.674  0.00  0.00    +0.000 A 
ATOM     17  C   UNL     1       2.415   7.290  18.080  0.00  0.00    +0.000 A 
ATOM     18  C   UNL     1       2.526   6.143  18.777  0.00  0.00    +0.000 A 
ENDBRANCH   1  18
BRANCH   5  19
ATOM     19  N   UNL     1       6.655   4.504  15.833  0.00  0.00    +0.000 NA
ATOM     20  C   UNL     1       6.689   4.381  14.540  0.00  0.00    +0.000 C 
ATOM     21  C   UNL     1       7.447   5.375  13.699  0.00  0.00    +0.000 C 
ATOM     22  C   UNL     1       7.523   4.647  12.363  0.00  0.00    +0.000 C 
ATOM     23  C   UNL     1       6.235   3.837  12.297  0.00  0.00    +0.000 C 
ATOM     24  C   UNL     1       6.052   3.295  13.711  0.00  0.00    +0.000 C 
ENDBRANCH   5  19
TORSDOF 2
ENDMDL
MODEL 5
REMARK VINA RESULT:      -7.6      2.911      8.202
REMARK  Name = 
REMARK  2 active torsions:
REMARK  status: ('A' for Active; 'I' for Inactive)
REMARK    1  A    between atoms: C_11  and  C_12
REMARK    2  A    between atoms: N_16  and  N_17
REMARK                            x       y       z     vdW  Elec       q    Type
REMARK                         _______ _______ _______ _____ _____    ______ ____
ROOT
ATOM      1  C   UNL     1       2.138   5.697  20.130  0.00  0.00    +0.000 A 
ATOM      2  C   UNL     1       1.676   4.582  20.798  0.00  0.00    +0.000 A 
ATOM      3  S   UNL     1       2.629   3.220  20.391  0.00  0.00    +0.000 S 
ATOM      4  C   UNL     1       3.603   4.204  19.369  0.00  0.00    +0.000 A 
ATOM      5  N   UNL     1       4.685   3.649  18.770  0.00  0.00    +0.000 N 
ATOM      6  N   UNL     1       3.219   5.458  19.286  0.00  0.00    +0.000 NA
ATOM      7  H   UNL     1       4.887   2.696  19.047  0.00  0.00    +0.000 HD
ENDROOT
BRANCH   1  18
ATOM      8  O   UNL     1       2.346   7.753  18.092  0.00  0.00    +0.000 OA
ATOM      9  C   UNL     1       1.853   8.043  19.178  0.00  0.00    +0.000 A 
ATOM     10  O   UNL     1       1.437   9.352  19.417  0.00  0.00    +0.000 OA
ATOM     11  C   UNL     1       0.766   9.715  20.593  0.00  0.00    +0.000 A 
ATOM     12  C   UNL     1       0.319  11.032  20.697  0.00  0.00    +0.000 A 
ATOM     13  C   UNL     1      -0.388  11.419  21.834  0.00  0.00    +0.000 A 
ATOM     14  C   UNL     1      -0.637  10.489  22.848  0.00  0.00    +0.000 A 
ATOM     15  C   UNL     1      -0.174   9.176  22.730  0.00  0.00    +0.000 A 
ATOM     16  C   UNL     1       0.538   8.785  21.592  0.00  0.00    +0.000 A 
ATOM     17  C   UNL     1       1.051   7.441  21.417  0.00  0.00    +0.000 A 
ATOM     18  C   UNL     1       1.673   7.052  20.288  0.00  0.00    +0.000 A 
ENDBRANCH   1  18
BRANCH   5  19
ATOM     19  N   UNL     1       5.305   4.167  17.665  0.00  0.00    +0.000 NA
ATOM     20  C   UNL     1       6.243   5.042  17.871  0.00  0.00    +0.000 C 
ATOM     21  C   UNL     1       7.015   5.619  16.712  0.00  0.00    +0.000 C 
ATOM     22  C   UNL     1       7.697   6.814  17.367  0.00  0.00    +0.000 C 
ATOM     23  C   UNL     1       7.945   6.371  18.803  0.00  0.00    +0.000 C 
ATOM     24  C   UNL     1       6.680   5.616  19.194  0.00  0.00    +0.000 C 
ENDBRANCH   5  19
TORSDOF 2
ENDMDL
MODEL 6
REMARK VINA RESULT:      -7.4      4.706      7.167
REMARK  Name = 
REMARK  2 active torsions:
REMARK  status: ('A' for Active; 'I' for Inactive)
REMARK    1  A    between atoms: C_11  and  C_12
REMARK    2  A    between atoms: N_16  and  N_17
REMARK                            x       y       z     vdW  Elec       q    Type
REMARK                         _______ _______ _______ _____ _____    ______ ____
ROOT
ATOM      1  C   UNL     1       0.739  10.677  18.795  0.00  0.00    +0.000 A 
ATOM      2  C   UNL     1       1.349  11.912  18.868  0.00  0.00    +0.000 A 
ATOM      3  S   UNL     1       0.185  13.151  18.669  0.00  0.00    +0.000 S 
ATOM      4  C   UNL     1      -1.054  11.967  18.518  0.00  0.00    +0.000 A 
ATOM      5  N   UNL     1      -2.341  12.380  18.411  0.00  0.00    +0.000 N 
ATOM      6  N   UNL     1      -0.632  10.722  18.557  0.00  0.00    +0.000 NA
ATOM      7  H   UNL     1      -2.481  13.378  18.517  0.00  0.00    +0.000 HD
ENDROOT
BRANCH   1  18
ATOM      8  O   UNL     1       0.361   9.066  21.180  0.00  0.00    +0.000 OA
ATOM      9  C   UNL     1       1.113   8.656  20.301  0.00  0.00    +0.000 A 
ATOM     10  O   UNL     1       1.788   7.451  20.482  0.00  0.00    +0.000 OA
ATOM     11  C   UNL     1       2.570   6.878  19.469  0.00  0.00    +0.000 A 
ATOM     12  C   UNL     1       3.136   5.629  19.723  0.00  0.00    +0.000 A 
ATOM     13  C   UNL     1       3.886   5.009  18.724  0.00  0.00    +0.000 A 
ATOM     14  C   UNL     1       4.061   5.645  17.491  0.00  0.00    +0.000 A 
ATOM     15  C   UNL     1       3.493   6.901  17.259  0.00  0.00    +0.000 A 
ATOM     16  C   UNL     1       2.743   7.525  18.259  0.00  0.00    +0.000 A 
ATOM     17  C   UNL     1       2.138   8.830  18.079  0.00  0.00    +0.000 A 
ATOM     18  C   UNL     1       1.357   9.394  19.021  0.00  0.00    +0.000 A 
ENDBRANCH   1  18
BRANCH   5  19
ATOM     19  N   UNL     1      -3.358  11.614  17.908  0.00  0.00    +0.000 NA
ATOM     20  C   UNL     1      -4.501  11.674  18.522  0.00  0.00    +0.000 C 
ATOM     21  C   UNL     1      -5.689  10.907  17.999  0.00  0.00    +0.000 C 
ATOM     22  C   UNL     1      -6.637  10.968  19.189  0.00  0.00    +0.000 C 
ATOM     23  C   UNL     1      -6.338  12.309  19.847  0.00  0.00    +0.000 C 
ATOM     24  C   UNL     1      -4.820  12.435  19.783  0.00  0.00    +0.000 C 
ENDBRANCH   5  19
TORSDOF 2
ENDMDL
MODEL 7
REMARK VINA RESULT:      -7.4      2.278      8.227
REMARK  Name = 
REMARK  2 active torsions:
REMARK  status: ('A' for Active; 'I' for Inactive)
REMARK    1  A    between atoms: C_11  and  C_12
REMARK    2  A    between atoms: N_16  and  N_17
REMARK                            x       y       z     vdW  Elec       q    Type
REMARK                         _______ _______ _______ _____ _____    ______ ____
ROOT
ATOM      1  C   UNL     1       2.259   5.430  20.146  0.00  0.00    +0.000 A 
ATOM      2  C   UNL     1       2.171   4.496  21.157  0.00  0.00    +0.000 A 
ATOM      3  S   UNL     1       2.945   3.045  20.682  0.00  0.00    +0.000 S 
ATOM      4  C   UNL     1       3.362   3.759  19.173  0.00  0.00    +0.000 A 
ATOM      5  N   UNL     1       4.132   3.053  18.309  0.00  0.00    +0.000 N 
ATOM      6  N   UNL     1       2.911   4.982  19.000  0.00  0.00    +0.000 NA
ATOM      7  H   UNL     1       4.480   2.172  18.667  0.00  0.00    +0.000 HD
ENDROOT
BRANCH   1  18
ATOM      8  O   UNL     1       2.661   7.364  18.019  0.00  0.00    +0.000 OA
ATOM      9  C   UNL     1       2.109   7.727  19.053  0.00  0.00    +0.000 A 
ATOM     10  O   UNL     1       1.720   9.058  19.194  0.00  0.00    +0.000 OA
ATOM     11  C   UNL     1       0.986   9.504  20.302  0.00  0.00    +0.000 A 
ATOM     12  C   UNL     1       0.575  10.836  20.306  0.00  0.00    +0.000 A 
ATOM     13  C   UNL     1      -0.192  11.305  21.372  0.00  0.00    +0.000 A 
ATOM     14  C   UNL     1      -0.534  10.440  22.416  0.00  0.00    +0.000 A 
ATOM     15  C   UNL     1      -0.105   9.110  22.398  0.00  0.00    +0.000 A 
ATOM     16  C   UNL     1       0.666   8.638  21.332  0.00  0.00    +0.000 A 
ATOM     17  C   UNL     1       1.147   7.272  21.264  0.00  0.00    +0.000 A 
ATOM     18  C   UNL     1       1.828   6.804  20.200  0.00  0.00    +0.000 A 
ENDBRANCH   1  18
BRANCH   5  19
ATOM     19  N   UNL     1       4.217   3.307  16.966  0.00  0.00    +0.000 NA
ATOM     20  C   UNL     1       5.285   3.919  16.549  0.00  0.00    +0.000 C 
ATOM     21  C   UNL     1       5.485   4.186  15.079  0.00  0.00    +0.000 C 
ATOM     22  C   UNL     1       6.616   5.204  15.106  0.00  0.00    +0.000 C 
ATOM     23  C   UNL     1       7.446   4.820  16.324  0.00  0.00    +0.000 C 
ATOM     24  C   UNL     1       6.416   4.454  17.387  0.00  0.00    +0.000 C 
ENDBRANCH   5  19
TORSDOF 2
ENDMDL
MODEL 8
REMARK VINA RESULT:      -7.4      5.723     10.032
REMARK  Name = 
REMARK  2 active torsions:
REMARK  status: ('A' for Active; 'I' for Inactive)
REMARK    1  A    between atoms: C_11  and  C_12
REMARK    2  A    between atoms: N_16  and  N_17
REMARK                            x       y       z     vdW  Elec       q    Type
REMARK                         _______ _______ _______ _____ _____    ______ ____
ROOT
ATOM      1  C   UNL     1       0.839   9.773  19.930  0.00  0.00    +0.000 A 
ATOM      2  C   UNL     1       1.264  10.188  18.686  0.00  0.00    +0.000 A 
ATOM      3  S   UNL     1       2.184   8.951  17.940  0.00  0.00    +0.000 S 
ATOM      4  C   UNL     1       1.941   7.940  19.312  0.00  0.00    +0.000 A 
ATOM      5  N   UNL     1       2.412   6.670  19.277  0.00  0.00    +0.000 N 
ATOM      6  N   UNL     1       1.265   8.498  20.293  0.00  0.00    +0.000 NA
ATOM      7  H   UNL     1       2.805   6.383  18.389  0.00  0.00    +0.000 HD
ENDROOT
BRANCH   1  18
ATOM      8  O   UNL     1       1.045   9.736  22.826  0.00  0.00    +0.000 OA
ATOM      9  C   UNL     1       0.136  10.375  22.304  0.00  0.00    +0.000 A 
ATOM     10  O   UNL     1      -0.790  11.035  23.110  0.00  0.00    +0.000 OA
ATOM     11  C   UNL     1      -1.781  11.869  22.573  0.00  0.00    +0.000 A 
ATOM     12  C   UNL     1      -2.604  12.549  23.470  0.00  0.00    +0.000 A 
ATOM     13  C   UNL     1      -3.573  13.420  22.975  0.00  0.00    +0.000 A 
ATOM     14  C   UNL     1      -3.707  13.597  21.594  0.00  0.00    +0.000 A 
ATOM     15  C   UNL     1      -2.878  12.901  20.710  0.00  0.00    +0.000 A 
ATOM     16  C   UNL     1      -1.907  12.025  21.205  0.00  0.00    +0.000 A 
ATOM     17  C   UNL     1      -1.026  11.269  20.337  0.00  0.00    +0.000 A 
ATOM     18  C   UNL     1      -0.045  10.483  20.821  0.00  0.00    +0.000 A 
ENDBRANCH   1  18
BRANCH   5  19
ATOM     19  N   UNL     1       2.641   5.901  20.386  0.00  0.00    +0.000 NA
ATOM     20  C   UNL     1       2.123   4.709  20.394  0.00  0.00    +0.000 C 
ATOM     21  C   UNL     1       2.375   3.776  21.551  0.00  0.00    +0.000 C 
ATOM     22  C   UNL     1       1.315   2.708  21.316  0.00  0.00    +0.000 C 
ATOM     23  C   UNL     1       1.171   2.642  19.802  0.00  0.00    +0.000 C 
ATOM     24  C   UNL     1       1.228   4.096  19.348  0.00  0.00    +0.000 C 
ENDBRANCH   5  19
TORSDOF 2
ENDMDL
MODEL 9
REMARK VINA RESULT:      -7.3      4.515      6.470
REMARK  Name = 
REMARK  2 active torsions:
REMARK  status: ('A' for Active; 'I' for Inactive)
REMARK    1  A    between atoms: C_11  and  C_12
REMARK    2  A    between atoms: N_16  and  N_17
REMARK                            x       y       z     vdW  Elec       q    Type
REMARK                         _______ _______ _______ _____ _____    ______ ____
ROOT
ATOM      1  C   UNL     1       1.200   8.582  20.374  0.00  0.00    +0.000 A 
ATOM      2  C   UNL     1       1.222   9.229  21.592  0.00  0.00    +0.000 A 
ATOM      3  S   UNL     1       0.240  10.630  21.527  0.00  0.00    +0.000 S 
ATOM      4  C   UNL     1      -0.164  10.275  19.892  0.00  0.00    +0.000 A 
ATOM      5  N   UNL     1      -1.065  11.063  19.257  0.00  0.00    +0.000 N 
ATOM      6  N   UNL     1       0.433   9.212  19.398  0.00  0.00    +0.000 NA
ATOM      7  H   UNL     1      -1.505  11.766  19.839  0.00  0.00    +0.000 HD
ENDROOT
BRANCH   1  18
ATOM      8  O   UNL     1       2.974   8.124  18.122  0.00  0.00    +0.000 OA
ATOM      9  C   UNL     1       2.691   7.182  18.855  0.00  0.00    +0.000 A 
ATOM     10  O   UNL     1       3.199   5.915  18.572  0.00  0.00    +0.000 OA
ATOM     11  C   UNL     1       3.003   4.827  19.434  0.00  0.00    +0.000 A 
ATOM     12  C   UNL     1       3.624   3.623  19.100  0.00  0.00    +0.000 A 
ATOM     13  C   UNL     1       3.486   2.530  19.954  0.00  0.00    +0.000 A 
ATOM     14  C   UNL     1       2.732   2.654  21.126  0.00  0.00    +0.000 A 
ATOM     15  C   UNL     1       2.111   3.866  21.439  0.00  0.00    +0.000 A 
ATOM     16  C   UNL     1       2.245   4.963  20.583  0.00  0.00    +0.000 A 
ATOM     17  C   UNL     1       1.617   6.241  20.850  0.00  0.00    +0.000 A 
ATOM     18  C   UNL     1       1.809   7.314  20.059  0.00  0.00    +0.000 A 
ENDBRANCH   1  18
BRANCH   5  19
ATOM     19  N   UNL     1      -1.191  11.151  17.897  0.00  0.00    +0.000 NA
ATOM     20  C   UNL     1      -2.395  11.105  17.411  0.00  0.00    +0.000 C 
ATOM     21  C   UNL     1      -2.626  11.254  15.929  0.00  0.00    +0.000 C 
ATOM     22  C   UNL     1      -4.064  10.773  15.796  0.00  0.00    +0.000 C 
ATOM     23  C   UNL     1      -4.726  11.183  17.106  0.00  0.00    +0.000 C 
ATOM     24  C   UNL     1      -3.677  10.887  18.172  0.00  0.00    +0.000 C 
ENDBRANCH   5  19
TORSDOF 2
ENDMDL
