MODEL 1
REMARK VINA RESULT:      -8.1      0.000      0.000
REMARK  Name = 
REMARK  7 active torsions:
REMARK  status: ('A' for Active; 'I' for Inactive)
REMARK    1  A    between atoms: C_1  and  C_2
REMARK    2  A    between atoms: C_8  and  N_9
REMARK    3  A    between atoms: C_10  and  C_12
REMARK    4  A    between atoms: C_12  and  N_13
REMARK    5  A    between atoms: C_15  and  S_16
REMARK    6  A    between atoms: S_16  and  C_19
REMARK    7  A    between atoms: C_19  and  C_20
REMARK                            x       y       z     vdW  Elec       q    Type
REMARK                         _______ _______ _______ _____ _____    ______ ____
ROOT
ATOM      1  N   UNL     1       0.845  10.390  18.640  0.00  0.00    +0.000 N 
ATOM      2  C   UNL     1       1.155  11.255  19.666  0.00  0.00    +0.000 A 
ATOM      3  C   UNL     1      -0.008  11.910  20.022  0.00  0.00    +0.000 A 
ATOM      4  C   UNL     1      -1.060  11.417  19.191  0.00  0.00    +0.000 A 
ATOM      5  C   UNL     1      -2.437  11.697  19.072  0.00  0.00    +0.000 A 
ATOM      6  C   UNL     1      -3.210  11.008  18.132  0.00  0.00    +0.000 A 
ATOM      7  C   UNL     1      -2.632  10.050  17.307  0.00  0.00    +0.000 A 
ATOM      8  C   UNL     1      -1.269   9.760  17.390  0.00  0.00    +0.000 A 
ATOM      9  C   UNL     1      -0.500  10.456  18.340  0.00  0.00    +0.000 A 
ENDROOT
BRANCH   3  10
ATOM     10  S   UNL     1      -0.218  13.147  21.228  0.00  0.00    +0.000 S 
ATOM     11  O   UNL     1       1.134  13.364  21.704  0.00  0.00    +0.000 OA
ATOM     12  O   UNL     1      -0.968  14.168  20.526  0.00  0.00    +0.000 OA
BRANCH  10  13
ATOM     13  C   UNL     1      -1.209  12.427  22.523  0.00  0.00    +0.000 C 
BRANCH  13  14
ATOM     14  C   UNL     1      -2.005  13.500  23.235  0.00  0.00    +0.000 A 
ATOM     15  C   UNL     1      -1.332  14.379  24.109  0.00  0.00    +0.000 A 
ATOM     16  C   UNL     1      -2.029  15.339  24.843  0.00  0.00    +0.000 A 
ATOM     17  C   UNL     1      -3.411  15.453  24.718  0.00  0.00    +0.000 A 
ATOM     18  C   UNL     1      -4.092  14.611  23.837  0.00  0.00    +0.000 A 
ATOM     19  C   UNL     1      -3.396  13.646  23.097  0.00  0.00    +0.000 A 
ATOM     20 CL   UNL     1      -4.321  12.635  22.046  0.00  0.00    +0.000 Cl
ENDBRANCH  13  14
ENDBRANCH  10  13
ENDBRANCH   3  10
BRANCH   1  21
ATOM     21  C   UNL     1       1.814   9.579  17.918  0.00  0.00    +0.000 C 
BRANCH  21  23
ATOM     22  N   UNL     1       2.650   7.246  17.649  0.00  0.00    +0.000 N 
ATOM     23  C   UNL     1       2.114   8.206  18.493  0.00  0.00    +0.000 C 
ATOM     24  O   UNL     1       1.875   8.033  19.691  0.00  0.00    +0.000 OA
ATOM     25  H   UNL     1       3.009   7.558  16.753  0.00  0.00    +0.000 HD
BRANCH  22  33
ATOM     26  C   UNL     1       5.438   6.284  17.772  0.00  0.00    +0.000 C 
ATOM     27  C   UNL     1       4.236   5.420  18.060  0.00  0.00    +0.000 A 
ATOM     28  C   UNL     1       4.476   4.073  18.404  0.00  0.00    +0.000 A 
ATOM     29  C   UNL     1       3.422   3.202  18.676  0.00  0.00    +0.000 A 
ATOM     30  C   UNL     1       2.118   3.662  18.577  0.00  0.00    +0.000 A 
ATOM     31 CL   UNL     1       0.808   2.588  18.888  0.00  0.00    +0.000 Cl
ATOM     32  C   UNL     1       1.861   4.985  18.224  0.00  0.00    +0.000 A 
ATOM     33  C   UNL     1       2.906   5.889  17.983  0.00  0.00    +0.000 A 
ENDBRANCH  22  33
ENDBRANCH  21  23
ENDBRANCH   1  21
TORSDOF 6
ENDMDL
MODEL 2
REMARK VINA RESULT:      -8.1      0.946      1.358
REMARK  Name = 
REMARK  7 active torsions:
REMARK  status: ('A' for Active; 'I' for Inactive)
REMARK    1  A    between atoms: C_1  and  C_2
REMARK    2  A    between atoms: C_8  and  N_9
REMARK    3  A    between atoms: C_10  and  C_12
REMARK    4  A    between atoms: C_12  and  N_13
REMARK    5  A    between atoms: C_15  and  S_16
REMARK    6  A    between atoms: S_16  and  C_19
REMARK    7  A    between atoms: C_19  and  C_20
REMARK                            x       y       z     vdW  Elec       q    Type
REMARK                         _______ _______ _______ _____ _____    ______ ____
ROOT
ATOM      1  N   UNL     1       0.821  10.397  18.691  0.00  0.00    +0.000 N 
ATOM      2  C   UNL     1       1.085  11.238  19.748  0.00  0.00    +0.000 A 
ATOM      3  C   UNL     1      -0.100  11.863  20.088  0.00  0.00    +0.000 A 
ATOM      4  C   UNL     1      -1.118  11.375  19.213  0.00  0.00    +0.000 A 
ATOM      5  C   UNL     1      -2.496  11.635  19.061  0.00  0.00    +0.000 A 
ATOM      6  C   UNL     1      -3.228  10.958  18.080  0.00  0.00    +0.000 A 
ATOM      7  C   UNL     1      -2.610  10.034  17.246  0.00  0.00    +0.000 A 
ATOM      8  C   UNL     1      -1.244   9.766  17.362  0.00  0.00    +0.000 A 
ATOM      9  C   UNL     1      -0.516  10.448  18.353  0.00  0.00    +0.000 A 
ENDROOT
BRANCH   3  10
ATOM     10  S   UNL     1      -0.367  13.062  21.321  0.00  0.00    +0.000 S 
ATOM     11  O   UNL     1       0.976  13.354  21.780  0.00  0.00    +0.000 OA
ATOM     12  O   UNL     1      -1.191  14.046  20.649  0.00  0.00    +0.000 OA
BRANCH  10  13
ATOM     13  C   UNL     1      -1.290  12.257  22.616  0.00  0.00    +0.000 C 
BRANCH  13  14
ATOM     14  C   UNL     1      -2.565  13.020  22.905  0.00  0.00    +0.000 A 
ATOM     15  C   UNL     1      -3.771  12.574  22.327  0.00  0.00    +0.000 A 
ATOM     16  C   UNL     1      -4.961  13.280  22.505  0.00  0.00    +0.000 A 
ATOM     17  C   UNL     1      -4.980  14.443  23.270  0.00  0.00    +0.000 A 
ATOM     18  C   UNL     1      -3.803  14.886  23.874  0.00  0.00    +0.000 A 
ATOM     19  C   UNL     1      -2.605  14.179  23.699  0.00  0.00    +0.000 A 
ATOM     20 CL   UNL     1      -1.193  14.810  24.468  0.00  0.00    +0.000 Cl
ENDBRANCH  13  14
ENDBRANCH  10  13
ENDBRANCH   3  10
BRANCH   1  21
ATOM     21  C   UNL     1       1.825   9.623  17.976  0.00  0.00    +0.000 C 
BRANCH  21  23
ATOM     22  N   UNL     1       2.660   7.297  17.650  0.00  0.00    +0.000 N 
ATOM     23  C   UNL     1       2.129   8.238  18.518  0.00  0.00    +0.000 C 
ATOM     24  O   UNL     1       1.898   8.039  19.713  0.00  0.00    +0.000 OA
ATOM     25  H   UNL     1       3.013   7.629  16.758  0.00  0.00    +0.000 HD
BRANCH  22  33
ATOM     26  C   UNL     1       5.448   6.329  17.712  0.00  0.00    +0.000 C 
ATOM     27  C   UNL     1       4.250   5.461  18.001  0.00  0.00    +0.000 A 
ATOM     28  C   UNL     1       4.492   4.107  18.313  0.00  0.00    +0.000 A 
ATOM     29  C   UNL     1       3.441   3.232  18.583  0.00  0.00    +0.000 A 
ATOM     30  C   UNL     1       2.136   3.695  18.513  0.00  0.00    +0.000 A 
ATOM     31 CL   UNL     1       0.829   2.618  18.820  0.00  0.00    +0.000 Cl
ATOM     32  C   UNL     1       1.876   5.026  18.190  0.00  0.00    +0.000 A 
ATOM     33  C   UNL     1       2.919   5.933  17.952  0.00  0.00    +0.000 A 
ENDBRANCH  22  33
ENDBRANCH  21  23
ENDBRANCH   1  21
TORSDOF 6
ENDMDL
MODEL 3
REMARK VINA RESULT:      -8.0      2.654      3.869
REMARK  Name = 
REMARK  7 active torsions:
REMARK  status: ('A' for Active; 'I' for Inactive)
REMARK    1  A    between atoms: C_1  and  C_2
REMARK    2  A    between atoms: C_8  and  N_9
REMARK    3  A    between atoms: C_10  and  C_12
REMARK    4  A    between atoms: C_12  and  N_13
REMARK    5  A    between atoms: C_15  and  S_16
REMARK    6  A    between atoms: S_16  and  C_19
REMARK    7  A    between atoms: C_19  and  C_20
REMARK                            x       y       z     vdW  Elec       q    Type
REMARK                         _______ _______ _______ _____ _____    ______ ____
ROOT
ATOM      1  N   UNL     1      -0.053  10.795  21.734  0.00  0.00    +0.000 N 
ATOM      2  C   UNL     1      -1.167  11.170  22.451  0.00  0.00    +0.000 A 
ATOM      3  C   UNL     1      -1.718  12.267  21.818  0.00  0.00    +0.000 A 
ATOM      4  C   UNL     1      -0.917  12.559  20.672  0.00  0.00    +0.000 A 
ATOM      5  C   UNL     1      -0.962  13.542  19.661  0.00  0.00    +0.000 A 
ATOM      6  C   UNL     1      -0.000  13.542  18.646  0.00  0.00    +0.000 A 
ATOM      7  C   UNL     1       1.008  12.586  18.626  0.00  0.00    +0.000 A 
ATOM      8  C   UNL     1       1.089  11.609  19.621  0.00  0.00    +0.000 A 
ATOM      9  C   UNL     1       0.115  11.614  20.636  0.00  0.00    +0.000 A 
ENDROOT
BRANCH   3  10
ATOM     10  S   UNL     1      -3.111  13.195  22.295  0.00  0.00    +0.000 S 
ATOM     11  O   UNL     1      -3.948  12.206  22.946  0.00  0.00    +0.000 OA
ATOM     12  O   UNL     1      -2.532  14.314  23.009  0.00  0.00    +0.000 OA
BRANCH  10  13
ATOM     13  C   UNL     1      -3.887  13.750  20.790  0.00  0.00    +0.000 C 
BRANCH  13  14
ATOM     14  C   UNL     1      -5.111  12.911  20.488  0.00  0.00    +0.000 A 
ATOM     15  C   UNL     1      -6.273  13.100  21.263  0.00  0.00    +0.000 A 
ATOM     16  C   UNL     1      -7.404  12.305  21.073  0.00  0.00    +0.000 A 
ATOM     17  C   UNL     1      -7.407  11.309  20.101  0.00  0.00    +0.000 A 
ATOM     18  C   UNL     1      -6.276  11.125  19.303  0.00  0.00    +0.000 A 
ATOM     19  C   UNL     1      -5.138  11.922  19.490  0.00  0.00    +0.000 A 
ATOM     20 CL   UNL     1      -3.778  11.612  18.473  0.00  0.00    +0.000 Cl
ENDBRANCH  13  14
ENDBRANCH  10  13
ENDBRANCH   3  10
BRANCH   1  21
ATOM     21  C   UNL     1       0.865   9.734  22.122  0.00  0.00    +0.000 C 
BRANCH  21  23
ATOM     22  N   UNL     1       1.897   7.798  20.938  0.00  0.00    +0.000 N 
ATOM     23  C   UNL     1       0.737   8.418  21.377  0.00  0.00    +0.000 C 
ATOM     24  O   UNL     1      -0.401   7.968  21.220  0.00  0.00    +0.000 OA
ATOM     25  H   UNL     1       2.778   8.136  21.310  0.00  0.00    +0.000 HD
BRANCH  22  33
ATOM     26  C   UNL     1       2.594   8.005  18.076  0.00  0.00    +0.000 C 
ATOM     27  C   UNL     1       2.315   6.702  18.783  0.00  0.00    +0.000 A 
ATOM     28  C   UNL     1       2.392   5.521  18.015  0.00  0.00    +0.000 A 
ATOM     29  C   UNL     1       2.139   4.275  18.586  0.00  0.00    +0.000 A 
ATOM     30  C   UNL     1       1.778   4.200  19.922  0.00  0.00    +0.000 A 
ATOM     31 CL   UNL     1       1.440   2.668  20.632  0.00  0.00    +0.000 Cl
ATOM     32  C   UNL     1       1.681   5.357  20.693  0.00  0.00    +0.000 A 
ATOM     33  C   UNL     1       1.968   6.618  20.149  0.00  0.00    +0.000 A 
ENDBRANCH  22  33
ENDBRANCH  21  23
ENDBRANCH   1  21
TORSDOF 6
ENDMDL
MODEL 4
REMARK VINA RESULT:      -7.9      3.496      4.621
REMARK  Name = 
REMARK  7 active torsions:
REMARK  status: ('A' for Active; 'I' for Inactive)
REMARK    1  A    between atoms: C_1  and  C_2
REMARK    2  A    between atoms: C_8  and  N_9
REMARK    3  A    between atoms: C_10  and  C_12
REMARK    4  A    between atoms: C_12  and  N_13
REMARK    5  A    between atoms: C_15  and  S_16
REMARK    6  A    between atoms: S_16  and  C_19
REMARK    7  A    between atoms: C_19  and  C_20
REMARK                            x       y       z     vdW  Elec       q    Type
REMARK                         _______ _______ _______ _____ _____    ______ ____
ROOT
ATOM      1  N   UNL     1       0.621  11.000  21.642  0.00  0.00    +0.000 N 
ATOM      2  C   UNL     1       1.261  11.638  20.604  0.00  0.00    +0.000 A 
ATOM      3  C   UNL     1       0.478  12.715  20.233  0.00  0.00    +0.000 A 
ATOM      4  C   UNL     1      -0.669  12.734  21.083  0.00  0.00    +0.000 A 
ATOM      5  C   UNL     1      -1.806  13.563  21.186  0.00  0.00    +0.000 A 
ATOM      6  C   UNL     1      -2.770  13.305  22.166  0.00  0.00    +0.000 A 
ATOM      7  C   UNL     1      -2.623  12.232  23.038  0.00  0.00    +0.000 A 
ATOM      8  C   UNL     1      -1.516  11.385  22.951  0.00  0.00    +0.000 A 
ATOM      9  C   UNL     1      -0.550  11.654  21.966  0.00  0.00    +0.000 A 
ENDROOT
BRANCH   3  10
ATOM     10  S   UNL     1       0.761  13.857  18.950  0.00  0.00    +0.000 S 
ATOM     11  O   UNL     1       2.092  13.505  18.495  0.00  0.00    +0.000 OA
ATOM     12  O   UNL     1      -0.411  13.707  18.113  0.00  0.00    +0.000 OA
BRANCH  10  13
ATOM     13  C   UNL     1       0.784  15.470  19.706  0.00  0.00    +0.000 C 
BRANCH  13  14
ATOM     14  C   UNL     1       0.686  16.548  18.648  0.00  0.00    +0.000 A 
ATOM     15  C   UNL     1       1.821  16.835  17.862  0.00  0.00    +0.000 A 
ATOM     16  C   UNL     1       1.806  17.866  16.923  0.00  0.00    +0.000 A 
ATOM     17  C   UNL     1       0.658  18.631  16.737  0.00  0.00    +0.000 A 
ATOM     18  C   UNL     1      -0.486  18.345  17.485  0.00  0.00    +0.000 A 
ATOM     19  C   UNL     1      -0.475  17.309  18.429  0.00  0.00    +0.000 A 
ATOM     20 CL   UNL     1      -1.927  17.038  19.323  0.00  0.00    +0.000 Cl
ENDBRANCH  13  14
ENDBRANCH  10  13
ENDBRANCH   3  10
BRANCH   1  21
ATOM     21  C   UNL     1       1.073   9.761  22.259  0.00  0.00    +0.000 C 
BRANCH  21  23
ATOM     22  N   UNL     1       1.955   7.849  20.926  0.00  0.00    +0.000 N 
ATOM     23  C   UNL     1       0.849   8.486  21.468  0.00  0.00    +0.000 C 
ATOM     24  O   UNL     1      -0.312   8.082  21.367  0.00  0.00    +0.000 OA
ATOM     25  H   UNL     1       2.870   8.140  21.253  0.00  0.00    +0.000 HD
BRANCH  22  33
ATOM     26  C   UNL     1       2.623   8.140  18.065  0.00  0.00    +0.000 C 
ATOM     27  C   UNL     1       2.264   6.829  18.716  0.00  0.00    +0.000 A 
ATOM     28  C   UNL     1       2.247   5.682  17.895  0.00  0.00    +0.000 A 
ATOM     29  C   UNL     1       1.916   4.431  18.412  0.00  0.00    +0.000 A 
ATOM     30  C   UNL     1       1.570   4.319  19.750  0.00  0.00    +0.000 A 
ATOM     31 CL   UNL     1       1.136   2.783  20.395  0.00  0.00    +0.000 Cl
ATOM     32  C   UNL     1       1.565   5.443  20.574  0.00  0.00    +0.000 A 
ATOM     33  C   UNL     1       1.932   6.705  20.083  0.00  0.00    +0.000 A 
ENDBRANCH  22  33
ENDBRANCH  21  23
ENDBRANCH   1  21
TORSDOF 6
ENDMDL
MODEL 5
REMARK VINA RESULT:      -7.9      2.588      3.370
REMARK  Name = 
REMARK  7 active torsions:
REMARK  status: ('A' for Active; 'I' for Inactive)
REMARK    1  A    between atoms: C_1  and  C_2
REMARK    2  A    between atoms: C_8  and  N_9
REMARK    3  A    between atoms: C_10  and  C_12
REMARK    4  A    between atoms: C_12  and  N_13
REMARK    5  A    between atoms: C_15  and  S_16
REMARK    6  A    between atoms: S_16  and  C_19
REMARK    7  A    between atoms: C_19  and  C_20
REMARK                            x       y       z     vdW  Elec       q    Type
REMARK                         _______ _______ _______ _____ _____    ______ ____
ROOT
ATOM      1  N   UNL     1       0.308  10.618  21.786  0.00  0.00    +0.000 N 
ATOM      2  C   UNL     1      -0.733  10.887  22.645  0.00  0.00    +0.000 A 
ATOM      3  C   UNL     1      -1.397  11.997  22.159  0.00  0.00    +0.000 A 
ATOM      4  C   UNL     1      -0.740  12.407  20.959  0.00  0.00    +0.000 A 
ATOM      5  C   UNL     1      -0.939  13.455  20.035  0.00  0.00    +0.000 A 
ATOM      6  C   UNL     1      -0.096  13.573  18.924  0.00  0.00    +0.000 A 
ATOM      7  C   UNL     1       0.942  12.671  18.724  0.00  0.00    +0.000 A 
ATOM      8  C   UNL     1       1.173  11.632  19.629  0.00  0.00    +0.000 A 
ATOM      9  C   UNL     1       0.319  11.519  20.741  0.00  0.00    +0.000 A 
ENDROOT
BRANCH   3  10
ATOM     10  S   UNL     1      -2.765  12.820  22.851  0.00  0.00    +0.000 S 
ATOM     11  O   UNL     1      -3.230  11.881  23.853  0.00  0.00    +0.000 OA
ATOM     12  O   UNL     1      -2.228  14.120  23.195  0.00  0.00    +0.000 OA
BRANCH  10  13
ATOM     13  C   UNL     1      -3.975  12.969  21.551  0.00  0.00    +0.000 C 
BRANCH  13  14
ATOM     14  C   UNL     1      -5.372  12.995  22.133  0.00  0.00    +0.000 A 
ATOM     15  C   UNL     1      -5.586  13.655  23.361  0.00  0.00    +0.000 A 
ATOM     16  C   UNL     1      -6.838  13.648  23.975  0.00  0.00    +0.000 A 
ATOM     17  C   UNL     1      -7.911  12.991  23.377  0.00  0.00    +0.000 A 
ATOM     18  C   UNL     1      -7.727  12.356  22.148  0.00  0.00    +0.000 A 
ATOM     19  C   UNL     1      -6.470  12.361  21.527  0.00  0.00    +0.000 A 
ATOM     20 CL   UNL     1      -6.329  11.533  20.018  0.00  0.00    +0.000 Cl
ENDBRANCH  13  14
ENDBRANCH  10  13
ENDBRANCH   3  10
BRANCH   1  21
ATOM     21  C   UNL     1       1.307   9.579  21.992  0.00  0.00    +0.000 C 
BRANCH  21  23
ATOM     22  N   UNL     1       2.158   7.569  20.789  0.00  0.00    +0.000 N 
ATOM     23  C   UNL     1       1.064   8.254  21.294  0.00  0.00    +0.000 C 
ATOM     24  O   UNL     1      -0.102   7.856  21.231  0.00  0.00    +0.000 OA
ATOM     25  H   UNL     1       3.079   7.873  21.088  0.00  0.00    +0.000 HD
BRANCH  22  33
ATOM     26  C   UNL     1       2.836   7.646  17.917  0.00  0.00    +0.000 C 
ATOM     27  C   UNL     1       2.453   6.390  18.658  0.00  0.00    +0.000 A 
ATOM     28  C   UNL     1       2.417   5.188  17.920  0.00  0.00    +0.000 A 
ATOM     29  C   UNL     1       2.064   3.983  18.523  0.00  0.00    +0.000 A 
ATOM     30  C   UNL     1       1.713   3.972  19.864  0.00  0.00    +0.000 A 
ATOM     31 CL   UNL     1       1.251   2.493  20.615  0.00  0.00    +0.000 Cl
ATOM     32  C   UNL     1       1.727   5.151  20.607  0.00  0.00    +0.000 A 
ATOM     33  C   UNL     1       2.116   6.369  20.030  0.00  0.00    +0.000 A 
ENDBRANCH  22  33
ENDBRANCH  21  23
ENDBRANCH   1  21
TORSDOF 6
ENDMDL
MODEL 6
REMARK VINA RESULT:      -7.9      2.663      3.493
REMARK  Name = 
REMARK  7 active torsions:
REMARK  status: ('A' for Active; 'I' for Inactive)
REMARK    1  A    between atoms: C_1  and  C_2
REMARK    2  A    between atoms: C_8  and  N_9
REMARK    3  A    between atoms: C_10  and  C_12
REMARK    4  A    between atoms: C_12  and  N_13
REMARK    5  A    between atoms: C_15  and  S_16
REMARK    6  A    between atoms: S_16  and  C_19
REMARK    7  A    between atoms: C_19  and  C_20
REMARK                            x       y       z     vdW  Elec       q    Type
REMARK                         _______ _______ _______ _____ _____    ______ ____
ROOT
ATOM      1  N   UNL     1      -0.046  10.651  22.016  0.00  0.00    +0.000 N 
ATOM      2  C   UNL     1      -1.056  10.869  22.926  0.00  0.00    +0.000 A 
ATOM      3  C   UNL     1      -1.796  11.946  22.475  0.00  0.00    +0.000 A 
ATOM      4  C   UNL     1      -1.220  12.387  21.245  0.00  0.00    +0.000 A 
ATOM      5  C   UNL     1      -1.514  13.424  20.335  0.00  0.00    +0.000 A 
ATOM      6  C   UNL     1      -0.734  13.583  19.185  0.00  0.00    +0.000 A 
ATOM      7  C   UNL     1       0.336  12.732  18.932  0.00  0.00    +0.000 A 
ATOM      8  C   UNL     1       0.661  11.706  19.822  0.00  0.00    +0.000 A 
ATOM      9  C   UNL     1      -0.131  11.551  20.973  0.00  0.00    +0.000 A 
ENDROOT
BRANCH   3  10
ATOM     10  S   UNL     1      -3.167  12.701  23.236  0.00  0.00    +0.000 S 
ATOM     11  O   UNL     1      -3.547  11.732  24.246  0.00  0.00    +0.000 OA
ATOM     12  O   UNL     1      -2.671  14.020  23.572  0.00  0.00    +0.000 OA
BRANCH  10  13
ATOM     13  C   UNL     1      -4.437  12.811  21.992  0.00  0.00    +0.000 C 
BRANCH  13  14
ATOM     14  C   UNL     1      -5.594  13.649  22.494  0.00  0.00    +0.000 A 
ATOM     15  C   UNL     1      -6.548  13.052  23.343  0.00  0.00    +0.000 A 
ATOM     16  C   UNL     1      -7.670  13.758  23.777  0.00  0.00    +0.000 A 
ATOM     17  C   UNL     1      -7.865  15.079  23.382  0.00  0.00    +0.000 A 
ATOM     18  C   UNL     1      -6.917  15.698  22.565  0.00  0.00    +0.000 A 
ATOM     19  C   UNL     1      -5.788  14.992  22.128  0.00  0.00    +0.000 A 
ATOM     20 CL   UNL     1      -4.677  15.829  21.104  0.00  0.00    +0.000 Cl
ENDBRANCH  13  14
ENDBRANCH  10  13
ENDBRANCH   3  10
BRANCH   1  21
ATOM     21  C   UNL     1       1.011   9.662  22.170  0.00  0.00    +0.000 C 
BRANCH  21  23
ATOM     22  N   UNL     1       1.978   7.724  20.936  0.00  0.00    +0.000 N 
ATOM     23  C   UNL     1       0.840   8.360  21.409  0.00  0.00    +0.000 C 
ATOM     24  O   UNL     1      -0.310   7.936  21.270  0.00  0.00    +0.000 OA
ATOM     25  H   UNL     1       2.873   8.039  21.294  0.00  0.00    +0.000 HD
BRANCH  22  33
ATOM     26  C   UNL     1       2.613   7.961  18.063  0.00  0.00    +0.000 C 
ATOM     27  C   UNL     1       2.325   6.653  18.756  0.00  0.00    +0.000 A 
ATOM     28  C   UNL     1       2.362   5.483  17.970  0.00  0.00    +0.000 A 
ATOM     29  C   UNL     1       2.099   4.233  18.528  0.00  0.00    +0.000 A 
ATOM     30  C   UNL     1       1.766   4.145  19.871  0.00  0.00    +0.000 A 
ATOM     31 CL   UNL     1       1.415   2.609  20.566  0.00  0.00    +0.000 Cl
ATOM     32  C   UNL     1       1.709   5.292  20.660  0.00  0.00    +0.000 A 
ATOM     33  C   UNL     1       2.008   6.555  20.129  0.00  0.00    +0.000 A 
ENDBRANCH  22  33
ENDBRANCH  21  23
ENDBRANCH   1  21
TORSDOF 6
ENDMDL
MODEL 7
REMARK VINA RESULT:      -7.9      2.594      4.016
REMARK  Name = 
REMARK  7 active torsions:
REMARK  status: ('A' for Active; 'I' for Inactive)
REMARK    1  A    between atoms: C_1  and  C_2
REMARK    2  A    between atoms: C_8  and  N_9
REMARK    3  A    between atoms: C_10  and  C_12
REMARK    4  A    between atoms: C_12  and  N_13
REMARK    5  A    between atoms: C_15  and  S_16
REMARK    6  A    between atoms: S_16  and  C_19
REMARK    7  A    between atoms: C_19  and  C_20
REMARK                            x       y       z     vdW  Elec       q    Type
REMARK                         _______ _______ _______ _____ _____    ______ ____
ROOT
ATOM      1  N   UNL     1      -0.124  10.913  21.734  0.00  0.00    +0.000 N 
ATOM      2  C   UNL     1      -1.274  11.258  22.408  0.00  0.00    +0.000 A 
ATOM      3  C   UNL     1      -1.826  12.345  21.758  0.00  0.00    +0.000 A 
ATOM      4  C   UNL     1      -0.987  12.662  20.646  0.00  0.00    +0.000 A 
ATOM      5  C   UNL     1      -1.017  13.648  19.639  0.00  0.00    +0.000 A 
ATOM      6  C   UNL     1      -0.016  13.677  18.662  0.00  0.00    +0.000 A 
ATOM      7  C   UNL     1       1.016  12.745  18.679  0.00  0.00    +0.000 A 
ATOM      8  C   UNL     1       1.081  11.766  19.672  0.00  0.00    +0.000 A 
ATOM      9  C   UNL     1       0.068  11.742  20.647  0.00  0.00    +0.000 A 
ENDROOT
BRANCH   3  10
ATOM     10  S   UNL     1      -3.260  13.236  22.183  0.00  0.00    +0.000 S 
ATOM     11  O   UNL     1      -4.122  12.210  22.737  0.00  0.00    +0.000 OA
ATOM     12  O   UNL     1      -2.743  14.330  22.979  0.00  0.00    +0.000 OA
BRANCH  10  13
ATOM     13  C   UNL     1      -3.946  13.846  20.656  0.00  0.00    +0.000 C 
BRANCH  13  14
ATOM     14  C   UNL     1      -4.854  12.807  20.035  0.00  0.00    +0.000 A 
ATOM     15  C   UNL     1      -4.326  11.938  19.057  0.00  0.00    +0.000 A 
ATOM     16  C   UNL     1      -5.137  11.011  18.403  0.00  0.00    +0.000 A 
ATOM     17  C   UNL     1      -6.491  10.919  18.713  0.00  0.00    +0.000 A 
ATOM     18  C   UNL     1      -7.028  11.750  19.698  0.00  0.00    +0.000 A 
ATOM     19  C   UNL     1      -6.216  12.683  20.358  0.00  0.00    +0.000 A 
ATOM     20 CL   UNL     1      -6.968  13.683  21.549  0.00  0.00    +0.000 Cl
ENDBRANCH  13  14
ENDBRANCH  10  13
ENDBRANCH   3  10
BRANCH   1  21
ATOM     21  C   UNL     1       0.804   9.873  22.154  0.00  0.00    +0.000 C 
BRANCH  21  23
ATOM     22  N   UNL     1       1.859   7.969  20.939  0.00  0.00    +0.000 N 
ATOM     23  C   UNL     1       0.698   8.539  21.439  0.00  0.00    +0.000 C 
ATOM     24  O   UNL     1      -0.423   8.030  21.359  0.00  0.00    +0.000 OA
ATOM     25  H   UNL     1       2.743   8.358  21.251  0.00  0.00    +0.000 HD
BRANCH  22  33
ATOM     26  C   UNL     1       2.586   8.143  18.083  0.00  0.00    +0.000 C 
ATOM     27  C   UNL     1       2.304   6.848  18.802  0.00  0.00    +0.000 A 
ATOM     28  C   UNL     1       2.392   5.658  18.051  0.00  0.00    +0.000 A 
ATOM     29  C   UNL     1       2.137   4.418  18.634  0.00  0.00    +0.000 A 
ATOM     30  C   UNL     1       1.761   4.359  19.967  0.00  0.00    +0.000 A 
ATOM     31 CL   UNL     1       1.421   2.835  20.693  0.00  0.00    +0.000 Cl
ATOM     32  C   UNL     1       1.653   5.525  20.722  0.00  0.00    +0.000 A 
ATOM     33  C   UNL     1       1.942   6.780  20.166  0.00  0.00    +0.000 A 
ENDBRANCH  22  33
ENDBRANCH  21  23
ENDBRANCH   1  21
TORSDOF 6
ENDMDL
MODEL 8
REMARK VINA RESULT:      -7.8      3.318      4.715
REMARK  Name = 
REMARK  7 active torsions:
REMARK  status: ('A' for Active; 'I' for Inactive)
REMARK    1  A    between atoms: C_1  and  C_2
REMARK    2  A    between atoms: C_8  and  N_9
REMARK    3  A    between atoms: C_10  and  C_12
REMARK    4  A    between atoms: C_12  and  N_13
REMARK    5  A    between atoms: C_15  and  S_16
REMARK    6  A    between atoms: S_16  and  C_19
REMARK    7  A    between atoms: C_19  and  C_20
REMARK                            x       y       z     vdW  Elec       q    Type
REMARK                         _______ _______ _______ _____ _____    ______ ____
ROOT
ATOM      1  N   UNL     1       0.619  10.685  21.560  0.00  0.00    +0.000 N 
ATOM      2  C   UNL     1       1.200  11.236  20.439  0.00  0.00    +0.000 A 
ATOM      3  C   UNL     1       0.439  12.329  20.072  0.00  0.00    +0.000 A 
ATOM      4  C   UNL     1      -0.633  12.449  21.008  0.00  0.00    +0.000 A 
ATOM      5  C   UNL     1      -1.720  13.337  21.154  0.00  0.00    +0.000 A 
ATOM      6  C   UNL     1      -2.611  13.178  22.220  0.00  0.00    +0.000 A 
ATOM      7  C   UNL     1      -2.441  12.147  23.136  0.00  0.00    +0.000 A 
ATOM      8  C   UNL     1      -1.384  11.243  23.010  0.00  0.00    +0.000 A 
ATOM      9  C   UNL     1      -0.491  11.413  21.937  0.00  0.00    +0.000 A 
ENDROOT
BRANCH   3  10
ATOM     10  S   UNL     1       0.666  13.387  18.708  0.00  0.00    +0.000 S 
ATOM     11  O   UNL     1       1.839  12.830  18.063  0.00  0.00    +0.000 OA
ATOM     12  O   UNL     1      -0.638  13.395  18.078  0.00  0.00    +0.000 OA
BRANCH  10  13
ATOM     13  C   UNL     1       1.045  14.995  19.375  0.00  0.00    +0.000 C 
BRANCH  13  14
ATOM     14  C   UNL     1       2.460  15.021  19.913  0.00  0.00    +0.000 A 
ATOM     15  C   UNL     1       2.682  14.667  21.260  0.00  0.00    +0.000 A 
ATOM     16  C   UNL     1       3.955  14.743  21.825  0.00  0.00    +0.000 A 
ATOM     17  C   UNL     1       5.039  15.163  21.060  0.00  0.00    +0.000 A 
ATOM     18  C   UNL     1       4.846  15.490  19.717  0.00  0.00    +0.000 A 
ATOM     19  C   UNL     1       3.568  15.415  19.145  0.00  0.00    +0.000 A 
ATOM     20 CL   UNL     1       3.418  15.857  17.483  0.00  0.00    +0.000 Cl
ENDBRANCH  13  14
ENDBRANCH  10  13
ENDBRANCH   3  10
BRANCH   1  21
ATOM     21  C   UNL     1       1.065   9.461  22.208  0.00  0.00    +0.000 C 
BRANCH  21  23
ATOM     22  N   UNL     1       2.019   7.539  20.938  0.00  0.00    +0.000 N 
ATOM     23  C   UNL     1       0.886   8.173  21.424  0.00  0.00    +0.000 C 
ATOM     24  O   UNL     1      -0.266   7.757  21.279  0.00  0.00    +0.000 OA
ATOM     25  H   UNL     1       2.917   7.843  21.300  0.00  0.00    +0.000 HD
BRANCH  22  33
ATOM     26  C   UNL     1       2.572   7.832  18.053  0.00  0.00    +0.000 C 
ATOM     27  C   UNL     1       2.320   6.510  18.732  0.00  0.00    +0.000 A 
ATOM     28  C   UNL     1       2.350   5.353  17.925  0.00  0.00    +0.000 A 
ATOM     29  C   UNL     1       2.118   4.090  18.469  0.00  0.00    +0.000 A 
ATOM     30  C   UNL     1       1.823   3.976  19.818  0.00  0.00    +0.000 A 
ATOM     31 CL   UNL     1       1.511   2.424  20.497  0.00  0.00    +0.000 Cl
ATOM     32  C   UNL     1       1.774   5.109  20.629  0.00  0.00    +0.000 A 
ATOM     33  C   UNL     1       2.042   6.385  20.111  0.00  0.00    +0.000 A 
ENDBRANCH  22  33
ENDBRANCH  21  23
ENDBRANCH   1  21
TORSDOF 6
ENDMDL
MODEL 9
REMARK VINA RESULT:      -7.8      3.268      9.251
REMARK  Name = 
REMARK  7 active torsions:
REMARK  status: ('A' for Active; 'I' for Inactive)
REMARK    1  A    between atoms: C_1  and  C_2
REMARK    2  A    between atoms: C_8  and  N_9
REMARK    3  A    between atoms: C_10  and  C_12
REMARK    4  A    between atoms: C_12  and  N_13
REMARK    5  A    between atoms: C_15  and  S_16
REMARK    6  A    between atoms: S_16  and  C_19
REMARK    7  A    between atoms: C_19  and  C_20
REMARK                            x       y       z     vdW  Elec       q    Type
REMARK                         _______ _______ _______ _____ _____    ______ ____
ROOT
ATOM      1  N   UNL     1       1.284  10.394  18.745  0.00  0.00    +0.000 N 
ATOM      2  C   UNL     1       2.020   9.507  17.992  0.00  0.00    +0.000 A 
ATOM      3  C   UNL     1       2.137   8.340  18.722  0.00  0.00    +0.000 A 
ATOM      4  C   UNL     1       1.439   8.523  19.954  0.00  0.00    +0.000 A 
ATOM      5  C   UNL     1       1.213   7.716  21.089  0.00  0.00    +0.000 A 
ATOM      6  C   UNL     1       0.454   8.210  22.155  0.00  0.00    +0.000 A 
ATOM      7  C   UNL     1      -0.076   9.494  22.111  0.00  0.00    +0.000 A 
ATOM      8  C   UNL     1       0.143  10.322  21.008  0.00  0.00    +0.000 A 
ATOM      9  C   UNL     1       0.903   9.816  19.939  0.00  0.00    +0.000 A 
ENDROOT
BRANCH   3  10
ATOM     10  S   UNL     1       2.995   6.887  18.294  0.00  0.00    +0.000 S 
ATOM     11  O   UNL     1       3.711   7.279  17.096  0.00  0.00    +0.000 OA
ATOM     12  O   UNL     1       3.672   6.531  19.523  0.00  0.00    +0.000 OA
BRANCH  10  13
ATOM     13  C   UNL     1       1.757   5.671  17.890  0.00  0.00    +0.000 C 
BRANCH  13  14
ATOM     14  C   UNL     1       2.273   4.278  18.181  0.00  0.00    +0.000 A 
ATOM     15  C   UNL     1       3.174   3.683  17.274  0.00  0.00    +0.000 A 
ATOM     16  C   UNL     1       3.625   2.376  17.457  0.00  0.00    +0.000 A 
ATOM     17  C   UNL     1       3.198   1.632  18.553  0.00  0.00    +0.000 A 
ATOM     18  C   UNL     1       2.329   2.212  19.479  0.00  0.00    +0.000 A 
ATOM     19  C   UNL     1       1.874   3.526  19.299  0.00  0.00    +0.000 A 
ATOM     20 CL   UNL     1       0.786   4.156  20.482  0.00  0.00    +0.000 Cl
ENDBRANCH  13  14
ENDBRANCH  10  13
ENDBRANCH   3  10
BRANCH   1  21
ATOM     21  C   UNL     1       1.014  11.775  18.372  0.00  0.00    +0.000 C 
BRANCH  21  23
ATOM     22  N   UNL     1      -1.412  11.243  18.158  0.00  0.00    +0.000 N 
ATOM     23  C   UNL     1      -0.441  12.208  18.377  0.00  0.00    +0.000 C 
ATOM     24  O   UNL     1      -0.673  13.399  18.594  0.00  0.00    +0.000 OA
ATOM     25  H   UNL     1      -1.127  10.271  18.212  0.00  0.00    +0.000 HD
BRANCH  22  33
ATOM     26  C   UNL     1      -2.744  10.752  15.569  0.00  0.00    +0.000 C 
ATOM     27  C   UNL     1      -3.460  11.229  16.807  0.00  0.00    +0.000 A 
ATOM     28  C   UNL     1      -4.849  11.453  16.704  0.00  0.00    +0.000 A 
ATOM     29  C   UNL     1      -5.588  11.905  17.797  0.00  0.00    +0.000 A 
ATOM     30  C   UNL     1      -4.939  12.165  18.994  0.00  0.00    +0.000 A 
ATOM     31 CL   UNL     1      -5.837  12.746  20.343  0.00  0.00    +0.000 Cl
ATOM     32  C   UNL     1      -3.565  11.965  19.110  0.00  0.00    +0.000 A 
ATOM     33  C   UNL     1      -2.809  11.475  18.036  0.00  0.00    +0.000 A 
ENDBRANCH  22  33
ENDBRANCH  21  23
ENDBRANCH   1  21
TORSDOF 6
ENDMDL
