MODEL 1
REMARK VINA RESULT:      -5.5      0.000      0.000
REMARK  Name = 
REMARK  0 active torsions:
REMARK  status: ('A' for Active; 'I' for Inactive)
REMARK                            x       y       z     vdW  Elec       q    Type
REMARK                         _______ _______ _______ _____ _____    ______ ____
ROOT
ATOM      1  O   UNL     1       7.829   5.497  14.681  0.00  0.00    +0.000 OA
ATOM      2  C   UNL     1       6.857   5.056  15.266  0.00  0.00    +0.000 C 
ATOM      3  C   UNL     1       5.667   4.375  14.643  0.00  0.00    +0.000 C 
ATOM      4  C   UNL     1       4.828   3.882  15.833  0.00  0.00    +0.000 C 
ATOM      5  C   UNL     1       5.463   4.519  17.030  0.00  0.00    +0.000 A 
ATOM      6  C   UNL     1       5.047   4.508  18.352  0.00  0.00    +0.000 A 
ATOM      7 BR   UNL     1       3.441   3.659  18.874  0.00  0.00    +0.000 Br
ATOM      8  C   UNL     1       5.834   5.141  19.321  0.00  0.00    +0.000 A 
ATOM      9  C   UNL     1       7.036   5.776  18.967  0.00  0.00    +0.000 A 
ATOM     10  C   UNL     1       7.459   5.789  17.639  0.00  0.00    +0.000 A 
ATOM     11  C   UNL     1       6.655   5.158  16.705  0.00  0.00    +0.000 A 
ENDROOT
TORSDOF 0
ENDMDL
MODEL 2
REMARK VINA RESULT:      -5.5      2.052      3.092
REMARK  Name = 
REMARK  0 active torsions:
REMARK  status: ('A' for Active; 'I' for Inactive)
REMARK                            x       y       z     vdW  Elec       q    Type
REMARK                         _______ _______ _______ _____ _____    ______ ____
ROOT
ATOM      1  O   UNL     1       7.851   4.334  16.634  0.00  0.00    +0.000 OA
ATOM      2  C   UNL     1       7.032   5.183  16.938  0.00  0.00    +0.000 C 
ATOM      3  C   UNL     1       7.307   6.639  17.204  0.00  0.00    +0.000 C 
ATOM      4  C   UNL     1       5.919   7.276  17.381  0.00  0.00    +0.000 C 
ATOM      5  C   UNL     1       4.978   6.114  17.443  0.00  0.00    +0.000 A 
ATOM      6  C   UNL     1       3.617   6.102  17.704  0.00  0.00    +0.000 A 
ATOM      7 BR   UNL     1       2.677   7.689  18.115  0.00  0.00    +0.000 Br
ATOM      8  C   UNL     1       2.924   4.885  17.664  0.00  0.00    +0.000 A 
ATOM      9  C   UNL     1       3.592   3.689  17.357  0.00  0.00    +0.000 A 
ATOM     10  C   UNL     1       4.960   3.696  17.092  0.00  0.00    +0.000 A 
ATOM     11  C   UNL     1       5.616   4.914  17.145  0.00  0.00    +0.000 A 
ENDROOT
TORSDOF 0
ENDMDL
MODEL 3
REMARK VINA RESULT:      -5.5      2.162      2.712
REMARK  Name = 
REMARK  0 active torsions:
REMARK  status: ('A' for Active; 'I' for Inactive)
REMARK                            x       y       z     vdW  Elec       q    Type
REMARK                         _______ _______ _______ _____ _____    ______ ____
ROOT
ATOM      1  O   UNL     1       6.351   7.120  16.305  0.00  0.00    +0.000 OA
ATOM      2  C   UNL     1       5.766   6.061  16.445  0.00  0.00    +0.000 C 
ATOM      3  C   UNL     1       6.189   4.724  15.899  0.00  0.00    +0.000 C 
ATOM      4  C   UNL     1       5.193   3.720  16.501  0.00  0.00    +0.000 C 
ATOM      5  C   UNL     1       4.143   4.572  17.143  0.00  0.00    +0.000 A 
ATOM      6  C   UNL     1       2.950   4.192  17.737  0.00  0.00    +0.000 A 
ATOM      7 BR   UNL     1       2.398   2.385  17.777  0.00  0.00    +0.000 Br
ATOM      8  C   UNL     1       2.135   5.170  18.321  0.00  0.00    +0.000 A 
ATOM      9  C   UNL     1       2.520   6.522  18.314  0.00  0.00    +0.000 A 
ATOM     10  C   UNL     1       3.719   6.908  17.718  0.00  0.00    +0.000 A 
ATOM     11  C   UNL     1       4.498   5.917  17.146  0.00  0.00    +0.000 A 
ENDROOT
TORSDOF 0
ENDMDL
MODEL 4
REMARK VINA RESULT:      -5.4      3.211      4.203
REMARK  Name = 
REMARK  0 active torsions:
REMARK  status: ('A' for Active; 'I' for Inactive)
REMARK                            x       y       z     vdW  Elec       q    Type
REMARK                         _______ _______ _______ _____ _____    ______ ____
ROOT
ATOM      1  O   UNL     1       3.447   1.628  17.813  0.00  0.00    +0.000 OA
ATOM      2  C   UNL     1       3.044   2.763  17.992  0.00  0.00    +0.000 C 
ATOM      3  C   UNL     1       1.751   3.163  18.653  0.00  0.00    +0.000 C 
ATOM      4  C   UNL     1       1.820   4.695  18.759  0.00  0.00    +0.000 C 
ATOM      5  C   UNL     1       3.018   5.074  17.945  0.00  0.00    +0.000 A 
ATOM      6  C   UNL     1       3.482   6.335  17.606  0.00  0.00    +0.000 A 
ATOM      7 BR   UNL     1       2.555   7.900  18.119  0.00  0.00    +0.000 Br
ATOM      8  C   UNL     1       4.665   6.451  16.865  0.00  0.00    +0.000 A 
ATOM      9  C   UNL     1       5.381   5.307  16.472  0.00  0.00    +0.000 A 
ATOM     10  C   UNL     1       4.919   4.037  16.812  0.00  0.00    +0.000 A 
ATOM     11  C   UNL     1       3.744   3.959  17.541  0.00  0.00    +0.000 A 
ENDROOT
TORSDOF 0
ENDMDL
MODEL 5
REMARK VINA RESULT:      -5.4      3.862      4.881
REMARK  Name = 
REMARK  0 active torsions:
REMARK  status: ('A' for Active; 'I' for Inactive)
REMARK                            x       y       z     vdW  Elec       q    Type
REMARK                         _______ _______ _______ _____ _____    ______ ____
ROOT
ATOM      1  O   UNL     1       0.721   3.908  20.030  0.00  0.00    +0.000 OA
ATOM      2  C   UNL     1       1.616   3.662  19.241  0.00  0.00    +0.000 C 
ATOM      3  C   UNL     1       2.070   2.297  18.796  0.00  0.00    +0.000 C 
ATOM      4  C   UNL     1       3.102   2.566  17.691  0.00  0.00    +0.000 C 
ATOM      5  C   UNL     1       3.340   4.043  17.750  0.00  0.00    +0.000 A 
ATOM      6  C   UNL     1       4.259   4.811  17.052  0.00  0.00    +0.000 A 
ATOM      7 BR   UNL     1       5.497   4.027  15.859  0.00  0.00    +0.000 Br
ATOM      8  C   UNL     1       4.271   6.199  17.238  0.00  0.00    +0.000 A 
ATOM      9  C   UNL     1       3.360   6.813  18.113  0.00  0.00    +0.000 A 
ATOM     10  C   UNL     1       2.433   6.046  18.816  0.00  0.00    +0.000 A 
ATOM     11  C   UNL     1       2.453   4.677  18.613  0.00  0.00    +0.000 A 
ENDROOT
TORSDOF 0
ENDMDL
MODEL 6
REMARK VINA RESULT:      -5.4      3.914      5.114
REMARK  Name = 
REMARK  0 active torsions:
REMARK  status: ('A' for Active; 'I' for Inactive)
REMARK                            x       y       z     vdW  Elec       q    Type
REMARK                         _______ _______ _______ _____ _____    ______ ____
ROOT
ATOM      1  O   UNL     1       2.169   7.721  19.696  0.00  0.00    +0.000 OA
ATOM      2  C   UNL     1       2.564   6.698  19.166  0.00  0.00    +0.000 C 
ATOM      3  C   UNL     1       3.418   6.601  17.930  0.00  0.00    +0.000 C 
ATOM      4  C   UNL     1       3.751   5.106  17.798  0.00  0.00    +0.000 C 
ATOM      5  C   UNL     1       2.879   4.436  18.813  0.00  0.00    +0.000 A 
ATOM      6  C   UNL     1       2.689   3.083  19.049  0.00  0.00    +0.000 A 
ATOM      7 BR   UNL     1       3.537   1.768  17.989  0.00  0.00    +0.000 Br
ATOM      8  C   UNL     1       1.849   2.683  20.096  0.00  0.00    +0.000 A 
ATOM      9  C   UNL     1       1.209   3.635  20.906  0.00  0.00    +0.000 A 
ATOM     10  C   UNL     1       1.397   4.996  20.674  0.00  0.00    +0.000 A 
ATOM     11  C   UNL     1       2.229   5.357  19.628  0.00  0.00    +0.000 A 
ENDROOT
TORSDOF 0
ENDMDL
MODEL 7
REMARK VINA RESULT:      -5.4      3.686      4.774
REMARK  Name = 
REMARK  0 active torsions:
REMARK  status: ('A' for Active; 'I' for Inactive)
REMARK                            x       y       z     vdW  Elec       q    Type
REMARK                         _______ _______ _______ _____ _____    ______ ____
ROOT
ATOM      1  O   UNL     1       3.618   1.330  17.948  0.00  0.00    +0.000 OA
ATOM      2  C   UNL     1       3.543   2.544  18.000  0.00  0.00    +0.000 C 
ATOM      3  C   UNL     1       4.280   3.527  17.131  0.00  0.00    +0.000 C 
ATOM      4  C   UNL     1       3.701   4.900  17.509  0.00  0.00    +0.000 C 
ATOM      5  C   UNL     1       2.862   4.632  18.720  0.00  0.00    +0.000 A 
ATOM      6  C   UNL     1       2.198   5.530  19.540  0.00  0.00    +0.000 A 
ATOM      7 BR   UNL     1       2.313   7.395  19.260  0.00  0.00    +0.000 Br
ATOM      8  C   UNL     1       1.426   5.043  20.603  0.00  0.00    +0.000 A 
ATOM      9  C   UNL     1       1.315   3.662  20.835  0.00  0.00    +0.000 A 
ATOM     10  C   UNL     1       1.980   2.755  20.011  0.00  0.00    +0.000 A 
ATOM     11  C   UNL     1       2.738   3.270  18.974  0.00  0.00    +0.000 A 
ENDROOT
TORSDOF 0
ENDMDL
MODEL 8
REMARK VINA RESULT:      -5.4      2.692      3.967
REMARK  Name = 
REMARK  0 active torsions:
REMARK  status: ('A' for Active; 'I' for Inactive)
REMARK                            x       y       z     vdW  Elec       q    Type
REMARK                         _______ _______ _______ _____ _____    ______ ____
ROOT
ATOM      1  O   UNL     1       2.161   3.611  17.038  0.00  0.00    +0.000 OA
ATOM      2  C   UNL     1       3.086   4.118  17.645  0.00  0.00    +0.000 C 
ATOM      3  C   UNL     1       3.018   4.775  18.998  0.00  0.00    +0.000 C 
ATOM      4  C   UNL     1       4.479   5.091  19.357  0.00  0.00    +0.000 C 
ATOM      5  C   UNL     1       5.242   4.817  18.098  0.00  0.00    +0.000 A 
ATOM      6  C   UNL     1       6.582   5.039  17.821  0.00  0.00    +0.000 A 
ATOM      7 BR   UNL     1       7.731   5.847  19.084  0.00  0.00    +0.000 Br
ATOM      8  C   UNL     1       7.094   4.657  16.574  0.00  0.00    +0.000 A 
ATOM      9  C   UNL     1       6.267   4.048  15.615  0.00  0.00    +0.000 A 
ATOM     10  C   UNL     1       4.920   3.822  15.890  0.00  0.00    +0.000 A 
ATOM     11  C   UNL     1       4.445   4.216  17.129  0.00  0.00    +0.000 A 
ENDROOT
TORSDOF 0
ENDMDL
MODEL 9
REMARK VINA RESULT:      -5.4      2.497      3.431
REMARK  Name = 
REMARK  0 active torsions:
REMARK  status: ('A' for Active; 'I' for Inactive)
REMARK                            x       y       z     vdW  Elec       q    Type
REMARK                         _______ _______ _______ _____ _____    ______ ____
ROOT
ATOM      1  O   UNL     1       5.996   3.468  15.658  0.00  0.00    +0.000 OA
ATOM      2  C   UNL     1       5.505   4.451  16.182  0.00  0.00    +0.000 C 
ATOM      3  C   UNL     1       6.121   5.822  16.272  0.00  0.00    +0.000 C 
ATOM      4  C   UNL     1       5.022   6.708  16.880  0.00  0.00    +0.000 C 
ATOM      5  C   UNL     1       3.960   5.746  17.313  0.00  0.00    +0.000 A 
ATOM      6  C   UNL     1       2.794   5.989  18.022  0.00  0.00    +0.000 A 
ATOM      7 BR   UNL     1       2.365   7.718  18.654  0.00  0.00    +0.000 Br
ATOM      8  C   UNL     1       1.915   4.929  18.277  0.00  0.00    +0.000 A 
ATOM      9  C   UNL     1       2.202   3.633  17.815  0.00  0.00    +0.000 A 
ATOM     10  C   UNL     1       3.372   3.384  17.101  0.00  0.00    +0.000 A 
ATOM     11  C   UNL     1       4.221   4.453  16.871  0.00  0.00    +0.000 A 
ENDROOT
TORSDOF 0
ENDMDL
