MODEL 1
REMARK VINA RESULT:      -7.7      0.000      0.000
REMARK  Name = 
REMARK  9 active torsions:
REMARK  status: ('A' for Active; 'I' for Inactive)
REMARK    1  A    between atoms: C_1  and  C_2
REMARK    2  A    between atoms: C_5  and  C_6
REMARK    3  A    between atoms: C_6  and  C_7
REMARK    4  A    between atoms: C_6  and  C_8
REMARK    5  A    between atoms: C_6  and  N_9
REMARK    6  A    between atoms: N_9  and  C_10
REMARK    7  A    between atoms: C_10  and  N_12
REMARK    8  A    between atoms: N_12  and  N_13
REMARK    9  A    between atoms: C_14  and  C_15
REMARK                            x       y       z     vdW  Elec       q    Type
REMARK                         _______ _______ _______ _____ _____    ______ ____
ROOT
ATOM      1  N   UNL     1       5.250   5.158  16.935  0.00  0.00    +0.000 N 
ATOM      2  H   UNL     1       4.922   5.180  15.984  0.00  0.00    +0.000 HD
ENDROOT
BRANCH   1   3
ATOM      3  C   UNL     1       4.321   4.500  17.910  0.00  0.00    +0.000 C 
ATOM      4  C   UNL     1       4.995   4.409  19.307  0.00  0.00    +0.000 C 
ATOM      5  C   UNL     1       3.969   3.073  17.446  0.00  0.00    +0.000 C 
BRANCH   3  10
ATOM      6  C   UNL     1       1.373   2.798  21.237  0.00  0.00    +0.000 C 
ATOM      7  C   UNL     1       1.624   3.828  20.175  0.00  0.00    +0.000 C 
ATOM      8  C   UNL     1       1.249   3.631  18.898  0.00  0.00    +0.000 C 
ATOM      9  C   UNL     1       1.665   4.545  17.782  0.00  0.00    +0.000 C 
ATOM     10  C   UNL     1       2.963   5.322  18.102  0.00  0.00    +0.000 C 
ATOM     11  C   UNL     1       2.741   6.016  19.467  0.00  0.00    +0.000 C 
ATOM     12  C   UNL     1       2.399   5.053  20.609  0.00  0.00    +0.000 C 
ENDBRANCH   3  10
ENDBRANCH   1   3
BRANCH   1  13
ATOM     13  C   UNL     1       6.598   5.473  17.032  0.00  0.00    +0.000 C 
ATOM     14  S   UNL     1       7.283   6.607  18.064  0.00  0.00    +0.000 S 
BRANCH  13  15
ATOM     15  N   UNL     1       7.349   4.770  16.077  0.00  0.00    +0.000 N 
ATOM     16  H   UNL     1       8.253   4.380  16.326  0.00  0.00    +0.000 HD
BRANCH  15  17
ATOM     17  N   UNL     1       6.644   4.151  15.079  0.00  0.00    +0.000 NA
ATOM     18  C   UNL     1       6.879   4.421  13.837  0.00  0.00    +0.000 C 
BRANCH  18  19
ATOM     19  C   UNL     1       6.166   3.634  12.797  0.00  0.00    +0.000 A 
ATOM     20  C   UNL     1       4.837   3.954  12.480  0.00  0.00    +0.000 A 
ATOM     21  C   UNL     1       4.146   3.217  11.515  0.00  0.00    +0.000 A 
ATOM     22  C   UNL     1       4.774   2.167  10.863  0.00  0.00    +0.000 A 
ATOM     23  C   UNL     1       6.102   1.845  11.172  0.00  0.00    +0.000 A 
ATOM     24  C   UNL     1       6.798   2.575  12.142  0.00  0.00    +0.000 A 
ENDBRANCH  18  19
ENDBRANCH  15  17
ENDBRANCH  13  15
ENDBRANCH   1  13
TORSDOF 6
ENDMDL
MODEL 2
REMARK VINA RESULT:      -7.6      1.086      1.722
REMARK  Name = 
REMARK  9 active torsions:
REMARK  status: ('A' for Active; 'I' for Inactive)
REMARK    1  A    between atoms: C_1  and  C_2
REMARK    2  A    between atoms: C_5  and  C_6
REMARK    3  A    between atoms: C_6  and  C_7
REMARK    4  A    between atoms: C_6  and  C_8
REMARK    5  A    between atoms: C_6  and  N_9
REMARK    6  A    between atoms: N_9  and  C_10
REMARK    7  A    between atoms: C_10  and  N_12
REMARK    8  A    between atoms: N_12  and  N_13
REMARK    9  A    between atoms: C_14  and  C_15
REMARK                            x       y       z     vdW  Elec       q    Type
REMARK                         _______ _______ _______ _____ _____    ______ ____
ROOT
ATOM      1  N   UNL     1       6.168   4.121  17.647  0.00  0.00    +0.000 N 
ATOM      2  H   UNL     1       6.494   3.177  17.514  0.00  0.00    +0.000 HD
ENDROOT
BRANCH   1   3
ATOM      3  C   UNL     1       4.750   4.240  18.118  0.00  0.00    +0.000 C 
ATOM      4  C   UNL     1       4.184   5.639  17.750  0.00  0.00    +0.000 C 
ATOM      5  C   UNL     1       4.670   4.070  19.647  0.00  0.00    +0.000 C 
BRANCH   3  10
ATOM      6  C   UNL     1       0.675   3.394  20.427  0.00  0.00    +0.000 C 
ATOM      7  C   UNL     1       1.562   3.064  19.264  0.00  0.00    +0.000 C 
ATOM      8  C   UNL     1       2.495   2.098  19.340  0.00  0.00    +0.000 C 
ATOM      9  C   UNL     1       3.528   1.882  18.271  0.00  0.00    +0.000 C 
ATOM     10  C   UNL     1       3.792   3.156  17.435  0.00  0.00    +0.000 C 
ATOM     11  C   UNL     1       2.416   3.647  16.925  0.00  0.00    +0.000 C 
ATOM     12  C   UNL     1       1.405   3.939  18.039  0.00  0.00    +0.000 C 
ENDBRANCH   3  10
ENDBRANCH   1   3
BRANCH   1  13
ATOM     13  C   UNL     1       7.208   5.040  17.647  0.00  0.00    +0.000 C 
ATOM     14  S   UNL     1       7.805   5.868  18.980  0.00  0.00    +0.000 S 
BRANCH  13  15
ATOM     15  N   UNL     1       7.673   5.272  16.343  0.00  0.00    +0.000 N 
ATOM     16  H   UNL     1       8.600   5.659  16.194  0.00  0.00    +0.000 HD
BRANCH  15  17
ATOM     17  N   UNL     1       7.151   4.478  15.356  0.00  0.00    +0.000 NA
ATOM     18  C   UNL     1       6.746   4.989  14.240  0.00  0.00    +0.000 C 
BRANCH  18  19
ATOM     19  C   UNL     1       6.299   4.067  13.163  0.00  0.00    +0.000 A 
ATOM     20  C   UNL     1       4.930   3.956  12.876  0.00  0.00    +0.000 A 
ATOM     21  C   UNL     1       4.489   3.084  11.877  0.00  0.00    +0.000 A 
ATOM     22  C   UNL     1       5.404   2.328  11.162  0.00  0.00    +0.000 A 
ATOM     23  C   UNL     1       6.773   2.437  11.441  0.00  0.00    +0.000 A 
ATOM     24  C   UNL     1       7.221   3.303  12.446  0.00  0.00    +0.000 A 
ENDBRANCH  18  19
ENDBRANCH  15  17
ENDBRANCH  13  15
ENDBRANCH   1  13
TORSDOF 6
ENDMDL
MODEL 3
REMARK VINA RESULT:      -7.5      3.776      8.230
REMARK  Name = 
REMARK  9 active torsions:
REMARK  status: ('A' for Active; 'I' for Inactive)
REMARK    1  A    between atoms: C_1  and  C_2
REMARK    2  A    between atoms: C_5  and  C_6
REMARK    3  A    between atoms: C_6  and  C_7
REMARK    4  A    between atoms: C_6  and  C_8
REMARK    5  A    between atoms: C_6  and  N_9
REMARK    6  A    between atoms: N_9  and  C_10
REMARK    7  A    between atoms: C_10  and  N_12
REMARK    8  A    between atoms: N_12  and  N_13
REMARK    9  A    between atoms: C_14  and  C_15
REMARK                            x       y       z     vdW  Elec       q    Type
REMARK                         _______ _______ _______ _____ _____    ______ ____
ROOT
ATOM      1  N   UNL     1       3.129   5.270  18.224  0.00  0.00    +0.000 N 
ATOM      2  H   UNL     1       2.287   4.821  17.902  0.00  0.00    +0.000 HD
ENDROOT
BRANCH   1   3
ATOM      3  C   UNL     1       4.392   4.503  17.969  0.00  0.00    +0.000 C 
ATOM      4  C   UNL     1       5.498   4.960  18.960  0.00  0.00    +0.000 C 
ATOM      5  C   UNL     1       4.894   4.746  16.533  0.00  0.00    +0.000 C 
BRANCH   3  10
ATOM      6  C   UNL     1       0.792   3.274  20.830  0.00  0.00    +0.000 C 
ATOM      7  C   UNL     1       1.944   2.825  19.982  0.00  0.00    +0.000 C 
ATOM      8  C   UNL     1       3.180   2.676  20.491  0.00  0.00    +0.000 C 
ATOM      9  C   UNL     1       4.387   2.428  19.633  0.00  0.00    +0.000 C 
ATOM     10  C   UNL     1       4.198   2.930  18.182  0.00  0.00    +0.000 C 
ATOM     11  C   UNL     1       2.883   2.301  17.662  0.00  0.00    +0.000 C 
ATOM     12  C   UNL     1       1.651   2.637  18.509  0.00  0.00    +0.000 C 
ENDBRANCH   3  10
ENDBRANCH   1   3
BRANCH   1  13
ATOM     13  C   UNL     1       2.922   6.604  18.543  0.00  0.00    +0.000 C 
ATOM     14  S   UNL     1       3.106   7.915  17.510  0.00  0.00    +0.000 S 
BRANCH  13  15
ATOM     15  N   UNL     1       2.607   6.753  19.903  0.00  0.00    +0.000 N 
ATOM     16  H   UNL     1       3.206   6.341  20.613  0.00  0.00    +0.000 HD
BRANCH  15  17
ATOM     17  N   UNL     1       1.889   7.868  20.247  0.00  0.00    +0.000 NA
ATOM     18  C   UNL     1       1.134   7.872  21.295  0.00  0.00    +0.000 C 
BRANCH  18  19
ATOM     19  C   UNL     1       0.473   9.145  21.683  0.00  0.00    +0.000 A 
ATOM     20  C   UNL     1       0.694  10.299  20.915  0.00  0.00    +0.000 A 
ATOM     21  C   UNL     1       0.092  11.508  21.272  0.00  0.00    +0.000 A 
ATOM     22  C   UNL     1      -0.731  11.572  22.386  0.00  0.00    +0.000 A 
ATOM     23  C   UNL     1      -0.959  10.423  23.155  0.00  0.00    +0.000 A 
ATOM     24  C   UNL     1      -0.354   9.209  22.807  0.00  0.00    +0.000 A 
ENDBRANCH  18  19
ENDBRANCH  15  17
ENDBRANCH  13  15
ENDBRANCH   1  13
TORSDOF 6
ENDMDL
MODEL 4
REMARK VINA RESULT:      -7.5      4.286      7.044
REMARK  Name = 
REMARK  9 active torsions:
REMARK  status: ('A' for Active; 'I' for Inactive)
REMARK    1  A    between atoms: C_1  and  C_2
REMARK    2  A    between atoms: C_5  and  C_6
REMARK    3  A    between atoms: C_6  and  C_7
REMARK    4  A    between atoms: C_6  and  C_8
REMARK    5  A    between atoms: C_6  and  N_9
REMARK    6  A    between atoms: N_9  and  C_10
REMARK    7  A    between atoms: C_10  and  N_12
REMARK    8  A    between atoms: N_12  and  N_13
REMARK    9  A    between atoms: C_14  and  C_15
REMARK                            x       y       z     vdW  Elec       q    Type
REMARK                         _______ _______ _______ _____ _____    ______ ____
ROOT
ATOM      1  N   UNL     1       6.091   5.908  17.143  0.00  0.00    +0.000 N 
ATOM      2  H   UNL     1       6.448   5.444  16.324  0.00  0.00    +0.000 HD
ENDROOT
BRANCH   1   3
ATOM      3  C   UNL     1       4.707   5.497  17.550  0.00  0.00    +0.000 C 
ATOM      4  C   UNL     1       4.225   4.313  16.668  0.00  0.00    +0.000 C 
ATOM      5  C   UNL     1       3.721   6.667  17.374  0.00  0.00    +0.000 C 
BRANCH   3  10
ATOM      6  C   UNL     1       0.959   2.775  18.641  0.00  0.00    +0.000 C 
ATOM      7  C   UNL     1       2.204   3.462  19.116  0.00  0.00    +0.000 C 
ATOM      8  C   UNL     1       2.179   4.720  19.592  0.00  0.00    +0.000 C 
ATOM      9  C   UNL     1       3.428   5.503  19.881  0.00  0.00    +0.000 C 
ATOM     10  C   UNL     1       4.645   5.002  19.069  0.00  0.00    +0.000 C 
ATOM     11  C   UNL     1       4.753   3.479  19.323  0.00  0.00    +0.000 C 
ATOM     12  C   UNL     1       3.495   2.691  18.943  0.00  0.00    +0.000 C 
ENDBRANCH   3  10
ENDBRANCH   1   3
BRANCH   1  13
ATOM     13  C   UNL     1       7.085   6.577  17.843  0.00  0.00    +0.000 C 
ATOM     14  S   UNL     1       7.955   5.982  19.149  0.00  0.00    +0.000 S 
BRANCH  13  15
ATOM     15  N   UNL     1       7.235   7.890  17.371  0.00  0.00    +0.000 N 
ATOM     16  H   UNL     1       6.428   8.407  17.035  0.00  0.00    +0.000 HD
BRANCH  15  17
ATOM     17  N   UNL     1       8.280   8.611  17.888  0.00  0.00    +0.000 NA
ATOM     18  C   UNL     1       8.234   9.901  17.935  0.00  0.00    +0.000 C 
BRANCH  18  19
ATOM     19  C   UNL     1       9.344  10.622  18.613  0.00  0.00    +0.000 A 
ATOM     20  C   UNL     1       9.292  10.817  20.002  0.00  0.00    +0.000 A 
ATOM     21  C   UNL     1      10.319  11.504  20.655  0.00  0.00    +0.000 A 
ATOM     22  C   UNL     1      11.396  11.992  19.932  0.00  0.00    +0.000 A 
ATOM     23  C   UNL     1      11.456  11.797  18.546  0.00  0.00    +0.000 A 
ATOM     24  C   UNL     1      10.427  11.115  17.884  0.00  0.00    +0.000 A 
ENDBRANCH  18  19
ENDBRANCH  15  17
ENDBRANCH  13  15
ENDBRANCH   1  13
TORSDOF 6
ENDMDL
MODEL 5
REMARK VINA RESULT:      -7.5      0.811      1.960
REMARK  Name = 
REMARK  9 active torsions:
REMARK  status: ('A' for Active; 'I' for Inactive)
REMARK    1  A    between atoms: C_1  and  C_2
REMARK    2  A    between atoms: C_5  and  C_6
REMARK    3  A    between atoms: C_6  and  C_7
REMARK    4  A    between atoms: C_6  and  C_8
REMARK    5  A    between atoms: C_6  and  N_9
REMARK    6  A    between atoms: N_9  and  C_10
REMARK    7  A    between atoms: C_10  and  N_12
REMARK    8  A    between atoms: N_12  and  N_13
REMARK    9  A    between atoms: C_14  and  C_15
REMARK                            x       y       z     vdW  Elec       q    Type
REMARK                         _______ _______ _______ _____ _____    ______ ____
ROOT
ATOM      1  N   UNL     1       5.226   5.929  16.917  0.00  0.00    +0.000 N 
ATOM      2  H   UNL     1       4.806   6.015  16.006  0.00  0.00    +0.000 HD
ENDROOT
BRANCH   1   3
ATOM      3  C   UNL     1       4.344   5.320  17.965  0.00  0.00    +0.000 C 
ATOM      4  C   UNL     1       3.038   6.150  18.106  0.00  0.00    +0.000 C 
ATOM      5  C   UNL     1       5.058   5.302  19.330  0.00  0.00    +0.000 C 
BRANCH   3  10
ATOM      6  C   UNL     1       1.206   3.334  20.941  0.00  0.00    +0.000 C 
ATOM      7  C   UNL     1       2.068   3.179  19.724  0.00  0.00    +0.000 C 
ATOM      8  C   UNL     1       3.331   2.723  19.806  0.00  0.00    +0.000 C 
ATOM      9  C   UNL     1       4.281   2.750  18.643  0.00  0.00    +0.000 C 
ATOM     10  C   UNL     1       3.908   3.826  17.597  0.00  0.00    +0.000 C 
ATOM     11  C   UNL     1       2.424   3.592  17.226  0.00  0.00    +0.000 C 
ATOM     12  C   UNL     1       1.465   3.650  18.419  0.00  0.00    +0.000 C 
ENDBRANCH   3  10
ENDBRANCH   1   3
BRANCH   1  13
ATOM     13  C   UNL     1       6.600   6.119  16.880  0.00  0.00    +0.000 C 
ATOM     14  S   UNL     1       7.444   7.412  17.541  0.00  0.00    +0.000 S 
BRANCH  13  15
ATOM     15  N   UNL     1       7.227   5.112  16.130  0.00  0.00    +0.000 N 
ATOM     16  H   UNL     1       7.958   4.544  16.549  0.00  0.00    +0.000 HD
BRANCH  15  17
ATOM     17  N   UNL     1       6.491   4.554  15.118  0.00  0.00    +0.000 NA
ATOM     18  C   UNL     1       7.000   4.389  13.942  0.00  0.00    +0.000 C 
BRANCH  18  19
ATOM     19  C   UNL     1       6.195   3.672  12.919  0.00  0.00    +0.000 A 
ATOM     20  C   UNL     1       6.789   2.643  12.171  0.00  0.00    +0.000 A 
ATOM     21  C   UNL     1       6.052   1.967  11.196  0.00  0.00    +0.000 A 
ATOM     22  C   UNL     1       4.728   2.308  10.965  0.00  0.00    +0.000 A 
ATOM     23  C   UNL     1       4.128   3.331  11.711  0.00  0.00    +0.000 A 
ATOM     24  C   UNL     1       4.862   4.017  12.686  0.00  0.00    +0.000 A 
ENDBRANCH  18  19
ENDBRANCH  15  17
ENDBRANCH  13  15
ENDBRANCH   1  13
TORSDOF 6
ENDMDL
MODEL 6
REMARK VINA RESULT:      -7.5      4.083      6.716
REMARK  Name = 
REMARK  9 active torsions:
REMARK  status: ('A' for Active; 'I' for Inactive)
REMARK    1  A    between atoms: C_1  and  C_2
REMARK    2  A    between atoms: C_5  and  C_6
REMARK    3  A    between atoms: C_6  and  C_7
REMARK    4  A    between atoms: C_6  and  C_8
REMARK    5  A    between atoms: C_6  and  N_9
REMARK    6  A    between atoms: N_9  and  C_10
REMARK    7  A    between atoms: C_10  and  N_12
REMARK    8  A    between atoms: N_12  and  N_13
REMARK    9  A    between atoms: C_14  and  C_15
REMARK                            x       y       z     vdW  Elec       q    Type
REMARK                         _______ _______ _______ _____ _____    ______ ____
ROOT
ATOM      1  N   UNL     1       5.438   6.090  17.418  0.00  0.00    +0.000 N 
ATOM      2  H   UNL     1       5.249   6.239  16.441  0.00  0.00    +0.000 HD
ENDROOT
BRANCH   1   3
ATOM      3  C   UNL     1       4.450   5.212  18.126  0.00  0.00    +0.000 C 
ATOM      4  C   UNL     1       4.835   5.082  19.625  0.00  0.00    +0.000 C 
ATOM      5  C   UNL     1       4.433   3.803  17.504  0.00  0.00    +0.000 C 
BRANCH   3  10
ATOM      6  C   UNL     1       1.335   3.142  21.070  0.00  0.00    +0.000 C 
ATOM      7  C   UNL     1       1.579   4.171  20.006  0.00  0.00    +0.000 C 
ATOM      8  C   UNL     1       1.439   3.883  18.700  0.00  0.00    +0.000 C 
ATOM      9  C   UNL     1       1.870   4.823  17.611  0.00  0.00    +0.000 C 
ATOM     10  C   UNL     1       2.967   5.808  18.077  0.00  0.00    +0.000 C 
ATOM     11  C   UNL     1       2.435   6.492  19.359  0.00  0.00    +0.000 C 
ATOM     12  C   UNL     1       2.078   5.517  20.486  0.00  0.00    +0.000 C 
ENDBRANCH   3  10
ENDBRANCH   1   3
BRANCH   1  13
ATOM     13  C   UNL     1       6.719   6.489  17.772  0.00  0.00    +0.000 C 
ATOM     14  S   UNL     1       7.799   5.633  18.730  0.00  0.00    +0.000 S 
BRANCH  13  15
ATOM     15  N   UNL     1       6.996   7.777  17.288  0.00  0.00    +0.000 N 
ATOM     16  H   UNL     1       6.284   8.295  16.780  0.00  0.00    +0.000 HD
BRANCH  15  17
ATOM     17  N   UNL     1       7.939   8.498  17.972  0.00  0.00    +0.000 NA
ATOM     18  C   UNL     1       8.311   9.664  17.556  0.00  0.00    +0.000 C 
BRANCH  18  19
ATOM     19  C   UNL     1       9.249  10.448  18.401  0.00  0.00    +0.000 A 
ATOM     20  C   UNL     1       9.172  10.341  19.799  0.00  0.00    +0.000 A 
ATOM     21  C   UNL     1      10.035  11.081  20.610  0.00  0.00    +0.000 A 
ATOM     22  C   UNL     1      10.977  11.921  20.037  0.00  0.00    +0.000 A 
ATOM     23  C   UNL     1      11.062  12.030  18.643  0.00  0.00    +0.000 A 
ATOM     24  C   UNL     1      10.194  11.297  17.823  0.00  0.00    +0.000 A 
ENDBRANCH  18  19
ENDBRANCH  15  17
ENDBRANCH  13  15
ENDBRANCH   1  13
TORSDOF 6
ENDMDL
MODEL 7
REMARK VINA RESULT:      -7.5      3.139      6.674
REMARK  Name = 
REMARK  9 active torsions:
REMARK  status: ('A' for Active; 'I' for Inactive)
REMARK    1  A    between atoms: C_1  and  C_2
REMARK    2  A    between atoms: C_5  and  C_6
REMARK    3  A    between atoms: C_6  and  C_7
REMARK    4  A    between atoms: C_6  and  C_8
REMARK    5  A    between atoms: C_6  and  N_9
REMARK    6  A    between atoms: N_9  and  C_10
REMARK    7  A    between atoms: C_10  and  N_12
REMARK    8  A    between atoms: N_12  and  N_13
REMARK    9  A    between atoms: C_14  and  C_15
REMARK                            x       y       z     vdW  Elec       q    Type
REMARK                         _______ _______ _______ _____ _____    ______ ____
ROOT
ATOM      1  N   UNL     1       4.435   5.341  18.269  0.00  0.00    +0.000 N 
ATOM      2  H   UNL     1       3.973   5.609  19.123  0.00  0.00    +0.000 HD
ENDROOT
BRANCH   1   3
ATOM      3  C   UNL     1       4.209   3.920  17.848  0.00  0.00    +0.000 C 
ATOM      4  C   UNL     1       4.618   2.956  18.996  0.00  0.00    +0.000 C 
ATOM      5  C   UNL     1       5.055   3.582  16.605  0.00  0.00    +0.000 C 
BRANCH   3  10
ATOM      6  C   UNL     1       1.498   2.825  21.603  0.00  0.00    +0.000 C 
ATOM      7  C   UNL     1       1.586   3.011  20.117  0.00  0.00    +0.000 C 
ATOM      8  C   UNL     1       1.895   1.993  19.295  0.00  0.00    +0.000 C 
ATOM      9  C   UNL     1       2.190   2.190  17.836  0.00  0.00    +0.000 C 
ATOM     10  C   UNL     1       2.674   3.623  17.515  0.00  0.00    +0.000 C 
ATOM     11  C   UNL     1       1.621   4.591  18.107  0.00  0.00    +0.000 C 
ATOM     12  C   UNL     1       1.397   4.426  19.613  0.00  0.00    +0.000 C 
ENDBRANCH   3  10
ENDBRANCH   1   3
BRANCH   1  13
ATOM     13  C   UNL     1       4.906   6.437  17.560  0.00  0.00    +0.000 C 
ATOM     14  S   UNL     1       6.516   6.847  17.315  0.00  0.00    +0.000 S 
BRANCH  13  15
ATOM     15  N   UNL     1       3.846   7.245  17.121  0.00  0.00    +0.000 N 
ATOM     16  H   UNL     1       3.454   7.112  16.193  0.00  0.00    +0.000 HD
BRANCH  15  17
ATOM     17  N   UNL     1       3.024   7.758  18.090  0.00  0.00    +0.000 NA
ATOM     18  C   UNL     1       2.257   8.768  17.842  0.00  0.00    +0.000 C 
BRANCH  18  19
ATOM     19  C   UNL     1       1.304   9.205  18.895  0.00  0.00    +0.000 A 
ATOM     20  C   UNL     1       0.339  10.178  18.589  0.00  0.00    +0.000 A 
ATOM     21  C   UNL     1      -0.557  10.612  19.570  0.00  0.00    +0.000 A 
ATOM     22  C   UNL     1      -0.499  10.079  20.848  0.00  0.00    +0.000 A 
ATOM     23  C   UNL     1       0.459   9.105  21.158  0.00  0.00    +0.000 A 
ATOM     24  C   UNL     1       1.364   8.670  20.182  0.00  0.00    +0.000 A 
ENDBRANCH  18  19
ENDBRANCH  15  17
ENDBRANCH  13  15
ENDBRANCH   1  13
TORSDOF 6
ENDMDL
MODEL 8
REMARK VINA RESULT:      -7.4      1.051      1.907
REMARK  Name = 
REMARK  9 active torsions:
REMARK  status: ('A' for Active; 'I' for Inactive)
REMARK    1  A    between atoms: C_1  and  C_2
REMARK    2  A    between atoms: C_5  and  C_6
REMARK    3  A    between atoms: C_6  and  C_7
REMARK    4  A    between atoms: C_6  and  C_8
REMARK    5  A    between atoms: C_6  and  N_9
REMARK    6  A    between atoms: N_9  and  C_10
REMARK    7  A    between atoms: C_10  and  N_12
REMARK    8  A    between atoms: N_12  and  N_13
REMARK    9  A    between atoms: C_14  and  C_15
REMARK                            x       y       z     vdW  Elec       q    Type
REMARK                         _______ _______ _______ _____ _____    ______ ____
ROOT
ATOM      1  N   UNL     1       5.857   4.597  17.917  0.00  0.00    +0.000 N 
ATOM      2  H   UNL     1       5.924   3.685  18.338  0.00  0.00    +0.000 HD
ENDROOT
BRANCH   1   3
ATOM      3  C   UNL     1       4.476   5.181  17.891  0.00  0.00    +0.000 C 
ATOM      4  C   UNL     1       4.424   6.374  16.897  0.00  0.00    +0.000 C 
ATOM      5  C   UNL     1       4.077   5.694  19.288  0.00  0.00    +0.000 C 
BRANCH   3  10
ATOM      6  C   UNL     1       2.335   2.738  21.368  0.00  0.00    +0.000 C 
ATOM      7  C   UNL     1       2.485   2.974  19.895  0.00  0.00    +0.000 C 
ATOM      8  C   UNL     1       3.379   2.291  19.158  0.00  0.00    +0.000 C 
ATOM      9  C   UNL     1       3.694   2.644  17.733  0.00  0.00    +0.000 C 
ATOM     10  C   UNL     1       3.381   4.123  17.404  0.00  0.00    +0.000 C 
ATOM     11  C   UNL     1       1.915   4.372  17.831  0.00  0.00    +0.000 C 
ATOM     12  C   UNL     1       1.637   4.083  19.310  0.00  0.00    +0.000 C 
ENDBRANCH   3  10
ENDBRANCH   1   3
BRANCH   1  13
ATOM     13  C   UNL     1       7.100   5.190  17.748  0.00  0.00    +0.000 C 
ATOM     14  S   UNL     1       7.655   6.576  18.518  0.00  0.00    +0.000 S 
BRANCH  13  15
ATOM     15  N   UNL     1       7.845   4.525  16.763  0.00  0.00    +0.000 N 
ATOM     16  H   UNL     1       8.733   4.092  17.000  0.00  0.00    +0.000 HD
BRANCH  15  17
ATOM     17  N   UNL     1       7.139   3.990  15.718  0.00  0.00    +0.000 NA
ATOM     18  C   UNL     1       6.988   4.648  14.615  0.00  0.00    +0.000 C 
BRANCH  18  19
ATOM     19  C   UNL     1       6.314   3.971  13.476  0.00  0.00    +0.000 A 
ATOM     20  C   UNL     1       7.083   3.249  12.550  0.00  0.00    +0.000 A 
ATOM     21  C   UNL     1       6.469   2.618  11.466  0.00  0.00    +0.000 A 
ATOM     22  C   UNL     1       5.095   2.699  11.303  0.00  0.00    +0.000 A 
ATOM     23  C   UNL     1       4.321   3.414  12.226  0.00  0.00    +0.000 A 
ATOM     24  C   UNL     1       4.930   4.055  13.311  0.00  0.00    +0.000 A 
ENDBRANCH  18  19
ENDBRANCH  15  17
ENDBRANCH  13  15
ENDBRANCH   1  13
TORSDOF 6
ENDMDL
MODEL 9
REMARK VINA RESULT:      -7.4      4.585      9.125
REMARK  Name = 
REMARK  9 active torsions:
REMARK  status: ('A' for Active; 'I' for Inactive)
REMARK    1  A    between atoms: C_1  and  C_2
REMARK    2  A    between atoms: C_5  and  C_6
REMARK    3  A    between atoms: C_6  and  C_7
REMARK    4  A    between atoms: C_6  and  C_8
REMARK    5  A    between atoms: C_6  and  N_9
REMARK    6  A    between atoms: N_9  and  C_10
REMARK    7  A    between atoms: C_10  and  N_12
REMARK    8  A    between atoms: N_12  and  N_13
REMARK    9  A    between atoms: C_14  and  C_15
REMARK                            x       y       z     vdW  Elec       q    Type
REMARK                         _______ _______ _______ _____ _____    ______ ____
ROOT
ATOM      1  N   UNL     1       3.149   5.828  19.962  0.00  0.00    +0.000 N 
ATOM      2  H   UNL     1       3.923   5.942  20.596  0.00  0.00    +0.000 HD
ENDROOT
BRANCH   1   3
ATOM      3  C   UNL     1       2.816   4.406  19.622  0.00  0.00    +0.000 C 
ATOM      4  C   UNL     1       1.730   4.368  18.512  0.00  0.00    +0.000 C 
ATOM      5  C   UNL     1       2.273   3.666  20.859  0.00  0.00    +0.000 C 
BRANCH   3  10
ATOM      6  C   UNL     1       5.104   6.497  16.011  0.00  0.00    +0.000 C 
ATOM      7  C   UNL     1       5.002   5.316  16.929  0.00  0.00    +0.000 C 
ATOM      8  C   UNL     1       4.261   4.238  16.614  0.00  0.00    +0.000 C 
ATOM      9  C   UNL     1       3.975   3.136  17.593  0.00  0.00    +0.000 C 
ATOM     10  C   UNL     1       4.082   3.605  19.063  0.00  0.00    +0.000 C 
ATOM     11  C   UNL     1       5.469   4.274  19.217  0.00  0.00    +0.000 C 
ATOM     12  C   UNL     1       5.705   5.448  18.263  0.00  0.00    +0.000 C 
ENDBRANCH   3  10
ENDBRANCH   1   3
BRANCH   1  13
ATOM     13  C   UNL     1       2.416   6.997  19.813  0.00  0.00    +0.000 C 
ATOM     14  S   UNL     1       2.280   7.913  18.413  0.00  0.00    +0.000 S 
BRANCH  13  15
ATOM     15  N   UNL     1       1.842   7.390  21.031  0.00  0.00    +0.000 N 
ATOM     16  H   UNL     1       2.322   7.199  21.906  0.00  0.00    +0.000 HD
BRANCH  15  17
ATOM     17  N   UNL     1       1.000   8.469  20.991  0.00  0.00    +0.000 NA
ATOM     18  C   UNL     1       0.389   8.873  22.056  0.00  0.00    +0.000 C 
BRANCH  18  19
ATOM     19  C   UNL     1      -0.419  10.118  21.978  0.00  0.00    +0.000 A 
ATOM     20  C   UNL     1      -0.543  10.782  20.747  0.00  0.00    +0.000 A 
ATOM     21  C   UNL     1      -1.286  11.962  20.656  0.00  0.00    +0.000 A 
ATOM     22  C   UNL     1      -1.908  12.479  21.782  0.00  0.00    +0.000 A 
ATOM     23  C   UNL     1      -1.791  11.819  23.012  0.00  0.00    +0.000 A 
ATOM     24  C   UNL     1      -1.042  10.640  23.112  0.00  0.00    +0.000 A 
ENDBRANCH  18  19
ENDBRANCH  15  17
ENDBRANCH  13  15
ENDBRANCH   1  13
TORSDOF 6
ENDMDL
