MODEL 1
REMARK VINA RESULT:      -8.2      0.000      0.000
REMARK  Name = 
REMARK  6 active torsions:
REMARK  status: ('A' for Active; 'I' for Inactive)
REMARK    1  A    between atoms: C_1  and  N_2
REMARK    2  A    between atoms: C_3  and  C_4
REMARK    3  A    between atoms: C_9  and  O_10
REMARK    4  A    between atoms: O_10  and  C_11
REMARK    5  A    between atoms: C_17  and  C_18
REMARK    6  A    between atoms: C_18  and  C_19
REMARK                            x       y       z     vdW  Elec       q    Type
REMARK                         _______ _______ _______ _____ _____    ______ ____
ROOT
ATOM      1  C   UNL     1       1.347   7.753  20.429  0.00  0.00    +0.000 C 
ATOM      2  N   UNL     1       1.765   8.212  19.132  0.00  0.00    +0.000 N 
ATOM      3  C   UNL     1       2.489   7.536  18.169  0.00  0.00    +0.000 A 
ATOM      4  N   UNL     1       2.720   8.363  17.170  0.00  0.00    +0.000 NA
ATOM      5  N   UNL     1       2.126   9.565  17.447  0.00  0.00    +0.000 NA
ATOM      6  C   UNL     1       1.538   9.466  18.616  0.00  0.00    +0.000 A 
ENDROOT
BRANCH   3   7
ATOM      7  C   UNL     1       2.951   6.149  18.229  0.00  0.00    +0.000 A 
ATOM      8  C   UNL     1       1.987   5.131  18.052  0.00  0.00    +0.000 A 
ATOM      9  C   UNL     1       2.330   3.780  18.037  0.00  0.00    +0.000 A 
ATOM     10  C   UNL     1       3.659   3.415  18.165  0.00  0.00    +0.000 A 
ATOM     11  C   UNL     1       4.638   4.399  18.297  0.00  0.00    +0.000 A 
ATOM     12  C   UNL     1       4.302   5.769  18.344  0.00  0.00    +0.000 A 
BRANCH  12  13
ATOM     13  O   UNL     1       5.405   6.574  18.345  0.00  0.00    +0.000 OA
BRANCH  13  14
ATOM     14  C   UNL     1       6.181   6.754  17.168  0.00  0.00    +0.000 C 
ATOM     15  F   UNL     1       7.063   5.758  16.936  0.00  0.00    +0.000 F 
ATOM     16  F   UNL     1       5.331   6.786  16.112  0.00  0.00    +0.000 F 
ATOM     17  F   UNL     1       6.812   7.942  17.208  0.00  0.00    +0.000 F 
ENDBRANCH  13  14
ENDBRANCH  12  13
ENDBRANCH   3   7
BRANCH   6  18
ATOM     18  C   UNL     1       0.849  10.665  19.308  0.00  0.00    +0.000 C 
ATOM     19  C   UNL     1       1.100  10.697  20.851  0.00  0.00    +0.000 C 
ATOM     20  C   UNL     1       1.311  12.219  20.723  0.00  0.00    +0.000 C 
ATOM     21  C   UNL     1       1.677  11.991  19.243  0.00  0.00    +0.000 C 
BRANCH  18  22
ATOM     22  C   UNL     1      -0.694  10.676  18.796  0.00  0.00    +0.000 A 
ATOM     23  C   UNL     1      -1.074   9.905  17.672  0.00  0.00    +0.000 A 
ATOM     24  C   UNL     1      -2.317  10.051  17.047  0.00  0.00    +0.000 A 
ATOM     25  C   UNL     1      -3.231  10.966  17.551  0.00  0.00    +0.000 A 
ATOM     26 CL   UNL     1      -4.710  11.250  16.721  0.00  0.00    +0.000 Cl
ATOM     27  C   UNL     1      -2.937  11.678  18.707  0.00  0.00    +0.000 A 
ATOM     28  C   UNL     1      -1.690  11.523  19.327  0.00  0.00    +0.000 A 
ENDBRANCH  18  22
ENDBRANCH   6  18
TORSDOF 5
ENDMDL
MODEL 2
REMARK VINA RESULT:      -8.2      1.332      1.625
REMARK  Name = 
REMARK  6 active torsions:
REMARK  status: ('A' for Active; 'I' for Inactive)
REMARK    1  A    between atoms: C_1  and  N_2
REMARK    2  A    between atoms: C_3  and  C_4
REMARK    3  A    between atoms: C_9  and  O_10
REMARK    4  A    between atoms: O_10  and  C_11
REMARK    5  A    between atoms: C_17  and  C_18
REMARK    6  A    between atoms: C_18  and  C_19
REMARK                            x       y       z     vdW  Elec       q    Type
REMARK                         _______ _______ _______ _____ _____    ______ ____
ROOT
ATOM      1  C   UNL     1       1.048   8.497  21.083  0.00  0.00    +0.000 C 
ATOM      2  N   UNL     1       1.554   8.458  19.738  0.00  0.00    +0.000 N 
ATOM      3  C   UNL     1       2.215   7.430  19.093  0.00  0.00    +0.000 A 
ATOM      4  N   UNL     1       2.572   7.854  17.898  0.00  0.00    +0.000 NA
ATOM      5  N   UNL     1       2.123   9.137  17.734  0.00  0.00    +0.000 NA
ATOM      6  C   UNL     1       1.497   9.490  18.832  0.00  0.00    +0.000 A 
ENDROOT
BRANCH   3   7
ATOM      7  C   UNL     1       2.500   6.097  19.627  0.00  0.00    +0.000 A 
ATOM      8  C   UNL     1       1.479   5.455  20.360  0.00  0.00    +0.000 A 
ATOM      9  C   UNL     1       1.628   4.164  20.866  0.00  0.00    +0.000 A 
ATOM     10  C   UNL     1       2.798   3.468  20.614  0.00  0.00    +0.000 A 
ATOM     11  C   UNL     1       3.807   4.060  19.855  0.00  0.00    +0.000 A 
ATOM     12  C   UNL     1       3.681   5.377  19.364  0.00  0.00    +0.000 A 
BRANCH  12  13
ATOM     13  O   UNL     1       4.713   5.724  18.540  0.00  0.00    +0.000 OA
BRANCH  13  14
ATOM     14  C   UNL     1       4.800   5.207  17.218  0.00  0.00    +0.000 C 
ATOM     15  F   UNL     1       5.162   6.123  16.294  0.00  0.00    +0.000 F 
ATOM     16  F   UNL     1       5.752   4.241  17.215  0.00  0.00    +0.000 F 
ATOM     17  F   UNL     1       3.638   4.623  16.873  0.00  0.00    +0.000 F 
ENDBRANCH  13  14
ENDBRANCH  12  13
ENDBRANCH   3   7
BRANCH   6  18
ATOM     18  C   UNL     1       0.943  10.916  19.054  0.00  0.00    +0.000 C 
ATOM     19  C   UNL     1       1.348  11.512  20.441  0.00  0.00    +0.000 C 
ATOM     20  C   UNL     1       1.622  12.846  19.720  0.00  0.00    +0.000 C 
ATOM     21  C   UNL     1       1.826  12.042  18.421  0.00  0.00    +0.000 C 
BRANCH  18  22
ATOM     22  C   UNL     1      -0.642  10.863  18.692  0.00  0.00    +0.000 A 
ATOM     23  C   UNL     1      -1.106  10.012  17.662  0.00  0.00    +0.000 A 
ATOM     24  C   UNL     1      -2.406  10.092  17.150  0.00  0.00    +0.000 A 
ATOM     25  C   UNL     1      -3.291  11.020  17.679  0.00  0.00    +0.000 A 
ATOM     26 CL   UNL     1      -4.849  11.220  16.978  0.00  0.00    +0.000 Cl
ATOM     27  C   UNL     1      -2.908  11.814  18.753  0.00  0.00    +0.000 A 
ATOM     28  C   UNL     1      -1.605  11.724  19.260  0.00  0.00    +0.000 A 
ENDBRANCH  18  22
ENDBRANCH   6  18
TORSDOF 5
ENDMDL
MODEL 3
REMARK VINA RESULT:      -8.1      1.727      2.555
REMARK  Name = 
REMARK  6 active torsions:
REMARK  status: ('A' for Active; 'I' for Inactive)
REMARK    1  A    between atoms: C_1  and  N_2
REMARK    2  A    between atoms: C_3  and  C_4
REMARK    3  A    between atoms: C_9  and  O_10
REMARK    4  A    between atoms: O_10  and  C_11
REMARK    5  A    between atoms: C_17  and  C_18
REMARK    6  A    between atoms: C_18  and  C_19
REMARK                            x       y       z     vdW  Elec       q    Type
REMARK                         _______ _______ _______ _____ _____    ______ ____
ROOT
ATOM      1  C   UNL     1       1.613   6.363  20.855  0.00  0.00    +0.000 C 
ATOM      2  N   UNL     1       1.896   7.208  19.727  0.00  0.00    +0.000 N 
ATOM      3  C   UNL     1       2.567   6.896  18.561  0.00  0.00    +0.000 A 
ATOM      4  N   UNL     1       2.671   7.992  17.838  0.00  0.00    +0.000 NA
ATOM      5  N   UNL     1       2.042   9.015  18.496  0.00  0.00    +0.000 NA
ATOM      6  C   UNL     1       1.562   8.538  19.621  0.00  0.00    +0.000 A 
ENDROOT
BRANCH   3   7
ATOM      7  C   UNL     1       3.101   5.589  18.178  0.00  0.00    +0.000 A 
ATOM      8  C   UNL     1       2.177   4.592  17.797  0.00  0.00    +0.000 A 
ATOM      9  C   UNL     1       2.583   3.330  17.363  0.00  0.00    +0.000 A 
ATOM     10  C   UNL     1       3.935   3.049  17.265  0.00  0.00    +0.000 A 
ATOM     11  C   UNL     1       4.871   4.029  17.591  0.00  0.00    +0.000 A 
ATOM     12  C   UNL     1       4.475   5.299  18.061  0.00  0.00    +0.000 A 
BRANCH  12  13
ATOM     13  O   UNL     1       5.530   6.154  18.200  0.00  0.00    +0.000 OA
BRANCH  13  14
ATOM     14  C   UNL     1       6.142   6.752  17.065  0.00  0.00    +0.000 C 
ATOM     15  F   UNL     1       5.303   6.937  16.024  0.00  0.00    +0.000 F 
ATOM     16  F   UNL     1       6.593   7.977  17.435  0.00  0.00    +0.000 F 
ATOM     17  F   UNL     1       7.213   6.031  16.685  0.00  0.00    +0.000 F 
ENDBRANCH  13  14
ENDBRANCH  12  13
ENDBRANCH   3   7
BRANCH   6  18
ATOM     18  C   UNL     1       0.876   9.431  20.680  0.00  0.00    +0.000 C 
ATOM     19  C   UNL     1      -0.362   8.740  21.340  0.00  0.00    +0.000 C 
ATOM     20  C   UNL     1       0.128   9.294  22.693  0.00  0.00    +0.000 C 
ATOM     21  C   UNL     1       1.546   9.362  22.092  0.00  0.00    +0.000 C 
BRANCH  18  22
ATOM     22  C   UNL     1       0.647  10.884  19.989  0.00  0.00    +0.000 A 
ATOM     23  C   UNL     1       1.478  11.975  20.338  0.00  0.00    +0.000 A 
ATOM     24  C   UNL     1       1.188  13.291  19.961  0.00  0.00    +0.000 A 
ATOM     25  C   UNL     1       0.061  13.548  19.194  0.00  0.00    +0.000 A 
ATOM     26 CL   UNL     1      -0.379  15.170  18.829  0.00  0.00    +0.000 Cl
ATOM     27  C   UNL     1      -0.733  12.498  18.749  0.00  0.00    +0.000 A 
ATOM     28  C   UNL     1      -0.433  11.184  19.131  0.00  0.00    +0.000 A 
ENDBRANCH  18  22
ENDBRANCH   6  18
TORSDOF 5
ENDMDL
MODEL 4
REMARK VINA RESULT:      -8.0      2.586      3.336
REMARK  Name = 
REMARK  6 active torsions:
REMARK  status: ('A' for Active; 'I' for Inactive)
REMARK    1  A    between atoms: C_1  and  N_2
REMARK    2  A    between atoms: C_3  and  C_4
REMARK    3  A    between atoms: C_9  and  O_10
REMARK    4  A    between atoms: O_10  and  C_11
REMARK    5  A    between atoms: C_17  and  C_18
REMARK    6  A    between atoms: C_18  and  C_19
REMARK                            x       y       z     vdW  Elec       q    Type
REMARK                         _______ _______ _______ _____ _____    ______ ____
ROOT
ATOM      1  C   UNL     1       1.919   9.317  17.735  0.00  0.00    +0.000 C 
ATOM      2  N   UNL     1       1.764   8.611  18.977  0.00  0.00    +0.000 N 
ATOM      3  C   UNL     1       2.197   7.341  19.309  0.00  0.00    +0.000 A 
ATOM      4  N   UNL     1       1.767   7.062  20.522  0.00  0.00    +0.000 NA
ATOM      5  N   UNL     1       1.087   8.146  21.009  0.00  0.00    +0.000 NA
ATOM      6  C   UNL     1       1.103   9.081  20.088  0.00  0.00    +0.000 A 
ENDROOT
BRANCH   3   7
ATOM      7  C   UNL     1       2.981   6.433  18.471  0.00  0.00    +0.000 A 
ATOM      8  C   UNL     1       4.273   6.853  18.084  0.00  0.00    +0.000 A 
ATOM      9  C   UNL     1       5.122   6.042  17.331  0.00  0.00    +0.000 A 
ATOM     10  C   UNL     1       4.708   4.769  16.978  0.00  0.00    +0.000 A 
ATOM     11  C   UNL     1       3.455   4.311  17.384  0.00  0.00    +0.000 A 
ATOM     12  C   UNL     1       2.574   5.132  18.119  0.00  0.00    +0.000 A 
BRANCH  12  13
ATOM     13  O   UNL     1       1.458   4.460  18.530  0.00  0.00    +0.000 OA
BRANCH  13  14
ATOM     14  C   UNL     1       1.489   3.626  19.681  0.00  0.00    +0.000 C 
ATOM     15  F   UNL     1       2.583   3.798  20.453  0.00  0.00    +0.000 F 
ATOM     16  F   UNL     1       0.411   3.935  20.444  0.00  0.00    +0.000 F 
ATOM     17  F   UNL     1       1.365   2.335  19.319  0.00  0.00    +0.000 F 
ENDBRANCH  13  14
ENDBRANCH  12  13
ENDBRANCH   3   7
BRANCH   6  18
ATOM     18  C   UNL     1       0.341  10.417  20.241  0.00  0.00    +0.000 C 
ATOM     19  C   UNL     1      -0.203  10.638  21.690  0.00  0.00    +0.000 C 
ATOM     20  C   UNL     1       0.257  12.105  21.574  0.00  0.00    +0.000 C 
ATOM     21  C   UNL     1       1.271  11.647  20.507  0.00  0.00    +0.000 C 
BRANCH  18  22
ATOM     22  C   UNL     1      -0.727  10.489  19.017  0.00  0.00    +0.000 A 
ATOM     23  C   UNL     1      -0.869  11.681  18.268  0.00  0.00    +0.000 A 
ATOM     24  C   UNL     1      -1.920  11.882  17.368  0.00  0.00    +0.000 A 
ATOM     25  C   UNL     1      -2.853  10.874  17.173  0.00  0.00    +0.000 A 
ATOM     26 CL   UNL     1      -4.221  11.150  16.168  0.00  0.00    +0.000 Cl
ATOM     27  C   UNL     1      -2.703   9.651  17.817  0.00  0.00    +0.000 A 
ATOM     28  C   UNL     1      -1.644   9.460  18.716  0.00  0.00    +0.000 A 
ENDBRANCH  18  22
ENDBRANCH   6  18
TORSDOF 5
ENDMDL
MODEL 5
REMARK VINA RESULT:      -8.0      2.880      3.814
REMARK  Name = 
REMARK  6 active torsions:
REMARK  status: ('A' for Active; 'I' for Inactive)
REMARK    1  A    between atoms: C_1  and  N_2
REMARK    2  A    between atoms: C_3  and  C_4
REMARK    3  A    between atoms: C_9  and  O_10
REMARK    4  A    between atoms: O_10  and  C_11
REMARK    5  A    between atoms: C_17  and  C_18
REMARK    6  A    between atoms: C_18  and  C_19
REMARK                            x       y       z     vdW  Elec       q    Type
REMARK                         _______ _______ _______ _____ _____    ______ ____
ROOT
ATOM      1  C   UNL     1       2.111   6.725  20.731  0.00  0.00    +0.000 C 
ATOM      2  N   UNL     1       1.997   7.593  19.591  0.00  0.00    +0.000 N 
ATOM      3  C   UNL     1       2.502   7.417  18.317  0.00  0.00    +0.000 A 
ATOM      4  N   UNL     1       2.233   8.496  17.612  0.00  0.00    +0.000 NA
ATOM      5  N   UNL     1       1.524   9.368  18.396  0.00  0.00    +0.000 NA
ATOM      6  C   UNL     1       1.368   8.816  19.576  0.00  0.00    +0.000 A 
ENDROOT
BRANCH   3   7
ATOM      7  C   UNL     1       3.231   6.251  17.814  0.00  0.00    +0.000 A 
ATOM      8  C   UNL     1       4.598   6.421  17.501  0.00  0.00    +0.000 A 
ATOM      9  C   UNL     1       5.396   5.363  17.066  0.00  0.00    +0.000 A 
ATOM     10  C   UNL     1       4.849   4.095  16.970  0.00  0.00    +0.000 A 
ATOM     11  C   UNL     1       3.514   3.889  17.316  0.00  0.00    +0.000 A 
ATOM     12  C   UNL     1       2.687   4.955  17.727  0.00  0.00    +0.000 A 
BRANCH  12  13
ATOM     13  O   UNL     1       1.458   4.529  18.144  0.00  0.00    +0.000 OA
BRANCH  13  14
ATOM     14  C   UNL     1       1.330   3.573  19.188  0.00  0.00    +0.000 C 
ATOM     15  F   UNL     1       2.457   3.397  19.910  0.00  0.00    +0.000 F 
ATOM     16  F   UNL     1       0.376   4.019  20.042  0.00  0.00    +0.000 F 
ATOM     17  F   UNL     1       0.901   2.399  18.689  0.00  0.00    +0.000 F 
ENDBRANCH  13  14
ENDBRANCH  12  13
ENDBRANCH   3   7
BRANCH   6  18
ATOM     18  C   UNL     1       0.704   9.554  20.761  0.00  0.00    +0.000 C 
ATOM     19  C   UNL     1      -0.452   8.729  21.414  0.00  0.00    +0.000 C 
ATOM     20  C   UNL     1       0.092   9.169  22.788  0.00  0.00    +0.000 C 
ATOM     21  C   UNL     1       1.464   9.380  22.118  0.00  0.00    +0.000 C 
BRANCH  18  22
ATOM     22  C   UNL     1       0.357  11.055  20.241  0.00  0.00    +0.000 A 
ATOM     23  C   UNL     1       1.254  12.119  20.495  0.00  0.00    +0.000 A 
ATOM     24  C   UNL     1       0.910  13.458  20.283  0.00  0.00    +0.000 A 
ATOM     25  C   UNL     1      -0.347  13.769  19.783  0.00  0.00    +0.000 A 
ATOM     26 CL   UNL     1      -0.833  15.412  19.637  0.00  0.00    +0.000 Cl
ATOM     27  C   UNL     1      -1.227  12.752  19.432  0.00  0.00    +0.000 A 
ATOM     28  C   UNL     1      -0.871  11.414  19.646  0.00  0.00    +0.000 A 
ENDBRANCH  18  22
ENDBRANCH   6  18
TORSDOF 5
ENDMDL
MODEL 6
REMARK VINA RESULT:      -8.0      2.591      3.256
REMARK  Name = 
REMARK  6 active torsions:
REMARK  status: ('A' for Active; 'I' for Inactive)
REMARK    1  A    between atoms: C_1  and  N_2
REMARK    2  A    between atoms: C_3  and  C_4
REMARK    3  A    between atoms: C_9  and  O_10
REMARK    4  A    between atoms: O_10  and  C_11
REMARK    5  A    between atoms: C_17  and  C_18
REMARK    6  A    between atoms: C_18  and  C_19
REMARK                            x       y       z     vdW  Elec       q    Type
REMARK                         _______ _______ _______ _____ _____    ______ ____
ROOT
ATOM      1  C   UNL     1       1.775   9.723  17.809  0.00  0.00    +0.000 C 
ATOM      2  N   UNL     1       1.600   8.982  19.028  0.00  0.00    +0.000 N 
ATOM      3  C   UNL     1       2.012   7.697  19.324  0.00  0.00    +0.000 A 
ATOM      4  N   UNL     1       1.568   7.387  20.525  0.00  0.00    +0.000 NA
ATOM      5  N   UNL     1       0.900   8.466  21.039  0.00  0.00    +0.000 NA
ATOM      6  C   UNL     1       0.937   9.428  20.147  0.00  0.00    +0.000 A 
ENDROOT
BRANCH   3   7
ATOM      7  C   UNL     1       2.790   6.803  18.465  0.00  0.00    +0.000 A 
ATOM      8  C   UNL     1       3.970   7.317  17.885  0.00  0.00    +0.000 A 
ATOM      9  C   UNL     1       4.811   6.534  17.095  0.00  0.00    +0.000 A 
ATOM     10  C   UNL     1       4.506   5.199  16.896  0.00  0.00    +0.000 A 
ATOM     11  C   UNL     1       3.371   4.652  17.493  0.00  0.00    +0.000 A 
ATOM     12  C   UNL     1       2.495   5.440  18.269  0.00  0.00    +0.000 A 
BRANCH  12  13
ATOM     13  O   UNL     1       1.520   4.695  18.869  0.00  0.00    +0.000 OA
BRANCH  13  14
ATOM     14  C   UNL     1       1.810   3.884  20.000  0.00  0.00    +0.000 C 
ATOM     15  F   UNL     1       2.175   2.622  19.689  0.00  0.00    +0.000 F 
ATOM     16  F   UNL     1       2.853   4.449  20.657  0.00  0.00    +0.000 F 
ATOM     17  F   UNL     1       0.763   3.878  20.845  0.00  0.00    +0.000 F 
ENDBRANCH  13  14
ENDBRANCH  12  13
ENDBRANCH   3   7
BRANCH   6  18
ATOM     18  C   UNL     1       0.193  10.769  20.335  0.00  0.00    +0.000 C 
ATOM     19  C   UNL     1      -0.332  10.969  21.794  0.00  0.00    +0.000 C 
ATOM     20  C   UNL     1       0.145  12.432  21.700  0.00  0.00    +0.000 C 
ATOM     21  C   UNL     1       1.141  11.982  20.613  0.00  0.00    +0.000 C 
BRANCH  18  22
ATOM     22  C   UNL     1      -0.888  10.878  19.125  0.00  0.00    +0.000 A 
ATOM     23  C   UNL     1      -1.684   9.760  18.782  0.00  0.00    +0.000 A 
ATOM     24  C   UNL     1      -2.454   9.716  17.615  0.00  0.00    +0.000 A 
ATOM     25  C   UNL     1      -2.468  10.812  16.765  0.00  0.00    +0.000 A 
ATOM     26 CL   UNL     1      -3.306  10.728  15.266  0.00  0.00    +0.000 Cl
ATOM     27  C   UNL     1      -1.775  11.967  17.108  0.00  0.00    +0.000 A 
ATOM     28  C   UNL     1      -1.008  12.001  18.280  0.00  0.00    +0.000 A 
ENDBRANCH  18  22
ENDBRANCH   6  18
TORSDOF 5
ENDMDL
MODEL 7
REMARK VINA RESULT:      -8.0      1.327      1.441
REMARK  Name = 
REMARK  6 active torsions:
REMARK  status: ('A' for Active; 'I' for Inactive)
REMARK    1  A    between atoms: C_1  and  N_2
REMARK    2  A    between atoms: C_3  and  C_4
REMARK    3  A    between atoms: C_9  and  O_10
REMARK    4  A    between atoms: O_10  and  C_11
REMARK    5  A    between atoms: C_17  and  C_18
REMARK    6  A    between atoms: C_18  and  C_19
REMARK                            x       y       z     vdW  Elec       q    Type
REMARK                         _______ _______ _______ _____ _____    ______ ____
ROOT
ATOM      1  C   UNL     1       1.087   8.390  21.048  0.00  0.00    +0.000 C 
ATOM      2  N   UNL     1       1.602   8.385  19.706  0.00  0.00    +0.000 N 
ATOM      3  C   UNL     1       2.276   7.377  19.044  0.00  0.00    +0.000 A 
ATOM      4  N   UNL     1       2.638   7.829  17.861  0.00  0.00    +0.000 NA
ATOM      5  N   UNL     1       2.179   9.112  17.721  0.00  0.00    +0.000 NA
ATOM      6  C   UNL     1       1.542   9.436  18.822  0.00  0.00    +0.000 A 
ENDROOT
BRANCH   3   7
ATOM      7  C   UNL     1       2.569   6.035  19.550  0.00  0.00    +0.000 A 
ATOM      8  C   UNL     1       1.650   5.464  20.458  0.00  0.00    +0.000 A 
ATOM      9  C   UNL     1       1.807   4.172  20.958  0.00  0.00    +0.000 A 
ATOM     10  C   UNL     1       2.876   3.404  20.530  0.00  0.00    +0.000 A 
ATOM     11  C   UNL     1       3.775   3.925  19.600  0.00  0.00    +0.000 A 
ATOM     12  C   UNL     1       3.645   5.241  19.109  0.00  0.00    +0.000 A 
BRANCH  12  13
ATOM     13  O   UNL     1       4.542   5.516  18.117  0.00  0.00    +0.000 OA
BRANCH  13  14
ATOM     14  C   UNL     1       5.934   5.602  18.391  0.00  0.00    +0.000 C 
ATOM     15  F   UNL     1       6.231   5.645  19.707  0.00  0.00    +0.000 F 
ATOM     16  F   UNL     1       6.524   4.489  17.887  0.00  0.00    +0.000 F 
ATOM     17  F   UNL     1       6.467   6.660  17.753  0.00  0.00    +0.000 F 
ENDBRANCH  13  14
ENDBRANCH  12  13
ENDBRANCH   3   7
BRANCH   6  18
ATOM     18  C   UNL     1       0.975  10.852  19.071  0.00  0.00    +0.000 C 
ATOM     19  C   UNL     1       1.356  11.416  20.479  0.00  0.00    +0.000 C 
ATOM     20  C   UNL     1       1.630  12.770  19.795  0.00  0.00    +0.000 C 
ATOM     21  C   UNL     1       1.859  11.999  18.479  0.00  0.00    +0.000 C 
BRANCH  18  22
ATOM     22  C   UNL     1      -0.604  10.798  18.685  0.00  0.00    +0.000 A 
ATOM     23  C   UNL     1      -1.045   9.982  17.617  0.00  0.00    +0.000 A 
ATOM     24  C   UNL     1      -2.338  10.069  17.090  0.00  0.00    +0.000 A 
ATOM     25  C   UNL     1      -3.241  10.967  17.642  0.00  0.00    +0.000 A 
ATOM     26 CL   UNL     1      -4.790  11.178  16.927  0.00  0.00    +0.000 Cl
ATOM     27  C   UNL     1      -2.881  11.723  18.751  0.00  0.00    +0.000 A 
ATOM     28  C   UNL     1      -1.584  11.626  19.272  0.00  0.00    +0.000 A 
ENDBRANCH  18  22
ENDBRANCH   6  18
TORSDOF 5
ENDMDL
MODEL 8
REMARK VINA RESULT:      -7.9      1.432      2.075
REMARK  Name = 
REMARK  6 active torsions:
REMARK  status: ('A' for Active; 'I' for Inactive)
REMARK    1  A    between atoms: C_1  and  N_2
REMARK    2  A    between atoms: C_3  and  C_4
REMARK    3  A    between atoms: C_9  and  O_10
REMARK    4  A    between atoms: O_10  and  C_11
REMARK    5  A    between atoms: C_17  and  C_18
REMARK    6  A    between atoms: C_18  and  C_19
REMARK                            x       y       z     vdW  Elec       q    Type
REMARK                         _______ _______ _______ _____ _____    ______ ____
ROOT
ATOM      1  C   UNL     1       1.949   7.877  17.827  0.00  0.00    +0.000 C 
ATOM      2  N   UNL     1       1.688   8.104  19.223  0.00  0.00    +0.000 N 
ATOM      3  C   UNL     1       1.714   7.197  20.265  0.00  0.00    +0.000 A 
ATOM      4  N   UNL     1       1.330   7.817  21.362  0.00  0.00    +0.000 NA
ATOM      5  N   UNL     1       1.086   9.131  21.062  0.00  0.00    +0.000 NA
ATOM      6  C   UNL     1       1.320   9.305  19.783  0.00  0.00    +0.000 A 
ENDROOT
BRANCH   3   7
ATOM      7  C   UNL     1       2.081   5.783  20.190  0.00  0.00    +0.000 A 
ATOM      8  C   UNL     1       1.065   4.830  20.427  0.00  0.00    +0.000 A 
ATOM      9  C   UNL     1       1.296   3.459  20.328  0.00  0.00    +0.000 A 
ATOM     10  C   UNL     1       2.549   3.007  19.949  0.00  0.00    +0.000 A 
ATOM     11  C   UNL     1       3.559   3.925  19.664  0.00  0.00    +0.000 A 
ATOM     12  C   UNL     1       3.348   5.314  19.791  0.00  0.00    +0.000 A 
BRANCH  12  13
ATOM     13  O   UNL     1       4.412   6.044  19.344  0.00  0.00    +0.000 OA
BRANCH  13  14
ATOM     14  C   UNL     1       4.855   5.943  17.997  0.00  0.00    +0.000 C 
ATOM     15  F   UNL     1       5.233   7.120  17.455  0.00  0.00    +0.000 F 
ATOM     16  F   UNL     1       5.940   5.130  17.978  0.00  0.00    +0.000 F 
ATOM     17  F   UNL     1       3.906   5.359  17.242  0.00  0.00    +0.000 F 
ENDBRANCH  13  14
ENDBRANCH  12  13
ENDBRANCH   3   7
BRANCH   6  18
ATOM     18  C   UNL     1       1.050  10.644  19.060  0.00  0.00    +0.000 C 
ATOM     19  C   UNL     1       1.599  11.877  19.848  0.00  0.00    +0.000 C 
ATOM     20  C   UNL     1       2.097  12.439  18.502  0.00  0.00    +0.000 C 
ATOM     21  C   UNL     1       2.110  10.994  17.964  0.00  0.00    +0.000 C 
BRANCH  18  22
ATOM     22  C   UNL     1      -0.526  10.649  18.659  0.00  0.00    +0.000 A 
ATOM     23  C   UNL     1      -0.983   9.874  17.566  0.00  0.00    +0.000 A 
ATOM     24  C   UNL     1      -2.267  10.015  17.031  0.00  0.00    +0.000 A 
ATOM     25  C   UNL     1      -3.146  10.927  17.597  0.00  0.00    +0.000 A 
ATOM     26 CL   UNL     1      -4.682  11.205  16.874  0.00  0.00    +0.000 Cl
ATOM     27  C   UNL     1      -2.774  11.643  18.728  0.00  0.00    +0.000 A 
ATOM     28  C   UNL     1      -1.485  11.493  19.258  0.00  0.00    +0.000 A 
ENDBRANCH  18  22
ENDBRANCH   6  18
TORSDOF 5
ENDMDL
MODEL 9
REMARK VINA RESULT:      -7.9      0.337      1.186
REMARK  Name = 
REMARK  6 active torsions:
REMARK  status: ('A' for Active; 'I' for Inactive)
REMARK    1  A    between atoms: C_1  and  N_2
REMARK    2  A    between atoms: C_3  and  C_4
REMARK    3  A    between atoms: C_9  and  O_10
REMARK    4  A    between atoms: O_10  and  C_11
REMARK    5  A    between atoms: C_17  and  C_18
REMARK    6  A    between atoms: C_18  and  C_19
REMARK                            x       y       z     vdW  Elec       q    Type
REMARK                         _______ _______ _______ _____ _____    ______ ____
ROOT
ATOM      1  C   UNL     1       1.276   7.896  20.393  0.00  0.00    +0.000 C 
ATOM      2  N   UNL     1       1.739   8.321  19.100  0.00  0.00    +0.000 N 
ATOM      3  C   UNL     1       2.448   7.602  18.157  0.00  0.00    +0.000 A 
ATOM      4  N   UNL     1       2.735   8.406  17.155  0.00  0.00    +0.000 NA
ATOM      5  N   UNL     1       2.192   9.638  17.409  0.00  0.00    +0.000 NA
ATOM      6  C   UNL     1       1.579   9.578  18.568  0.00  0.00    +0.000 A 
ENDROOT
BRANCH   3   7
ATOM      7  C   UNL     1       2.844   6.195  18.240  0.00  0.00    +0.000 A 
ATOM      8  C   UNL     1       1.837   5.222  18.058  0.00  0.00    +0.000 A 
ATOM      9  C   UNL     1       2.116   3.855  18.063  0.00  0.00    +0.000 A 
ATOM     10  C   UNL     1       3.425   3.431  18.215  0.00  0.00    +0.000 A 
ATOM     11  C   UNL     1       4.446   4.371  18.352  0.00  0.00    +0.000 A 
ATOM     12  C   UNL     1       4.174   5.755  18.379  0.00  0.00    +0.000 A 
BRANCH  12  13
ATOM     13  O   UNL     1       5.313   6.509  18.389  0.00  0.00    +0.000 OA
BRANCH  13  14
ATOM     14  C   UNL     1       6.059   6.722  17.198  0.00  0.00    +0.000 C 
ATOM     15  F   UNL     1       5.310   6.728  16.076  0.00  0.00    +0.000 F 
ATOM     16  F   UNL     1       6.646   7.942  17.291  0.00  0.00    +0.000 F 
ATOM     17  F   UNL     1       7.046   5.812  17.102  0.00  0.00    +0.000 F 
ENDBRANCH  13  14
ENDBRANCH  12  13
ENDBRANCH   3   7
BRANCH   6  18
ATOM     18  C   UNL     1       0.934  10.815  19.235  0.00  0.00    +0.000 C 
ATOM     19  C   UNL     1       1.133  10.836  20.785  0.00  0.00    +0.000 C 
ATOM     20  C   UNL     1       1.432  12.344  20.664  0.00  0.00    +0.000 C 
ATOM     21  C   UNL     1       1.836  12.093  19.198  0.00  0.00    +0.000 C 
BRANCH  18  22
ATOM     22  C   UNL     1      -0.587  10.910  18.670  0.00  0.00    +0.000 A 
ATOM     23  C   UNL     1      -1.466  11.904  19.161  0.00  0.00    +0.000 A 
ATOM     24  C   UNL     1      -2.839  11.893  18.892  0.00  0.00    +0.000 A 
ATOM     25  C   UNL     1      -3.370  10.888  18.096  0.00  0.00    +0.000 A 
ATOM     26 CL   UNL     1      -5.070  10.786  17.860  0.00  0.00    +0.000 Cl
ATOM     27  C   UNL     1      -2.532   9.944  17.516  0.00  0.00    +0.000 A 
ATOM     28  C   UNL     1      -1.158   9.965  17.790  0.00  0.00    +0.000 A 
ENDBRANCH  18  22
ENDBRANCH   6  18
TORSDOF 5
ENDMDL
