MODEL 1
REMARK VINA RESULT:      -6.7      0.000      0.000
REMARK  Name = 
REMARK  4 active torsions:
REMARK  status: ('A' for Active; 'I' for Inactive)
REMARK    1  A    between atoms: C_2  and  C_3
REMARK    2  A    between atoms: C_3  and  N_4
REMARK    3  A    between atoms: C_8  and  N_9
REMARK    4  A    between atoms: N_9  and  N_10
REMARK                            x       y       z     vdW  Elec       q    Type
REMARK                         _______ _______ _______ _____ _____    ______ ____
ROOT
ATOM      1  N   UNL     1       2.152   7.979  19.068  0.00  0.00    +0.000 N 
ATOM      2  C   UNL     1       2.863   7.059  18.307  0.00  0.00    +0.000 C 
ATOM      3  O   UNL     1       3.585   7.397  17.370  0.00  0.00    +0.000 OA
ATOM      4  C   UNL     1       2.742   5.639  18.714  0.00  0.00    +0.000 C 
ATOM      5  C   UNL     1       3.320   4.667  17.986  0.00  0.00    +0.000 C 
ATOM      6  C   UNL     1       2.100   5.290  19.989  0.00  0.00    +0.000 C 
ATOM      7  O   UNL     1       1.927   4.145  20.386  0.00  0.00    +0.000 OA
ATOM      8  N   UNL     1       1.786   6.378  20.757  0.00  0.00    +0.000 N 
ATOM      9  C   UNL     1       1.747   7.697  20.370  0.00  0.00    +0.000 C 
ATOM     10  S   UNL     1       1.229   8.796  21.523  0.00  0.00    +0.000 S 
ATOM     11  H   UNL     1       1.458   6.168  21.692  0.00  0.00    +0.000 HD
ENDROOT
BRANCH   5  12
ATOM     12  N   UNL     1       4.332   4.825  17.048  0.00  0.00    +0.000 N 
ATOM     13  H   UNL     1       3.936   4.486  16.153  0.00  0.00    +0.000 HD
BRANCH  12  14
ATOM     14  N   UNL     1       5.580   4.137  17.169  0.00  0.00    +0.000 NA
ATOM     15  C   UNL     1       6.652   4.930  17.799  0.00  0.00    +0.000 C 
ATOM     16  C   UNL     1       7.068   6.166  16.994  0.00  0.00    +0.000 C 
ATOM     17  O   UNL     1       7.402   5.841  15.635  0.00  0.00    +0.000 OA
ATOM     18  C   UNL     1       6.321   5.142  15.007  0.00  0.00    +0.000 C 
ATOM     19  C   UNL     1       6.002   3.848  15.771  0.00  0.00    +0.000 C 
ENDBRANCH  12  14
ENDBRANCH   5  12
BRANCH   1  20
ATOM     20  C   UNL     1       2.020   9.313  18.462  0.00  0.00    +0.000 C 
BRANCH  20  22
ATOM     21  C   UNL     1      -0.313  10.255  18.372  0.00  0.00    +0.000 C 
ATOM     22  C   UNL     1       0.636   9.445  17.886  0.00  0.00    +0.000 C 
ENDBRANCH  20  22
ENDBRANCH   1  20
TORSDOF 4
ENDMDL
MODEL 2
REMARK VINA RESULT:      -6.5      2.977      5.794
REMARK  Name = 
REMARK  4 active torsions:
REMARK  status: ('A' for Active; 'I' for Inactive)
REMARK    1  A    between atoms: C_2  and  C_3
REMARK    2  A    between atoms: C_3  and  N_4
REMARK    3  A    between atoms: C_8  and  N_9
REMARK    4  A    between atoms: N_9  and  N_10
REMARK                            x       y       z     vdW  Elec       q    Type
REMARK                         _______ _______ _______ _____ _____    ______ ____
ROOT
ATOM      1  N   UNL     1       5.677   5.209  16.909  0.00  0.00    +0.000 N 
ATOM      2  C   UNL     1       4.485   4.562  17.209  0.00  0.00    +0.000 C 
ATOM      3  O   UNL     1       4.384   3.336  17.208  0.00  0.00    +0.000 OA
ATOM      4  C   UNL     1       3.343   5.431  17.579  0.00  0.00    +0.000 C 
ATOM      5  C   UNL     1       2.125   4.902  17.799  0.00  0.00    +0.000 C 
ATOM      6  C   UNL     1       3.557   6.860  17.838  0.00  0.00    +0.000 C 
ATOM      7  O   UNL     1       2.668   7.655  18.114  0.00  0.00    +0.000 OA
ATOM      8  N   UNL     1       4.877   7.223  17.835  0.00  0.00    +0.000 N 
ATOM      9  C   UNL     1       5.946   6.498  17.364  0.00  0.00    +0.000 C 
ATOM     10  S   UNL     1       7.438   7.257  17.410  0.00  0.00    +0.000 S 
ATOM     11  H   UNL     1       5.066   8.173  18.132  0.00  0.00    +0.000 HD
ENDROOT
BRANCH   5  12
ATOM     12  N   UNL     1       1.835   3.569  18.062  0.00  0.00    +0.000 N 
ATOM     13  H   UNL     1       1.335   3.224  17.223  0.00  0.00    +0.000 HD
BRANCH  12  14
ATOM     14  N   UNL     1       1.000   3.186  19.158  0.00  0.00    +0.000 NA
ATOM     15  C   UNL     1       0.878   4.207  20.215  0.00  0.00    +0.000 C 
ATOM     16  C   UNL     1       2.196   4.517  20.936  0.00  0.00    +0.000 C 
ATOM     17  O   UNL     1       2.830   3.330  21.439  0.00  0.00    +0.000 OA
ATOM     18  C   UNL     1       3.017   2.376  20.387  0.00  0.00    +0.000 C 
ATOM     19  C   UNL     1       1.667   1.998  19.758  0.00  0.00    +0.000 C 
ENDBRANCH  12  14
ENDBRANCH   5  12
BRANCH   1  20
ATOM     20  C   UNL     1       6.684   4.374  16.237  0.00  0.00    +0.000 C 
BRANCH  20  22
ATOM     21  C   UNL     1       6.061   3.892  13.845  0.00  0.00    +0.000 C 
ATOM     22  C   UNL     1       6.649   4.671  14.762  0.00  0.00    +0.000 C 
ENDBRANCH  20  22
ENDBRANCH   1  20
TORSDOF 4
ENDMDL
MODEL 3
REMARK VINA RESULT:      -6.1      1.263      1.510
REMARK  Name = 
REMARK  4 active torsions:
REMARK  status: ('A' for Active; 'I' for Inactive)
REMARK    1  A    between atoms: C_2  and  C_3
REMARK    2  A    between atoms: C_3  and  N_4
REMARK    3  A    between atoms: C_8  and  N_9
REMARK    4  A    between atoms: N_9  and  N_10
REMARK                            x       y       z     vdW  Elec       q    Type
REMARK                         _______ _______ _______ _____ _____    ______ ____
ROOT
ATOM      1  N   UNL     1       1.473   8.854  19.454  0.00  0.00    +0.000 N 
ATOM      2  C   UNL     1       2.289   8.017  18.702  0.00  0.00    +0.000 C 
ATOM      3  O   UNL     1       2.914   8.417  17.720  0.00  0.00    +0.000 OA
ATOM      4  C   UNL     1       2.405   6.617  19.173  0.00  0.00    +0.000 C 
ATOM      5  C   UNL     1       3.099   5.711  18.461  0.00  0.00    +0.000 C 
ATOM      6  C   UNL     1       1.873   6.236  20.488  0.00  0.00    +0.000 C 
ATOM      7  O   UNL     1       1.895   5.098  20.940  0.00  0.00    +0.000 OA
ATOM      8  N   UNL     1       1.423   7.298  21.223  0.00  0.00    +0.000 N 
ATOM      9  C   UNL     1       1.165   8.576  20.783  0.00  0.00    +0.000 C 
ATOM     10  S   UNL     1       0.526   9.636  21.911  0.00  0.00    +0.000 S 
ATOM     11  H   UNL     1       1.166   7.086  22.180  0.00  0.00    +0.000 HD
ENDROOT
BRANCH   5  12
ATOM     12  N   UNL     1       4.039   5.977  17.473  0.00  0.00    +0.000 N 
ATOM     13  H   UNL     1       3.496   6.097  16.600  0.00  0.00    +0.000 HD
BRANCH  12  14
ATOM     14  N   UNL     1       5.057   5.032  17.133  0.00  0.00    +0.000 NA
ATOM     15  C   UNL     1       5.763   4.457  18.293  0.00  0.00    +0.000 C 
ATOM     16  C   UNL     1       6.564   5.481  19.106  0.00  0.00    +0.000 C 
ATOM     17  O   UNL     1       7.463   6.242  18.283  0.00  0.00    +0.000 OA
ATOM     18  C   UNL     1       6.753   6.863  17.205  0.00  0.00    +0.000 C 
ATOM     19  C   UNL     1       6.054   5.802  16.341  0.00  0.00    +0.000 C 
ENDBRANCH  12  14
ENDBRANCH   5  12
BRANCH   1  20
ATOM     20  C   UNL     1       1.113  10.120  18.799  0.00  0.00    +0.000 C 
BRANCH  20  22
ATOM     21  C   UNL     1      -1.371  10.487  18.613  0.00  0.00    +0.000 C 
ATOM     22  C   UNL     1      -0.233   9.959  18.145  0.00  0.00    +0.000 C 
ENDBRANCH  20  22
ENDBRANCH   1  20
TORSDOF 4
ENDMDL
MODEL 4
REMARK VINA RESULT:      -6.0      2.730      6.382
REMARK  Name = 
REMARK  4 active torsions:
REMARK  status: ('A' for Active; 'I' for Inactive)
REMARK    1  A    between atoms: C_2  and  C_3
REMARK    2  A    between atoms: C_3  and  N_4
REMARK    3  A    between atoms: C_8  and  N_9
REMARK    4  A    between atoms: N_9  and  N_10
REMARK                            x       y       z     vdW  Elec       q    Type
REMARK                         _______ _______ _______ _____ _____    ______ ____
ROOT
ATOM      1  N   UNL     1       2.832   5.296  19.783  0.00  0.00    +0.000 N 
ATOM      2  C   UNL     1       2.470   6.616  19.540  0.00  0.00    +0.000 C 
ATOM      3  O   UNL     1       1.810   7.276  20.342  0.00  0.00    +0.000 OA
ATOM      4  C   UNL     1       2.961   7.207  18.273  0.00  0.00    +0.000 C 
ATOM      5  C   UNL     1       2.589   8.447  17.908  0.00  0.00    +0.000 C 
ATOM      6  C   UNL     1       3.964   6.497  17.468  0.00  0.00    +0.000 C 
ATOM      7  O   UNL     1       4.399   6.895  16.395  0.00  0.00    +0.000 OA
ATOM      8  N   UNL     1       4.452   5.372  18.075  0.00  0.00    +0.000 N 
ATOM      9  C   UNL     1       3.935   4.713  19.166  0.00  0.00    +0.000 C 
ATOM     10  S   UNL     1       4.710   3.299  19.617  0.00  0.00    +0.000 S 
ATOM     11  H   UNL     1       5.233   4.929  17.604  0.00  0.00    +0.000 HD
ENDROOT
BRANCH   5  12
ATOM     12  N   UNL     1       2.049   9.427  18.731  0.00  0.00    +0.000 N 
ATOM     13  H   UNL     1       1.397   8.928  19.363  0.00  0.00    +0.000 HD
BRANCH  12  14
ATOM     14  N   UNL     1       1.276  10.508  18.203  0.00  0.00    +0.000 NA
ATOM     15  C   UNL     1       1.482  11.796  18.892  0.00  0.00    +0.000 C 
ATOM     16  C   UNL     1       1.033  11.795  20.358  0.00  0.00    +0.000 C 
ATOM     17  O   UNL     1      -0.322  11.342  20.510  0.00  0.00    +0.000 OA
ATOM     18  C   UNL     1      -0.490  10.054  19.907  0.00  0.00    +0.000 C 
ATOM     19  C   UNL     1      -0.142  10.111  18.411  0.00  0.00    +0.000 C 
ENDBRANCH  12  14
ENDBRANCH   5  12
BRANCH   1  20
ATOM     20  C   UNL     1       2.077   4.635  20.858  0.00  0.00    +0.000 C 
BRANCH  20  22
ATOM     21  C   UNL     1       0.869   2.798  19.631  0.00  0.00    +0.000 C 
ATOM     22  C   UNL     1       0.861   3.980  20.260  0.00  0.00    +0.000 C 
ENDBRANCH  20  22
ENDBRANCH   1  20
TORSDOF 4
ENDMDL
MODEL 5
REMARK VINA RESULT:      -6.0      2.904      6.615
REMARK  Name = 
REMARK  4 active torsions:
REMARK  status: ('A' for Active; 'I' for Inactive)
REMARK    1  A    between atoms: C_2  and  C_3
REMARK    2  A    between atoms: C_3  and  N_4
REMARK    3  A    between atoms: C_8  and  N_9
REMARK    4  A    between atoms: N_9  and  N_10
REMARK                            x       y       z     vdW  Elec       q    Type
REMARK                         _______ _______ _______ _____ _____    ______ ____
ROOT
ATOM      1  N   UNL     1       2.612   4.808  19.998  0.00  0.00    +0.000 N 
ATOM      2  C   UNL     1       2.174   6.128  19.981  0.00  0.00    +0.000 C 
ATOM      3  O   UNL     1       1.477   6.601  20.877  0.00  0.00    +0.000 OA
ATOM      4  C   UNL     1       2.633   6.955  18.841  0.00  0.00    +0.000 C 
ATOM      5  C   UNL     1       2.191   8.217  18.690  0.00  0.00    +0.000 C 
ATOM      6  C   UNL     1       3.677   6.452  17.938  0.00  0.00    +0.000 C 
ATOM      7  O   UNL     1       4.090   7.053  16.954  0.00  0.00    +0.000 OA
ATOM      8  N   UNL     1       4.228   5.269  18.348  0.00  0.00    +0.000 N 
ATOM      9  C   UNL     1       3.748   4.404  19.303  0.00  0.00    +0.000 C 
ATOM     10  S   UNL     1       4.602   2.979  19.513  0.00  0.00    +0.000 S 
ATOM     11  H   UNL     1       5.034   4.959  17.817  0.00  0.00    +0.000 HD
ENDROOT
BRANCH   5  12
ATOM     12  N   UNL     1       1.593   9.008  19.663  0.00  0.00    +0.000 N 
ATOM     13  H   UNL     1       1.277   8.350  20.398  0.00  0.00    +0.000 HD
BRANCH  12  14
ATOM     14  N   UNL     1       0.442   9.806  19.377  0.00  0.00    +0.000 NA
ATOM     15  C   UNL     1       0.731  11.236  19.163  0.00  0.00    +0.000 C 
ATOM     16  C   UNL     1       1.291  11.949  20.399  0.00  0.00    +0.000 C 
ATOM     17  O   UNL     1       0.461  11.762  21.556  0.00  0.00    +0.000 OA
ATOM     18  C   UNL     1       0.252  10.366  21.803  0.00  0.00    +0.000 C 
ATOM     19  C   UNL     1      -0.415   9.700  20.590  0.00  0.00    +0.000 C 
ENDBRANCH  12  14
ENDBRANCH   5  12
BRANCH   1  20
ATOM     20  C   UNL     1       1.894   3.930  20.935  0.00  0.00    +0.000 C 
BRANCH  20  22
ATOM     21  C   UNL     1       0.857   2.686  19.007  0.00  0.00    +0.000 C 
ATOM     22  C   UNL     1       0.751   3.278  20.203  0.00  0.00    +0.000 C 
ENDBRANCH  20  22
ENDBRANCH   1  20
TORSDOF 4
ENDMDL
MODEL 6
REMARK VINA RESULT:      -5.8      2.883      4.277
REMARK  Name = 
REMARK  4 active torsions:
REMARK  status: ('A' for Active; 'I' for Inactive)
REMARK    1  A    between atoms: C_2  and  C_3
REMARK    2  A    between atoms: C_3  and  N_4
REMARK    3  A    between atoms: C_8  and  N_9
REMARK    4  A    between atoms: N_9  and  N_10
REMARK                            x       y       z     vdW  Elec       q    Type
REMARK                         _______ _______ _______ _____ _____    ______ ____
ROOT
ATOM      1  N   UNL     1       1.404   8.923  20.697  0.00  0.00    +0.000 N 
ATOM      2  C   UNL     1       1.682   7.630  20.269  0.00  0.00    +0.000 C 
ATOM      3  O   UNL     1       1.454   6.643  20.968  0.00  0.00    +0.000 OA
ATOM      4  C   UNL     1       2.228   7.496  18.898  0.00  0.00    +0.000 C 
ATOM      5  C   UNL     1       2.612   6.295  18.429  0.00  0.00    +0.000 C 
ATOM      6  C   UNL     1       2.235   8.651  17.992  0.00  0.00    +0.000 C 
ATOM      7  O   UNL     1       2.698   8.639  16.858  0.00  0.00    +0.000 OA
ATOM      8  N   UNL     1       1.584   9.744  18.496  0.00  0.00    +0.000 N 
ATOM      9  C   UNL     1       1.192   9.963  19.796  0.00  0.00    +0.000 C 
ATOM     10  S   UNL     1       0.497  11.451  20.123  0.00  0.00    +0.000 S 
ATOM     11  H   UNL     1       1.463  10.514  17.849  0.00  0.00    +0.000 HD
ENDROOT
BRANCH   5  12
ATOM     12  N   UNL     1       2.254   5.053  18.940  0.00  0.00    +0.000 N 
ATOM     13  H   UNL     1       3.145   4.598  19.208  0.00  0.00    +0.000 HD
BRANCH  12  14
ATOM     14  N   UNL     1       1.582   4.078  18.139  0.00  0.00    +0.000 NA
ATOM     15  C   UNL     1       1.021   2.947  18.901  0.00  0.00    +0.000 C 
ATOM     16  C   UNL     1       2.076   2.084  19.601  0.00  0.00    +0.000 C 
ATOM     17  O   UNL     1       3.097   1.635  18.695  0.00  0.00    +0.000 OA
ATOM     18  C   UNL     1       3.692   2.750  18.019  0.00  0.00    +0.000 C 
ATOM     19  C   UNL     1       2.628   3.531  17.233  0.00  0.00    +0.000 C 
ENDBRANCH  12  14
ENDBRANCH   5  12
BRANCH   1  20
ATOM     20  C   UNL     1       1.182   9.062  22.144  0.00  0.00    +0.000 C 
BRANCH  20  22
ATOM     21  C   UNL     1      -0.875  10.029  23.228  0.00  0.00    +0.000 C 
ATOM     22  C   UNL     1      -0.300   9.151  22.397  0.00  0.00    +0.000 C 
ENDBRANCH  20  22
ENDBRANCH   1  20
TORSDOF 4
ENDMDL
MODEL 7
REMARK VINA RESULT:      -5.8      2.756      6.455
REMARK  Name = 
REMARK  4 active torsions:
REMARK  status: ('A' for Active; 'I' for Inactive)
REMARK    1  A    between atoms: C_2  and  C_3
REMARK    2  A    between atoms: C_3  and  N_4
REMARK    3  A    between atoms: C_8  and  N_9
REMARK    4  A    between atoms: N_9  and  N_10
REMARK                            x       y       z     vdW  Elec       q    Type
REMARK                         _______ _______ _______ _____ _____    ______ ____
ROOT
ATOM      1  N   UNL     1       3.838   6.285  17.722  0.00  0.00    +0.000 N 
ATOM      2  C   UNL     1       3.062   7.268  18.323  0.00  0.00    +0.000 C 
ATOM      3  O   UNL     1       2.890   8.374  17.812  0.00  0.00    +0.000 OA
ATOM      4  C   UNL     1       2.408   6.897  19.600  0.00  0.00    +0.000 C 
ATOM      5  C   UNL     1       1.711   7.810  20.301  0.00  0.00    +0.000 C 
ATOM      6  C   UNL     1       2.405   5.499  20.048  0.00  0.00    +0.000 C 
ATOM      7  O   UNL     1       1.920   5.111  21.103  0.00  0.00    +0.000 OA
ATOM      8  N   UNL     1       2.920   4.630  19.125  0.00  0.00    +0.000 N 
ATOM      9  C   UNL     1       3.657   4.933  18.004  0.00  0.00    +0.000 C 
ATOM     10  S   UNL     1       4.232   3.634  17.117  0.00  0.00    +0.000 S 
ATOM     11  H   UNL     1       2.819   3.647  19.350  0.00  0.00    +0.000 HD
ENDROOT
BRANCH   5  12
ATOM     12  N   UNL     1       1.214   9.017  19.827  0.00  0.00    +0.000 N 
ATOM     13  H   UNL     1       1.936   9.723  20.058  0.00  0.00    +0.000 HD
BRANCH  12  14
ATOM     14  N   UNL     1      -0.004   9.575  20.326  0.00  0.00    +0.000 NA
ATOM     15  C   UNL     1      -0.818  10.267  19.309  0.00  0.00    +0.000 C 
ATOM     16  C   UNL     1      -0.143  11.507  18.712  0.00  0.00    +0.000 C 
ATOM     17  O   UNL     1       0.301  12.424  19.724  0.00  0.00    +0.000 OA
ATOM     18  C   UNL     1       1.156  11.759  20.662  0.00  0.00    +0.000 C 
ATOM     19  C   UNL     1       0.416  10.590  21.330  0.00  0.00    +0.000 C 
ENDBRANCH  12  14
ENDBRANCH   5  12
BRANCH   1  20
ATOM     20  C   UNL     1       4.727   6.765  16.653  0.00  0.00    +0.000 C 
BRANCH  20  22
ATOM     21  C   UNL     1       7.157   6.224  17.034  0.00  0.00    +0.000 C 
ATOM     22  C   UNL     1       6.093   7.011  17.237  0.00  0.00    +0.000 C 
ENDBRANCH  20  22
ENDBRANCH   1  20
TORSDOF 4
ENDMDL
MODEL 8
REMARK VINA RESULT:      -5.8      2.746      4.186
REMARK  Name = 
REMARK  4 active torsions:
REMARK  status: ('A' for Active; 'I' for Inactive)
REMARK    1  A    between atoms: C_2  and  C_3
REMARK    2  A    between atoms: C_3  and  N_4
REMARK    3  A    between atoms: C_8  and  N_9
REMARK    4  A    between atoms: N_9  and  N_10
REMARK                            x       y       z     vdW  Elec       q    Type
REMARK                         _______ _______ _______ _____ _____    ______ ____
ROOT
ATOM      1  N   UNL     1       1.366   9.012  20.758  0.00  0.00    +0.000 N 
ATOM      2  C   UNL     1       1.678   7.702  20.415  0.00  0.00    +0.000 C 
ATOM      3  O   UNL     1       1.476   6.757  21.177  0.00  0.00    +0.000 OA
ATOM      4  C   UNL     1       2.228   7.494  19.055  0.00  0.00    +0.000 C 
ATOM      5  C   UNL     1       2.643   6.275  18.665  0.00  0.00    +0.000 C 
ATOM      6  C   UNL     1       2.205   8.587  18.075  0.00  0.00    +0.000 C 
ATOM      7  O   UNL     1       2.667   8.513  16.944  0.00  0.00    +0.000 OA
ATOM      8  N   UNL     1       1.525   9.693  18.508  0.00  0.00    +0.000 N 
ATOM      9  C   UNL     1       1.127   9.986  19.792  0.00  0.00    +0.000 C 
ATOM     10  S   UNL     1       0.393  11.473  20.022  0.00  0.00    +0.000 S 
ATOM     11  H   UNL     1       1.383  10.416  17.812  0.00  0.00    +0.000 HD
ENDROOT
BRANCH   5  12
ATOM     12  N   UNL     1       2.319   5.060  19.256  0.00  0.00    +0.000 N 
ATOM     13  H   UNL     1       1.680   5.295  20.037  0.00  0.00    +0.000 HD
BRANCH  12  14
ATOM     14  N   UNL     1       3.317   4.225  19.849  0.00  0.00    +0.000 NA
ATOM     15  C   UNL     1       4.334   3.729  18.903  0.00  0.00    +0.000 C 
ATOM     16  C   UNL     1       3.774   2.803  17.816  0.00  0.00    +0.000 C 
ATOM     17  O   UNL     1       3.015   1.717  18.368  0.00  0.00    +0.000 OA
ATOM     18  C   UNL     1       1.977   2.213  19.223  0.00  0.00    +0.000 C 
ATOM     19  C   UNL     1       2.576   3.044  20.369  0.00  0.00    +0.000 C 
ENDBRANCH  12  14
ENDBRANCH   5  12
BRANCH   1  20
ATOM     20  C   UNL     1       1.140   9.240  22.194  0.00  0.00    +0.000 C 
BRANCH  20  22
ATOM     21  C   UNL     1      -0.966  10.198  23.186  0.00  0.00    +0.000 C 
ATOM     22  C   UNL     1      -0.343   9.270  22.448  0.00  0.00    +0.000 C 
ENDBRANCH  20  22
ENDBRANCH   1  20
TORSDOF 4
ENDMDL
MODEL 9
REMARK VINA RESULT:      -5.8      1.007      1.267
REMARK  Name = 
REMARK  4 active torsions:
REMARK  status: ('A' for Active; 'I' for Inactive)
REMARK    1  A    between atoms: C_2  and  C_3
REMARK    2  A    between atoms: C_3  and  N_4
REMARK    3  A    between atoms: C_8  and  N_9
REMARK    4  A    between atoms: N_9  and  N_10
REMARK                            x       y       z     vdW  Elec       q    Type
REMARK                         _______ _______ _______ _____ _____    ______ ____
ROOT
ATOM      1  N   UNL     1       1.633   8.541  19.430  0.00  0.00    +0.000 N 
ATOM      2  C   UNL     1       2.585   7.717  18.842  0.00  0.00    +0.000 C 
ATOM      3  O   UNL     1       3.351   8.117  17.965  0.00  0.00    +0.000 OA
ATOM      4  C   UNL     1       2.663   6.331  19.362  0.00  0.00    +0.000 C 
ATOM      5  C   UNL     1       3.491   5.434  18.796  0.00  0.00    +0.000 C 
ATOM      6  C   UNL     1       1.935   5.960  20.582  0.00  0.00    +0.000 C 
ATOM      7  O   UNL     1       1.916   4.833  21.061  0.00  0.00    +0.000 OA
ATOM      8  N   UNL     1       1.340   7.022  21.206  0.00  0.00    +0.000 N 
ATOM      9  C   UNL     1       1.121   8.281  20.698  0.00  0.00    +0.000 C 
ATOM     10  S   UNL     1       0.276   9.343  21.679  0.00  0.00    +0.000 S 
ATOM     11  H   UNL     1       0.936   6.822  22.114  0.00  0.00    +0.000 HD
ENDROOT
BRANCH   5  12
ATOM     12  N   UNL     1       4.571   5.710  17.968  0.00  0.00    +0.000 N 
ATOM     13  H   UNL     1       4.562   6.737  17.835  0.00  0.00    +0.000 HD
BRANCH  12  14
ATOM     14  N   UNL     1       4.654   5.180  16.642  0.00  0.00    +0.000 NA
ATOM     15  C   UNL     1       5.619   4.074  16.490  0.00  0.00    +0.000 C 
ATOM     16  C   UNL     1       7.076   4.480  16.742  0.00  0.00    +0.000 C 
ATOM     17  O   UNL     1       7.467   5.615  15.953  0.00  0.00    +0.000 OA
ATOM     18  C   UNL     1       6.569   6.711  16.170  0.00  0.00    +0.000 C 
ATOM     19  C   UNL     1       5.132   6.309  15.800  0.00  0.00    +0.000 C 
ENDBRANCH  12  14
ENDBRANCH   5  12
BRANCH   1  20
ATOM     20  C   UNL     1       1.349   9.782  18.693  0.00  0.00    +0.000 C 
BRANCH  20  22
ATOM     21  C   UNL     1      -1.052  10.307  18.145  0.00  0.00    +0.000 C 
ATOM     22  C   UNL     1       0.065   9.602  17.926  0.00  0.00    +0.000 C 
ENDBRANCH  20  22
ENDBRANCH   1  20
TORSDOF 4
ENDMDL
