MODEL 1
REMARK VINA RESULT:      -8.4      0.000      0.000
REMARK  Name = 
REMARK  5 active torsions:
REMARK  status: ('A' for Active; 'I' for Inactive)
REMARK    1  A    between atoms: C_1  and  N_2
REMARK    2  A    between atoms: C_6  and  S_7
REMARK    3  A    between atoms: S_7  and  C_8
REMARK    4  A    between atoms: C_8  and  C_9
REMARK    5  A    between atoms: N_14  and  C_15
REMARK                            x       y       z     vdW  Elec       q    Type
REMARK                         _______ _______ _______ _____ _____    ______ ____
ROOT
ATOM      1  C   UNL     1       1.736   8.881  17.640  0.00  0.00    +0.000 C 
ENDROOT
BRANCH   1   2
ATOM      2  C   UNL     1       1.442  10.246  18.278  0.00  0.00    +0.000 C 
ATOM      3  O   UNL     1       2.324  11.046  18.590  0.00  0.00    +0.000 OA
ATOM      4  N   UNL     1       0.097  10.562  18.445  0.00  0.00    +0.000 N 
ATOM      5  C   UNL     1      -0.284  11.904  18.922  0.00  0.00    +0.000 C 
ATOM      6  C   UNL     1      -1.537  12.446  18.195  0.00  0.00    +0.000 C 
ATOM      7  N   UNL     1      -2.601  11.432  18.218  0.00  0.00    +0.000 N 
ATOM      8  C   UNL     1      -2.223  10.119  17.678  0.00  0.00    +0.000 C 
ATOM      9  C   UNL     1      -1.006   9.586  18.449  0.00  0.00    +0.000 C 
BRANCH   7  10
ATOM     10  C   UNL     1      -3.926  11.733  18.473  0.00  0.00    +0.000 A 
ATOM     11  C   UNL     1      -4.933  11.466  17.534  0.00  0.00    +0.000 A 
ATOM     12  C   UNL     1      -6.271  11.801  17.772  0.00  0.00    +0.000 A 
ATOM     13  C   UNL     1      -6.639  12.421  18.964  0.00  0.00    +0.000 A 
ATOM     14  C   UNL     1      -5.666  12.700  19.917  0.00  0.00    +0.000 A 
ATOM     15  C   UNL     1      -4.336  12.355  19.672  0.00  0.00    +0.000 A 
ATOM     16  F   UNL     1      -3.431  12.693  20.604  0.00  0.00    +0.000 F 
ENDBRANCH   7  10
ENDBRANCH   1   2
BRANCH   1  17
ATOM     17  S   UNL     1       2.251   7.634  18.861  0.00  0.00    +0.000 S 
BRANCH  17  23
ATOM     18  C   UNL     1       6.243   4.132  16.001  0.00  0.00    +0.000 C 
ATOM     19  N   UNL     1       5.241   4.958  16.663  0.00  0.00    +0.000 N 
ATOM     20  C   UNL     1       5.456   6.326  16.711  0.00  0.00    +0.000 A 
ATOM     21  O   UNL     1       6.429   6.899  16.224  0.00  0.00    +0.000 OA
ATOM     22  C   UNL     1       4.445   7.150  17.404  0.00  0.00    +0.000 A 
ATOM     23  C   UNL     1       3.334   6.629  17.938  0.00  0.00    +0.000 A 
ATOM     24  C   UNL     1       3.107   5.168  17.867  0.00  0.00    +0.000 A 
ATOM     25  C   UNL     1       1.966   4.545  18.412  0.00  0.00    +0.000 A 
ATOM     26  C   UNL     1       1.807   3.162  18.366  0.00  0.00    +0.000 A 
ATOM     27 CL   UNL     1       0.414   2.432  19.064  0.00  0.00    +0.000 Cl
ATOM     28  C   UNL     1       2.771   2.365  17.765  0.00  0.00    +0.000 A 
ATOM     29  C   UNL     1       3.899   2.960  17.199  0.00  0.00    +0.000 A 
ATOM     30  C   UNL     1       4.082   4.355  17.241  0.00  0.00    +0.000 A 
ENDBRANCH  17  23
ENDBRANCH   1  17
TORSDOF 4
ENDMDL
MODEL 2
REMARK VINA RESULT:      -8.4      1.073      1.382
REMARK  Name = 
REMARK  5 active torsions:
REMARK  status: ('A' for Active; 'I' for Inactive)
REMARK    1  A    between atoms: C_1  and  N_2
REMARK    2  A    between atoms: C_6  and  S_7
REMARK    3  A    between atoms: S_7  and  C_8
REMARK    4  A    between atoms: C_8  and  C_9
REMARK    5  A    between atoms: N_14  and  C_15
REMARK                            x       y       z     vdW  Elec       q    Type
REMARK                         _______ _______ _______ _____ _____    ______ ____
ROOT
ATOM      1  C   UNL     1       1.567   8.887  17.784  0.00  0.00    +0.000 C 
ENDROOT
BRANCH   1   2
ATOM      2  C   UNL     1       1.281  10.300  18.313  0.00  0.00    +0.000 C 
ATOM      3  O   UNL     1       2.166  11.126  18.537  0.00  0.00    +0.000 OA
ATOM      4  N   UNL     1      -0.062  10.624  18.483  0.00  0.00    +0.000 N 
ATOM      5  C   UNL     1      -0.439  12.000  18.855  0.00  0.00    +0.000 C 
ATOM      6  C   UNL     1      -1.711  12.476  18.113  0.00  0.00    +0.000 C 
ATOM      7  N   UNL     1      -2.769  11.463  18.245  0.00  0.00    +0.000 N 
ATOM      8  C   UNL     1      -2.396  10.111  17.808  0.00  0.00    +0.000 C 
ATOM      9  C   UNL     1      -1.160   9.648  18.593  0.00  0.00    +0.000 C 
BRANCH   7  10
ATOM     10  C   UNL     1      -4.089  11.780  18.504  0.00  0.00    +0.000 A 
ATOM     11  C   UNL     1      -4.504  12.213  19.771  0.00  0.00    +0.000 A 
ATOM     12  C   UNL     1      -5.846  12.501  20.050  0.00  0.00    +0.000 A 
ATOM     13  C   UNL     1      -6.816  12.358  19.060  0.00  0.00    +0.000 A 
ATOM     14  C   UNL     1      -6.437  11.931  17.792  0.00  0.00    +0.000 A 
ATOM     15  C   UNL     1      -5.096  11.653  17.524  0.00  0.00    +0.000 A 
ATOM     16  F   UNL     1      -4.796  11.196  16.298  0.00  0.00    +0.000 F 
ENDBRANCH   7  10
ENDBRANCH   1   2
BRANCH   1  17
ATOM     17  S   UNL     1       2.301   7.803  19.048  0.00  0.00    +0.000 S 
BRANCH  17  23
ATOM     18  C   UNL     1       5.696   3.878  15.973  0.00  0.00    +0.000 C 
ATOM     19  N   UNL     1       4.834   4.799  16.703  0.00  0.00    +0.000 N 
ATOM     20  C   UNL     1       4.927   6.150  16.406  0.00  0.00    +0.000 A 
ATOM     21  O   UNL     1       5.680   6.630  15.560  0.00  0.00    +0.000 OA
ATOM     22  C   UNL     1       4.065   7.075  17.170  0.00  0.00    +0.000 A 
ATOM     23  C   UNL     1       3.188   6.652  18.087  0.00  0.00    +0.000 A 
ATOM     24  C   UNL     1       3.085   5.206  18.384  0.00  0.00    +0.000 A 
ATOM     25  C   UNL     1       2.191   4.683  19.342  0.00  0.00    +0.000 A 
ATOM     26  C   UNL     1       2.154   3.322  19.628  0.00  0.00    +0.000 A 
ATOM     27 CL   UNL     1       1.069   2.722  20.821  0.00  0.00    +0.000 Cl
ATOM     28  C   UNL     1       2.992   2.441  18.959  0.00  0.00    +0.000 A 
ATOM     29  C   UNL     1       3.870   2.930  17.991  0.00  0.00    +0.000 A 
ATOM     30  C   UNL     1       3.930   4.304  17.692  0.00  0.00    +0.000 A 
ENDBRANCH  17  23
ENDBRANCH   1  17
TORSDOF 4
ENDMDL
MODEL 3
REMARK VINA RESULT:      -8.2      1.239      1.711
REMARK  Name = 
REMARK  5 active torsions:
REMARK  status: ('A' for Active; 'I' for Inactive)
REMARK    1  A    between atoms: C_1  and  N_2
REMARK    2  A    between atoms: C_6  and  S_7
REMARK    3  A    between atoms: S_7  and  C_8
REMARK    4  A    between atoms: C_8  and  C_9
REMARK    5  A    between atoms: N_14  and  C_15
REMARK                            x       y       z     vdW  Elec       q    Type
REMARK                         _______ _______ _______ _____ _____    ______ ____
ROOT
ATOM      1  C   UNL     1       1.678   9.083  17.705  0.00  0.00    +0.000 C 
ENDROOT
BRANCH   1   2
ATOM      2  C   UNL     1       1.671  10.544  18.179  0.00  0.00    +0.000 C 
ATOM      3  O   UNL     1       2.617  11.312  18.001  0.00  0.00    +0.000 OA
ATOM      4  N   UNL     1       0.498  10.980  18.787  0.00  0.00    +0.000 N 
ATOM      5  C   UNL     1       0.349  12.401  19.149  0.00  0.00    +0.000 C 
ATOM      6  C   UNL     1      -1.080  12.926  18.870  0.00  0.00    +0.000 C 
ATOM      7  N   UNL     1      -2.068  12.008  19.456  0.00  0.00    +0.000 N 
ATOM      8  C   UNL     1      -1.945  10.607  19.033  0.00  0.00    +0.000 C 
ATOM      9  C   UNL     1      -0.533  10.100  19.363  0.00  0.00    +0.000 C 
BRANCH   7  10
ATOM     10  C   UNL     1      -3.189  12.441  20.139  0.00  0.00    +0.000 A 
ATOM     11  C   UNL     1      -3.132  12.787  21.497  0.00  0.00    +0.000 A 
ATOM     12  C   UNL     1      -4.271  13.192  22.204  0.00  0.00    +0.000 A 
ATOM     13  C   UNL     1      -5.507  13.257  21.566  0.00  0.00    +0.000 A 
ATOM     14  C   UNL     1      -5.599  12.921  20.220  0.00  0.00    +0.000 A 
ATOM     15  C   UNL     1      -4.456  12.525  19.524  0.00  0.00    +0.000 A 
ATOM     16  F   UNL     1      -4.611  12.164  18.240  0.00  0.00    +0.000 F 
ENDBRANCH   7  10
ENDBRANCH   1   2
BRANCH   1  17
ATOM     17  S   UNL     1       2.254   7.934  18.993  0.00  0.00    +0.000 S 
BRANCH  17  23
ATOM     18  C   UNL     1       5.711   3.954  16.061  0.00  0.00    +0.000 C 
ATOM     19  N   UNL     1       4.834   4.887  16.757  0.00  0.00    +0.000 N 
ATOM     20  C   UNL     1       4.908   6.228  16.413  0.00  0.00    +0.000 A 
ATOM     21  O   UNL     1       5.654   6.689  15.552  0.00  0.00    +0.000 OA
ATOM     22  C   UNL     1       4.032   7.166  17.143  0.00  0.00    +0.000 A 
ATOM     23  C   UNL     1       3.159   6.763  18.074  0.00  0.00    +0.000 A 
ATOM     24  C   UNL     1       3.078   5.326  18.421  0.00  0.00    +0.000 A 
ATOM     25  C   UNL     1       2.190   4.825  19.397  0.00  0.00    +0.000 A 
ATOM     26  C   UNL     1       2.172   3.473  19.730  0.00  0.00    +0.000 A 
ATOM     27 CL   UNL     1       1.095   2.900  20.942  0.00  0.00    +0.000 Cl
ATOM     28  C   UNL     1       3.025   2.583  19.093  0.00  0.00    +0.000 A 
ATOM     29  C   UNL     1       3.897   3.050  18.110  0.00  0.00    +0.000 A 
ATOM     30  C   UNL     1       3.936   4.413  17.762  0.00  0.00    +0.000 A 
ENDBRANCH  17  23
ENDBRANCH   1  17
TORSDOF 4
ENDMDL
MODEL 4
REMARK VINA RESULT:      -8.2      1.955      2.263
REMARK  Name = 
REMARK  5 active torsions:
REMARK  status: ('A' for Active; 'I' for Inactive)
REMARK    1  A    between atoms: C_1  and  N_2
REMARK    2  A    between atoms: C_6  and  S_7
REMARK    3  A    between atoms: S_7  and  C_8
REMARK    4  A    between atoms: C_8  and  C_9
REMARK    5  A    between atoms: N_14  and  C_15
REMARK                            x       y       z     vdW  Elec       q    Type
REMARK                         _______ _______ _______ _____ _____    ______ ____
ROOT
ATOM      1  C   UNL     1       1.647   8.954  17.829  0.00  0.00    +0.000 C 
ENDROOT
BRANCH   1   2
ATOM      2  C   UNL     1       1.794  10.421  18.259  0.00  0.00    +0.000 C 
ATOM      3  O   UNL     1       2.690  11.157  17.844  0.00  0.00    +0.000 OA
ATOM      4  N   UNL     1       0.813  10.902  19.121  0.00  0.00    +0.000 N 
ATOM      5  C   UNL     1       0.793  12.332  19.478  0.00  0.00    +0.000 C 
ATOM      6  C   UNL     1      -0.646  12.897  19.538  0.00  0.00    +0.000 C 
ATOM      7  N   UNL     1      -1.489  12.019  20.363  0.00  0.00    +0.000 N 
ATOM      8  C   UNL     1      -1.509  10.609  19.952  0.00  0.00    +0.000 C 
ATOM      9  C   UNL     1      -0.073  10.063  19.946  0.00  0.00    +0.000 C 
BRANCH   7  10
ATOM     10  C   UNL     1      -2.401  12.496  21.286  0.00  0.00    +0.000 A 
ATOM     11  C   UNL     1      -3.428  13.375  20.914  0.00  0.00    +0.000 A 
ATOM     12  C   UNL     1      -4.333  13.891  21.850  0.00  0.00    +0.000 A 
ATOM     13  C   UNL     1      -4.230  13.540  23.194  0.00  0.00    +0.000 A 
ATOM     14  C   UNL     1      -3.223  12.669  23.596  0.00  0.00    +0.000 A 
ATOM     15  C   UNL     1      -2.330  12.157  22.654  0.00  0.00    +0.000 A 
ATOM     16  F   UNL     1      -1.348  11.361  23.105  0.00  0.00    +0.000 F 
ENDBRANCH   7  10
ENDBRANCH   1   2
BRANCH   1  17
ATOM     17  S   UNL     1       2.351   7.796  19.044  0.00  0.00    +0.000 S 
BRANCH  17  23
ATOM     18  C   UNL     1       5.680   3.954  15.797  0.00  0.00    +0.000 C 
ATOM     19  N   UNL     1       4.834   4.856  16.567  0.00  0.00    +0.000 N 
ATOM     20  C   UNL     1       4.941   6.216  16.323  0.00  0.00    +0.000 A 
ATOM     21  O   UNL     1       5.694   6.720  15.491  0.00  0.00    +0.000 OA
ATOM     22  C   UNL     1       4.095   7.121  17.127  0.00  0.00    +0.000 A 
ATOM     23  C   UNL     1       3.218   6.673  18.033  0.00  0.00    +0.000 A 
ATOM     24  C   UNL     1       3.100   5.217  18.274  0.00  0.00    +0.000 A 
ATOM     25  C   UNL     1       2.206   4.669  19.217  0.00  0.00    +0.000 A 
ATOM     26  C   UNL     1       2.154   3.298  19.450  0.00  0.00    +0.000 A 
ATOM     27 CL   UNL     1       1.069   2.665  20.626  0.00  0.00    +0.000 Cl
ATOM     28  C   UNL     1       2.978   2.434  18.742  0.00  0.00    +0.000 A 
ATOM     29  C   UNL     1       3.856   2.949  17.789  0.00  0.00    +0.000 A 
ATOM     30  C   UNL     1       3.930   4.333  17.542  0.00  0.00    +0.000 A 
ENDBRANCH  17  23
ENDBRANCH   1  17
TORSDOF 4
ENDMDL
MODEL 5
REMARK VINA RESULT:      -8.1      3.582      4.555
REMARK  Name = 
REMARK  5 active torsions:
REMARK  status: ('A' for Active; 'I' for Inactive)
REMARK    1  A    between atoms: C_1  and  N_2
REMARK    2  A    between atoms: C_6  and  S_7
REMARK    3  A    between atoms: S_7  and  C_8
REMARK    4  A    between atoms: C_8  and  C_9
REMARK    5  A    between atoms: N_14  and  C_15
REMARK                            x       y       z     vdW  Elec       q    Type
REMARK                         _______ _______ _______ _____ _____    ______ ____
ROOT
ATOM      1  C   UNL     1       1.042   9.248  19.979  0.00  0.00    +0.000 C 
ENDROOT
BRANCH   1   2
ATOM      2  C   UNL     1       0.802  10.417  20.945  0.00  0.00    +0.000 C 
ATOM      3  O   UNL     1       0.719  10.275  22.165  0.00  0.00    +0.000 OA
ATOM      4  N   UNL     1       0.730  11.680  20.363  0.00  0.00    +0.000 N 
ATOM      5  C   UNL     1       0.639  12.874  21.223  0.00  0.00    +0.000 C 
ATOM      6  C   UNL     1       1.490  14.048  20.681  0.00  0.00    +0.000 C 
ATOM      7  N   UNL     1       1.192  14.258  19.256  0.00  0.00    +0.000 N 
ATOM      8  C   UNL     1       1.352  13.073  18.404  0.00  0.00    +0.000 C 
ATOM      9  C   UNL     1       0.462  11.941  18.939  0.00  0.00    +0.000 C 
BRANCH   7  10
ATOM     10  C   UNL     1       1.031  15.512  18.695  0.00  0.00    +0.000 A 
ATOM     11  C   UNL     1      -0.234  16.103  18.572  0.00  0.00    +0.000 A 
ATOM     12  C   UNL     1      -0.408  17.356  17.973  0.00  0.00    +0.000 A 
ATOM     13  C   UNL     1       0.689  18.054  17.473  0.00  0.00    +0.000 A 
ATOM     14  C   UNL     1       1.959  17.496  17.580  0.00  0.00    +0.000 A 
ATOM     15  C   UNL     1       2.120  16.249  18.185  0.00  0.00    +0.000 A 
ATOM     16  F   UNL     1       3.361  15.736  18.216  0.00  0.00    +0.000 F 
ENDBRANCH   7  10
ENDBRANCH   1   2
BRANCH   1  17
ATOM     17  S   UNL     1       1.450   7.700  20.845  0.00  0.00    +0.000 S 
BRANCH  17  23
ATOM     18  C   UNL     1       4.620   4.594  16.759  0.00  0.00    +0.000 C 
ATOM     19  N   UNL     1       3.814   5.313  17.737  0.00  0.00    +0.000 N 
ATOM     20  C   UNL     1       3.702   6.688  17.602  0.00  0.00    +0.000 A 
ATOM     21  O   UNL     1       4.226   7.348  16.706  0.00  0.00    +0.000 OA
ATOM     22  C   UNL     1       2.902   7.408  18.613  0.00  0.00    +0.000 A 
ATOM     23  C   UNL     1       2.263   6.781  19.607  0.00  0.00    +0.000 A 
ATOM     24  C   UNL     1       2.376   5.310  19.733  0.00  0.00    +0.000 A 
ATOM     25  C   UNL     1       1.740   4.579  20.757  0.00  0.00    +0.000 A 
ATOM     26  C   UNL     1       1.906   3.201  20.871  0.00  0.00    +0.000 A 
ATOM     27 CL   UNL     1       1.135   2.344  22.148  0.00  0.00    +0.000 Cl
ATOM     28  C   UNL     1       2.696   2.512  19.962  0.00  0.00    +0.000 A 
ATOM     29  C   UNL     1       3.319   3.210  18.926  0.00  0.00    +0.000 A 
ATOM     30  C   UNL     1       3.170   4.603  18.797  0.00  0.00    +0.000 A 
ENDBRANCH  17  23
ENDBRANCH   1  17
TORSDOF 4
ENDMDL
MODEL 6
REMARK VINA RESULT:      -8.0      3.552      4.391
REMARK  Name = 
REMARK  5 active torsions:
REMARK  status: ('A' for Active; 'I' for Inactive)
REMARK    1  A    between atoms: C_1  and  N_2
REMARK    2  A    between atoms: C_6  and  S_7
REMARK    3  A    between atoms: S_7  and  C_8
REMARK    4  A    between atoms: C_8  and  C_9
REMARK    5  A    between atoms: N_14  and  C_15
REMARK                            x       y       z     vdW  Elec       q    Type
REMARK                         _______ _______ _______ _____ _____    ______ ____
ROOT
ATOM      1  C   UNL     1       1.504   8.721  19.557  0.00  0.00    +0.000 C 
ENDROOT
BRANCH   1   2
ATOM      2  C   UNL     1       0.699   9.935  19.072  0.00  0.00    +0.000 C 
ATOM      3  O   UNL     1       0.518  10.190  17.881  0.00  0.00    +0.000 OA
ATOM      4  N   UNL     1       0.130  10.723  20.069  0.00  0.00    +0.000 N 
ATOM      5  C   UNL     1      -0.772  11.828  19.698  0.00  0.00    +0.000 C 
ATOM      6  C   UNL     1      -1.979  11.943  20.660  0.00  0.00    +0.000 C 
ATOM      7  N   UNL     1      -1.504  11.942  22.052  0.00  0.00    +0.000 N 
ATOM      8  C   UNL     1      -0.660  10.799  22.422  0.00  0.00    +0.000 C 
ATOM      9  C   UNL     1       0.552  10.737  21.480  0.00  0.00    +0.000 C 
BRANCH   7  10
ATOM     10  C   UNL     1      -2.007  12.789  23.022  0.00  0.00    +0.000 A 
ATOM     11  C   UNL     1      -3.264  12.570  23.605  0.00  0.00    +0.000 A 
ATOM     12  C   UNL     1      -3.795  13.443  24.562  0.00  0.00    +0.000 A 
ATOM     13  C   UNL     1      -3.078  14.569  24.960  0.00  0.00    +0.000 A 
ATOM     14  C   UNL     1      -1.829  14.815  24.402  0.00  0.00    +0.000 A 
ATOM     15  C   UNL     1      -1.306  13.934  23.454  0.00  0.00    +0.000 A 
ATOM     16  F   UNL     1      -0.119  14.247  22.911  0.00  0.00    +0.000 F 
ENDBRANCH   7  10
ENDBRANCH   1   2
BRANCH   1  17
ATOM     17  S   UNL     1       2.590   8.041  18.264  0.00  0.00    +0.000 S 
BRANCH  17  23
ATOM     18  C   UNL     1       2.617   2.153  19.573  0.00  0.00    +0.000 C 
ATOM     19  N   UNL     1       2.662   3.575  19.261  0.00  0.00    +0.000 N 
ATOM     20  C   UNL     1       1.874   4.431  20.015  0.00  0.00    +0.000 A 
ATOM     21  O   UNL     1       1.145   4.078  20.941  0.00  0.00    +0.000 OA
ATOM     22  C   UNL     1       1.911   5.868  19.674  0.00  0.00    +0.000 A 
ATOM     23  C   UNL     1       2.696   6.359  18.708  0.00  0.00    +0.000 A 
ATOM     24  C   UNL     1       3.545   5.438  17.920  0.00  0.00    +0.000 A 
ATOM     25  C   UNL     1       4.392   5.879  16.882  0.00  0.00    +0.000 A 
ATOM     26  C   UNL     1       5.142   4.979  16.131  0.00  0.00    +0.000 A 
ATOM     27 CL   UNL     1       6.146   5.549  14.855  0.00  0.00    +0.000 Cl
ATOM     28  C   UNL     1       5.083   3.619  16.402  0.00  0.00    +0.000 A 
ATOM     29  C   UNL     1       4.269   3.160  17.437  0.00  0.00    +0.000 A 
ATOM     30  C   UNL     1       3.496   4.052  18.204  0.00  0.00    +0.000 A 
ENDBRANCH  17  23
ENDBRANCH   1  17
TORSDOF 4
ENDMDL
MODEL 7
REMARK VINA RESULT:      -8.0      2.732      3.587
REMARK  Name = 
REMARK  5 active torsions:
REMARK  status: ('A' for Active; 'I' for Inactive)
REMARK    1  A    between atoms: C_1  and  N_2
REMARK    2  A    between atoms: C_6  and  S_7
REMARK    3  A    between atoms: S_7  and  C_8
REMARK    4  A    between atoms: C_8  and  C_9
REMARK    5  A    between atoms: N_14  and  C_15
REMARK                            x       y       z     vdW  Elec       q    Type
REMARK                         _______ _______ _______ _____ _____    ______ ____
ROOT
ATOM      1  C   UNL     1       1.869   9.329  18.029  0.00  0.00    +0.000 C 
ENDROOT
BRANCH   1   2
ATOM      2  C   UNL     1       0.442   9.895  18.051  0.00  0.00    +0.000 C 
ATOM      3  O   UNL     1      -0.475   9.435  17.370  0.00  0.00    +0.000 OA
ATOM      4  N   UNL     1       0.219  10.944  18.938  0.00  0.00    +0.000 N 
ATOM      5  C   UNL     1      -1.149  11.460  19.129  0.00  0.00    +0.000 C 
ATOM      6  C   UNL     1      -1.441  11.801  20.610  0.00  0.00    +0.000 C 
ATOM      7  N   UNL     1      -0.359  12.639  21.148  0.00  0.00    +0.000 N 
ATOM      8  C   UNL     1       0.991  12.079  21.008  0.00  0.00    +0.000 C 
ATOM      9  C   UNL     1       1.270  11.793  19.524  0.00  0.00    +0.000 C 
BRANCH   7  10
ATOM     10  C   UNL     1      -0.585  13.737  21.957  0.00  0.00    +0.000 A 
ATOM     11  C   UNL     1      -0.210  15.029  21.561  0.00  0.00    +0.000 A 
ATOM     12  C   UNL     1      -0.403  16.140  22.390  0.00  0.00    +0.000 A 
ATOM     13  C   UNL     1      -0.979  15.985  23.649  0.00  0.00    +0.000 A 
ATOM     14  C   UNL     1      -1.363  14.717  24.072  0.00  0.00    +0.000 A 
ATOM     15  C   UNL     1      -1.171  13.618  23.235  0.00  0.00    +0.000 A 
ATOM     16  F   UNL     1      -1.514  12.412  23.714  0.00  0.00    +0.000 F 
ENDBRANCH   7  10
ENDBRANCH   1   2
BRANCH   1  17
ATOM     17  S   UNL     1       2.089   7.943  19.187  0.00  0.00    +0.000 S 
BRANCH  17  23
ATOM     18  C   UNL     1       5.585   4.074  16.155  0.00  0.00    +0.000 C 
ATOM     19  N   UNL     1       4.700   4.979  16.875  0.00  0.00    +0.000 N 
ATOM     20  C   UNL     1       4.746   6.327  16.552  0.00  0.00    +0.000 A 
ATOM     21  O   UNL     1       5.474   6.815  15.690  0.00  0.00    +0.000 OA
ATOM     22  C   UNL     1       3.860   7.237  17.306  0.00  0.00    +0.000 A 
ATOM     23  C   UNL     1       3.006   6.803  18.239  0.00  0.00    +0.000 A 
ATOM     24  C   UNL     1       2.954   5.360  18.565  0.00  0.00    +0.000 A 
ATOM     25  C   UNL     1       2.087   4.827  19.541  0.00  0.00    +0.000 A 
ATOM     26  C   UNL     1       2.097   3.471  19.853  0.00  0.00    +0.000 A 
ATOM     27 CL   UNL     1       1.043   2.859  21.068  0.00  0.00    +0.000 Cl
ATOM     28  C   UNL     1       2.958   2.606  19.193  0.00  0.00    +0.000 A 
ATOM     29  C   UNL     1       3.811   3.104  18.208  0.00  0.00    +0.000 A 
ATOM     30  C   UNL     1       3.822   4.474  17.882  0.00  0.00    +0.000 A 
ENDBRANCH  17  23
ENDBRANCH   1  17
TORSDOF 4
ENDMDL
MODEL 8
REMARK VINA RESULT:      -7.9      2.922      3.794
REMARK  Name = 
REMARK  5 active torsions:
REMARK  status: ('A' for Active; 'I' for Inactive)
REMARK    1  A    between atoms: C_1  and  N_2
REMARK    2  A    between atoms: C_6  and  S_7
REMARK    3  A    between atoms: S_7  and  C_8
REMARK    4  A    between atoms: C_8  and  C_9
REMARK    5  A    between atoms: N_14  and  C_15
REMARK                            x       y       z     vdW  Elec       q    Type
REMARK                         _______ _______ _______ _____ _____    ______ ____
ROOT
ATOM      1  C   UNL     1       1.759   9.295  18.106  0.00  0.00    +0.000 C 
ENDROOT
BRANCH   1   2
ATOM      2  C   UNL     1       0.361   9.928  18.149  0.00  0.00    +0.000 C 
ATOM      3  O   UNL     1      -0.577   9.534  17.456  0.00  0.00    +0.000 OA
ATOM      4  N   UNL     1       0.190  10.960  19.068  0.00  0.00    +0.000 N 
ATOM      5  C   UNL     1      -1.152  11.534  19.278  0.00  0.00    +0.000 C 
ATOM      6  C   UNL     1      -1.426  11.843  20.769  0.00  0.00    +0.000 C 
ATOM      7  N   UNL     1      -0.304  12.611  21.330  0.00  0.00    +0.000 N 
ATOM      8  C   UNL     1       1.018  11.992  21.169  0.00  0.00    +0.000 C 
ATOM      9  C   UNL     1       1.281  11.739  19.677  0.00  0.00    +0.000 C 
BRANCH   7  10
ATOM     10  C   UNL     1      -0.477  13.694  22.172  0.00  0.00    +0.000 A 
ATOM     11  C   UNL     1      -1.202  13.585  23.367  0.00  0.00    +0.000 A 
ATOM     12  C   UNL     1      -1.411  14.686  24.207  0.00  0.00    +0.000 A 
ATOM     13  C   UNL     1      -0.899  15.936  23.867  0.00  0.00    +0.000 A 
ATOM     14  C   UNL     1      -0.174  16.078  22.688  0.00  0.00    +0.000 A 
ATOM     15  C   UNL     1       0.033  14.973  21.863  0.00  0.00    +0.000 A 
ATOM     16  F   UNL     1       0.696  15.179  20.713  0.00  0.00    +0.000 F 
ENDBRANCH   7  10
ENDBRANCH   1   2
BRANCH   1  17
ATOM     17  S   UNL     1       1.947   7.931  19.296  0.00  0.00    +0.000 S 
BRANCH  17  23
ATOM     18  C   UNL     1       5.744   4.166  16.505  0.00  0.00    +0.000 C 
ATOM     19  N   UNL     1       4.789   5.042  17.171  0.00  0.00    +0.000 N 
ATOM     20  C   UNL     1       4.694   6.353  16.732  0.00  0.00    +0.000 A 
ATOM     21  O   UNL     1       5.351   6.832  15.809  0.00  0.00    +0.000 OA
ATOM     22  C   UNL     1       3.739   7.237  17.430  0.00  0.00    +0.000 A 
ATOM     23  C   UNL     1       2.951   6.807  18.423  0.00  0.00    +0.000 A 
ATOM     24  C   UNL     1       3.050   5.400  18.873  0.00  0.00    +0.000 A 
ATOM     25  C   UNL     1       2.260   4.874  19.917  0.00  0.00    +0.000 A 
ATOM     26  C   UNL     1       2.412   3.558  20.344  0.00  0.00    +0.000 A 
ATOM     27 CL   UNL     1       1.450   2.957  21.638  0.00  0.00    +0.000 Cl
ATOM     28  C   UNL     1       3.341   2.725  19.735  0.00  0.00    +0.000 A 
ATOM     29  C   UNL     1       4.118   3.215  18.686  0.00  0.00    +0.000 A 
ATOM     30  C   UNL     1       3.986   4.545  18.243  0.00  0.00    +0.000 A 
ENDBRANCH  17  23
ENDBRANCH   1  17
TORSDOF 4
ENDMDL
MODEL 9
REMARK VINA RESULT:      -7.9      1.519      1.628
REMARK  Name = 
REMARK  5 active torsions:
REMARK  status: ('A' for Active; 'I' for Inactive)
REMARK    1  A    between atoms: C_1  and  N_2
REMARK    2  A    between atoms: C_6  and  S_7
REMARK    3  A    between atoms: S_7  and  C_8
REMARK    4  A    between atoms: C_8  and  C_9
REMARK    5  A    between atoms: N_14  and  C_15
REMARK                            x       y       z     vdW  Elec       q    Type
REMARK                         _______ _______ _______ _____ _____    ______ ____
ROOT
ATOM      1  C   UNL     1       1.450   9.433  19.420  0.00  0.00    +0.000 C 
ENDROOT
BRANCH   1   2
ATOM      2  C   UNL     1       0.770  10.521  20.264  0.00  0.00    +0.000 C 
ATOM      3  O   UNL     1       1.359  11.163  21.134  0.00  0.00    +0.000 OA
ATOM      4  N   UNL     1      -0.561  10.786  19.955  0.00  0.00    +0.000 N 
ATOM      5  C   UNL     1      -1.253  11.906  20.616  0.00  0.00    +0.000 C 
ATOM      6  C   UNL     1      -2.178  12.676  19.643  0.00  0.00    +0.000 C 
ATOM      7  N   UNL     1      -3.039  11.725  18.922  0.00  0.00    +0.000 N 
ATOM      8  C   UNL     1      -2.327  10.653  18.214  0.00  0.00    +0.000 C 
ATOM      9  C   UNL     1      -1.453   9.879  19.213  0.00  0.00    +0.000 C 
BRANCH   7  10
ATOM     10  C   UNL     1      -4.384  11.948  18.693  0.00  0.00    +0.000 A 
ATOM     11  C   UNL     1      -4.913  11.965  17.395  0.00  0.00    +0.000 A 
ATOM     12  C   UNL     1      -6.268  12.226  17.154  0.00  0.00    +0.000 A 
ATOM     13  C   UNL     1      -7.134  12.482  18.215  0.00  0.00    +0.000 A 
ATOM     14  C   UNL     1      -6.640  12.473  19.515  0.00  0.00    +0.000 A 
ATOM     15  C   UNL     1      -5.290  12.205  19.744  0.00  0.00    +0.000 A 
ATOM     16  F   UNL     1      -4.858  12.258  21.014  0.00  0.00    +0.000 F 
ENDBRANCH   7  10
ENDBRANCH   1   2
BRANCH   1  17
ATOM     17  S   UNL     1       1.659   7.871  20.331  0.00  0.00    +0.000 S 
BRANCH  17  23
ATOM     18  C   UNL     1       4.950   4.506  16.558  0.00  0.00    +0.000 C 
ATOM     19  N   UNL     1       4.114   5.288  17.461  0.00  0.00    +0.000 N 
ATOM     20  C   UNL     1       4.035   6.656  17.251  0.00  0.00    +0.000 A 
ATOM     21  O   UNL     1       4.612   7.260  16.348  0.00  0.00    +0.000 OA
ATOM     22  C   UNL     1       3.204   7.441  18.186  0.00  0.00    +0.000 A 
ATOM     23  C   UNL     1       2.508   6.876  19.180  0.00  0.00    +0.000 A 
ATOM     24  C   UNL     1       2.587   5.412  19.385  0.00  0.00    +0.000 A 
ATOM     25  C   UNL     1       1.891   4.745  20.414  0.00  0.00    +0.000 A 
ATOM     26  C   UNL     1       2.024   3.373  20.604  0.00  0.00    +0.000 A 
ATOM     27 CL   UNL     1       1.179   2.596  21.886  0.00  0.00    +0.000 Cl
ATOM     28  C   UNL     1       2.841   2.625  19.769  0.00  0.00    +0.000 A 
ATOM     29  C   UNL     1       3.524   3.257  18.730  0.00  0.00    +0.000 A 
ATOM     30  C   UNL     1       3.409   4.645  18.524  0.00  0.00    +0.000 A 
ENDBRANCH  17  23
ENDBRANCH   1  17
TORSDOF 4
ENDMDL
