MODEL 1
REMARK VINA RESULT:      -9.1      0.000      0.000
REMARK  Name = 
REMARK  7 active torsions:
REMARK  status: ('A' for Active; 'I' for Inactive)
REMARK    1  A    between atoms: C_2  and  C_27
REMARK    2  A    between atoms: N_3  and  C_4
REMARK    3  A    between atoms: C_7  and  C_8
REMARK    4  A    between atoms: C_8  and  O_10
REMARK    5  A    between atoms: O_10  and  C_11
REMARK    6  A    between atoms: C_11  and  C_12
REMARK    7  A    between atoms: C_18  and  C_19
REMARK                            x       y       z     vdW  Elec       q    Type
REMARK                         _______ _______ _______ _____ _____    ______ ____
ROOT
ATOM      1  C   UNL     1       8.098   7.339  18.397  0.00  0.00    +0.000 A 
ATOM      2  C   UNL     1       8.053   6.051  18.936  0.00  0.00    +0.000 A 
ATOM      3  C   UNL     1       7.386   5.018  18.276  0.00  0.00    +0.000 A 
ATOM      4  C   UNL     1       6.738   5.256  17.063  0.00  0.00    +0.000 A 
ATOM      5  C   UNL     1       6.758   6.548  16.521  0.00  0.00    +0.000 A 
ATOM      6  C   UNL     1       7.427   7.587  17.194  0.00  0.00    +0.000 A 
ENDROOT
BRANCH   1   9
ATOM      7  O   UNL     1       8.122  10.160  17.644  0.00  0.00    +0.000 OA
ATOM      8  C   UNL     1       8.786   9.717  18.578  0.00  0.00    +0.000 C 
ATOM      9  N   UNL     1       8.795   8.402  19.021  0.00  0.00    +0.000 N 
ATOM     10  H   UNL     1       9.205   8.210  19.925  0.00  0.00    +0.000 HD
BRANCH   8  11
ATOM     11  C   UNL     1       9.604  10.695  19.339  0.00  0.00    +0.000 A 
ATOM     12  C   UNL     1      10.726  11.333  18.794  0.00  0.00    +0.000 A 
ATOM     13  C   UNL     1      11.398  12.309  19.539  0.00  0.00    +0.000 A 
ATOM     14  C   UNL     1      10.951  12.647  20.818  0.00  0.00    +0.000 A 
ATOM     15  C   UNL     1       9.836  12.009  21.348  0.00  0.00    +0.000 A 
ATOM     16  F   UNL     1       9.400  12.345  22.568  0.00  0.00    +0.000 F 
ATOM     17  C   UNL     1       9.159  11.042  20.622  0.00  0.00    +0.000 A 
ENDBRANCH   8  11
ENDBRANCH   1   9
BRANCH   4  18
ATOM     18  C   UNL     1       6.051   4.103  16.421  0.00  0.00    +0.000 C 
ATOM     19  O   UNL     1       6.248   3.772  15.262  0.00  0.00    +0.000 OA
BRANCH  18  20
ATOM     20  O   UNL     1       5.209   3.497  17.286  0.00  0.00    +0.000 OA
BRANCH  20  21
ATOM     21  C   UNL     1       3.810   3.714  17.047  0.00  0.00    +0.000 C 
BRANCH  21  22
ATOM     22  C   UNL     1       3.249   4.627  18.119  0.00  0.00    +0.000 A 
ATOM     23  C   UNL     1       3.035   4.156  19.361  0.00  0.00    +0.000 A 
ATOM     24  C   UNL     1       2.456   5.041  20.393  0.00  0.00    +0.000 A 
ATOM     25  O   UNL     1       2.248   4.601  21.520  0.00  0.00    +0.000 OA
ATOM     26  N   UNL     1       2.198   6.315  19.943  0.00  0.00    +0.000 N 
ATOM     27  N   UNL     1       1.640   7.274  20.757  0.00  0.00    +0.000 NA
ATOM     28  C   UNL     1       1.510   8.362  20.069  0.00  0.00    +0.000 A 
ATOM     29  S   UNL     1       2.025   8.347  18.409  0.00  0.00    +0.000 S 
ATOM     30  C   UNL     1       2.464   6.683  18.649  0.00  0.00    +0.000 A 
ATOM     31  N   UNL     1       2.961   5.923  17.733  0.00  0.00    +0.000 NA
BRANCH  28  32
ATOM     32  C   UNL     1       0.923   9.583  20.643  0.00  0.00    +0.000 C 
ATOM     33  C   UNL     1       1.029  10.905  19.915  0.00  0.00    +0.000 C 
ATOM     34  C   UNL     1      -0.298  10.215  20.015  0.00  0.00    +0.000 C 
ENDBRANCH  28  32
ENDBRANCH  21  22
ENDBRANCH  20  21
ENDBRANCH  18  20
ENDBRANCH   4  18
TORSDOF 7
ENDMDL
MODEL 2
REMARK VINA RESULT:      -8.7      1.722      2.399
REMARK  Name = 
REMARK  7 active torsions:
REMARK  status: ('A' for Active; 'I' for Inactive)
REMARK    1  A    between atoms: C_2  and  C_27
REMARK    2  A    between atoms: N_3  and  C_4
REMARK    3  A    between atoms: C_7  and  C_8
REMARK    4  A    between atoms: C_8  and  O_10
REMARK    5  A    between atoms: O_10  and  C_11
REMARK    6  A    between atoms: C_11  and  C_12
REMARK    7  A    between atoms: C_18  and  C_19
REMARK                            x       y       z     vdW  Elec       q    Type
REMARK                         _______ _______ _______ _____ _____    ______ ____
ROOT
ATOM      1  C   UNL     1       7.750   7.338  18.294  0.00  0.00    +0.000 A 
ATOM      2  C   UNL     1       7.011   7.416  17.110  0.00  0.00    +0.000 A 
ATOM      3  C   UNL     1       6.061   6.446  16.790  0.00  0.00    +0.000 A 
ATOM      4  C   UNL     1       5.836   5.366  17.645  0.00  0.00    +0.000 A 
ATOM      5  C   UNL     1       6.585   5.265  18.826  0.00  0.00    +0.000 A 
ATOM      6  C   UNL     1       7.546   6.243  19.141  0.00  0.00    +0.000 A 
ENDROOT
BRANCH   1   9
ATOM      7  O   UNL     1       7.662  10.207  17.762  0.00  0.00    +0.000 OA
ATOM      8  C   UNL     1       8.601   9.669  18.343  0.00  0.00    +0.000 C 
ATOM      9  N   UNL     1       8.695   8.322  18.668  0.00  0.00    +0.000 N 
ATOM     10  H   UNL     1       9.404   8.045  19.333  0.00  0.00    +0.000 HD
BRANCH   8  11
ATOM     11  C   UNL     1       9.705  10.554  18.792  0.00  0.00    +0.000 A 
ATOM     12  C   UNL     1      10.762  10.934  17.955  0.00  0.00    +0.000 A 
ATOM     13  C   UNL     1      11.721  11.841  18.417  0.00  0.00    +0.000 A 
ATOM     14  C   UNL     1      11.624  12.368  19.707  0.00  0.00    +0.000 A 
ATOM     15  C   UNL     1      10.570  11.987  20.529  0.00  0.00    +0.000 A 
ATOM     16  F   UNL     1      10.470  12.504  21.759  0.00  0.00    +0.000 F 
ATOM     17  C   UNL     1       9.611  11.090  20.084  0.00  0.00    +0.000 A 
ENDBRANCH   8  11
ENDBRANCH   1   9
BRANCH   4  18
ATOM     18  C   UNL     1       4.806   4.375  17.234  0.00  0.00    +0.000 C 
ATOM     19  O   UNL     1       5.083   3.295  16.734  0.00  0.00    +0.000 OA
BRANCH  18  20
ATOM     20  O   UNL     1       3.562   4.832  17.495  0.00  0.00    +0.000 OA
BRANCH  20  21
ATOM     21  C   UNL     1       3.269   5.086  18.877  0.00  0.00    +0.000 C 
BRANCH  21  22
ATOM     22  C   UNL     1       2.650   6.462  19.018  0.00  0.00    +0.000 A 
ATOM     23  C   UNL     1       2.749   7.352  18.014  0.00  0.00    +0.000 A 
ATOM     24  C   UNL     1       2.173   8.704  18.170  0.00  0.00    +0.000 A 
ATOM     25  O   UNL     1       2.282   9.518  17.258  0.00  0.00    +0.000 OA
ATOM     26  N   UNL     1       1.561   8.904  19.386  0.00  0.00    +0.000 N 
ATOM     27  N   UNL     1       0.984  10.107  19.721  0.00  0.00    +0.000 NA
ATOM     28  C   UNL     1       0.495  10.004  20.914  0.00  0.00    +0.000 A 
ATOM     29  S   UNL     1       0.678   8.487  21.744  0.00  0.00    +0.000 S 
ATOM     30  C   UNL     1       1.518   7.914  20.335  0.00  0.00    +0.000 A 
ATOM     31  N   UNL     1       2.021   6.733  20.220  0.00  0.00    +0.000 NA
BRANCH  28  32
ATOM     32  C   UNL     1      -0.178  11.128  21.582  0.00  0.00    +0.000 C 
ATOM     33  C   UNL     1       0.255  12.553  21.316  0.00  0.00    +0.000 C 
ATOM     34  C   UNL     1      -1.065  12.068  20.797  0.00  0.00    +0.000 C 
ENDBRANCH  28  32
ENDBRANCH  21  22
ENDBRANCH  20  21
ENDBRANCH  18  20
ENDBRANCH   4  18
TORSDOF 7
ENDMDL
MODEL 3
REMARK VINA RESULT:      -8.7      5.498      7.243
REMARK  Name = 
REMARK  7 active torsions:
REMARK  status: ('A' for Active; 'I' for Inactive)
REMARK    1  A    between atoms: C_2  and  C_27
REMARK    2  A    between atoms: N_3  and  C_4
REMARK    3  A    between atoms: C_7  and  C_8
REMARK    4  A    between atoms: C_8  and  O_10
REMARK    5  A    between atoms: O_10  and  C_11
REMARK    6  A    between atoms: C_11  and  C_12
REMARK    7  A    between atoms: C_18  and  C_19
REMARK                            x       y       z     vdW  Elec       q    Type
REMARK                         _______ _______ _______ _____ _____    ______ ____
ROOT
ATOM      1  C   UNL     1       4.137   4.114  17.239  0.00  0.00    +0.000 A 
ATOM      2  C   UNL     1       2.749   3.981  17.329  0.00  0.00    +0.000 A 
ATOM      3  C   UNL     1       2.084   4.191  18.538  0.00  0.00    +0.000 A 
ATOM      4  C   UNL     1       2.797   4.528  19.689  0.00  0.00    +0.000 A 
ATOM      5  C   UNL     1       4.191   4.645  19.617  0.00  0.00    +0.000 A 
ATOM      6  C   UNL     1       4.857   4.427  18.397  0.00  0.00    +0.000 A 
ENDROOT
BRANCH   1   9
ATOM      7  O   UNL     1       5.310   6.178  15.539  0.00  0.00    +0.000 OA
ATOM      8  C   UNL     1       5.337   4.984  15.248  0.00  0.00    +0.000 C 
ATOM      9  N   UNL     1       4.840   3.945  16.022  0.00  0.00    +0.000 N 
ATOM     10  H   UNL     1       5.117   3.003  15.783  0.00  0.00    +0.000 HD
BRANCH   8  11
ATOM     11  C   UNL     1       6.022   4.621  13.982  0.00  0.00    +0.000 A 
ATOM     12  C   UNL     1       7.236   5.194  13.584  0.00  0.00    +0.000 A 
ATOM     13  C   UNL     1       7.869   4.741  12.421  0.00  0.00    +0.000 A 
ATOM     14  C   UNL     1       7.293   3.720  11.662  0.00  0.00    +0.000 A 
ATOM     15  C   UNL     1       6.089   3.157  12.067  0.00  0.00    +0.000 A 
ATOM     16  F   UNL     1       5.547   2.168  11.346  0.00  0.00    +0.000 F 
ATOM     17  C   UNL     1       5.451   3.594  13.217  0.00  0.00    +0.000 A 
ENDBRANCH   8  11
ENDBRANCH   1   9
BRANCH   4  18
ATOM     18  C   UNL     1       2.015   4.736  20.938  0.00  0.00    +0.000 C 
ATOM     19  O   UNL     1       1.994   3.928  21.853  0.00  0.00    +0.000 OA
BRANCH  18  20
ATOM     20  O   UNL     1       1.360   5.917  20.909  0.00  0.00    +0.000 OA
BRANCH  20  21
ATOM     21  C   UNL     1       2.040   6.990  20.240  0.00  0.00    +0.000 C 
BRANCH  21  22
ATOM     22  C   UNL     1       1.430   8.313  20.655  0.00  0.00    +0.000 A 
ATOM     23  C   UNL     1       1.102   8.530  21.942  0.00  0.00    +0.000 A 
ATOM     24  C   UNL     1       0.475   9.810  22.336  0.00  0.00    +0.000 A 
ATOM     25  O   UNL     1       0.163   9.995  23.508  0.00  0.00    +0.000 OA
ATOM     26  N   UNL     1       0.298  10.681  21.286  0.00  0.00    +0.000 N 
ATOM     27  N   UNL     1      -0.287  11.914  21.456  0.00  0.00    +0.000 NA
ATOM     28  C   UNL     1      -0.324  12.506  20.307  0.00  0.00    +0.000 A 
ATOM     29  S   UNL     1       0.319  11.661  18.930  0.00  0.00    +0.000 S 
ATOM     30  C   UNL     1       0.678  10.349  20.010  0.00  0.00    +0.000 A 
ATOM     31  N   UNL     1       1.218   9.236  19.647  0.00  0.00    +0.000 NA
BRANCH  28  32
ATOM     32  C   UNL     1      -0.911  13.844  20.136  0.00  0.00    +0.000 C 
ATOM     33  C   UNL     1      -0.163  15.078  20.591  0.00  0.00    +0.000 C 
ATOM     34  C   UNL     1      -0.337  14.812  19.126  0.00  0.00    +0.000 C 
ENDBRANCH  28  32
ENDBRANCH  21  22
ENDBRANCH  20  21
ENDBRANCH  18  20
ENDBRANCH   4  18
TORSDOF 7
ENDMDL
MODEL 4
REMARK VINA RESULT:      -8.7      1.154      1.713
REMARK  Name = 
REMARK  7 active torsions:
REMARK  status: ('A' for Active; 'I' for Inactive)
REMARK    1  A    between atoms: C_2  and  C_27
REMARK    2  A    between atoms: N_3  and  C_4
REMARK    3  A    between atoms: C_7  and  C_8
REMARK    4  A    between atoms: C_8  and  O_10
REMARK    5  A    between atoms: O_10  and  C_11
REMARK    6  A    between atoms: C_11  and  C_12
REMARK    7  A    between atoms: C_18  and  C_19
REMARK                            x       y       z     vdW  Elec       q    Type
REMARK                         _______ _______ _______ _____ _____    ______ ____
ROOT
ATOM      1  C   UNL     1       7.984   7.406  18.156  0.00  0.00    +0.000 A 
ATOM      2  C   UNL     1       7.150   7.613  17.055  0.00  0.00    +0.000 A 
ATOM      3  C   UNL     1       6.486   6.548  16.445  0.00  0.00    +0.000 A 
ATOM      4  C   UNL     1       6.653   5.246  16.918  0.00  0.00    +0.000 A 
ATOM      5  C   UNL     1       7.503   5.022  18.010  0.00  0.00    +0.000 A 
ATOM      6  C   UNL     1       8.174   6.099  18.617  0.00  0.00    +0.000 A 
ENDROOT
BRANCH   1   9
ATOM      7  O   UNL     1       8.236  10.186  17.298  0.00  0.00    +0.000 OA
ATOM      8  C   UNL     1       8.753   9.760  18.329  0.00  0.00    +0.000 C 
ATOM      9  N   UNL     1       8.644   8.467  18.822  0.00  0.00    +0.000 N 
ATOM     10  H   UNL     1       8.925   8.301  19.779  0.00  0.00    +0.000 HD
BRANCH   8  11
ATOM     11  C   UNL     1       9.511  10.738  19.149  0.00  0.00    +0.000 A 
ATOM     12  C   UNL     1       9.292  10.909  20.522  0.00  0.00    +0.000 A 
ATOM     13  C   UNL     1      10.102  11.787  21.249  0.00  0.00    +0.000 A 
ATOM     14  C   UNL     1      11.127  12.488  20.610  0.00  0.00    +0.000 A 
ATOM     15  C   UNL     1      11.337  12.310  19.248  0.00  0.00    +0.000 A 
ATOM     16  F   UNL     1      12.329  12.972  18.640  0.00  0.00    +0.000 F 
ATOM     17  C   UNL     1      10.543  11.443  18.514  0.00  0.00    +0.000 A 
ENDBRANCH   8  11
ENDBRANCH   1   9
BRANCH   4  18
ATOM     18  C   UNL     1       5.911   4.166  16.215  0.00  0.00    +0.000 C 
ATOM     19  O   UNL     1       6.454   3.351  15.485  0.00  0.00    +0.000 OA
BRANCH  18  20
ATOM     20  O   UNL     1       4.591   4.217  16.502  0.00  0.00    +0.000 OA
BRANCH  20  21
ATOM     21  C   UNL     1       4.133   3.283  17.490  0.00  0.00    +0.000 C 
BRANCH  21  22
ATOM     22  C   UNL     1       3.352   4.020  18.559  0.00  0.00    +0.000 A 
ATOM     23  C   UNL     1       2.855   3.348  19.614  0.00  0.00    +0.000 A 
ATOM     24  C   UNL     1       2.064   4.065  20.637  0.00  0.00    +0.000 A 
ATOM     25  O   UNL     1       1.599   3.444  21.588  0.00  0.00    +0.000 OA
ATOM     26  N   UNL     1       1.929   5.411  20.383  0.00  0.00    +0.000 N 
ATOM     27  N   UNL     1       1.211   6.238  21.214  0.00  0.00    +0.000 NA
ATOM     28  C   UNL     1       1.253   7.436  20.728  0.00  0.00    +0.000 A 
ATOM     29  S   UNL     1       2.134   7.688  19.250  0.00  0.00    +0.000 S 
ATOM     30  C   UNL     1       2.488   5.988  19.271  0.00  0.00    +0.000 A 
ATOM     31  N   UNL     1       3.173   5.377  18.365  0.00  0.00    +0.000 NA
BRANCH  28  32
ATOM     32  C   UNL     1       0.563   8.565  21.371  0.00  0.00    +0.000 C 
ATOM     33  C   UNL     1       1.298   9.469  22.336  0.00  0.00    +0.000 C 
ATOM     34  C   UNL     1       0.899   9.989  20.988  0.00  0.00    +0.000 C 
ENDBRANCH  28  32
ENDBRANCH  21  22
ENDBRANCH  20  21
ENDBRANCH  18  20
ENDBRANCH   4  18
TORSDOF 7
ENDMDL
MODEL 5
REMARK VINA RESULT:      -8.7      5.178      6.847
REMARK  Name = 
REMARK  7 active torsions:
REMARK  status: ('A' for Active; 'I' for Inactive)
REMARK    1  A    between atoms: C_2  and  C_27
REMARK    2  A    between atoms: N_3  and  C_4
REMARK    3  A    between atoms: C_7  and  C_8
REMARK    4  A    between atoms: C_8  and  O_10
REMARK    5  A    between atoms: O_10  and  C_11
REMARK    6  A    between atoms: C_11  and  C_12
REMARK    7  A    between atoms: C_18  and  C_19
REMARK                            x       y       z     vdW  Elec       q    Type
REMARK                         _______ _______ _______ _____ _____    ______ ____
ROOT
ATOM      1  C   UNL     1       3.776   3.819  17.081  0.00  0.00    +0.000 A 
ATOM      2  C   UNL     1       4.313   3.540  18.341  0.00  0.00    +0.000 A 
ATOM      3  C   UNL     1       3.517   3.577  19.486  0.00  0.00    +0.000 A 
ATOM      4  C   UNL     1       2.164   3.905  19.397  0.00  0.00    +0.000 A 
ATOM      5  C   UNL     1       1.617   4.207  18.142  0.00  0.00    +0.000 A 
ATOM      6  C   UNL     1       2.426   4.174  16.992  0.00  0.00    +0.000 A 
ENDROOT
BRANCH   1   9
ATOM      7  O   UNL     1       5.967   5.567  16.265  0.00  0.00    +0.000 OA
ATOM      8  C   UNL     1       5.551   4.651  15.559  0.00  0.00    +0.000 C 
ATOM      9  N   UNL     1       4.545   3.756  15.895  0.00  0.00    +0.000 N 
ATOM     10  H   UNL     1       4.447   2.922  15.331  0.00  0.00    +0.000 HD
BRANCH   8  11
ATOM     11  C   UNL     1       6.232   4.451  14.256  0.00  0.00    +0.000 A 
ATOM     12  C   UNL     1       5.811   3.500  13.317  0.00  0.00    +0.000 A 
ATOM     13  C   UNL     1       6.446   3.425  12.073  0.00  0.00    +0.000 A 
ATOM     14  C   UNL     1       7.494   4.296  11.767  0.00  0.00    +0.000 A 
ATOM     15  C   UNL     1       7.903   5.236  12.704  0.00  0.00    +0.000 A 
ATOM     16  F   UNL     1       8.898   6.080  12.404  0.00  0.00    +0.000 F 
ATOM     17  C   UNL     1       7.283   5.324  13.941  0.00  0.00    +0.000 A 
ENDBRANCH   8  11
ENDBRANCH   1   9
BRANCH   4  18
ATOM     18  C   UNL     1       1.382   3.922  20.663  0.00  0.00    +0.000 C 
ATOM     19  O   UNL     1       1.092   2.908  21.280  0.00  0.00    +0.000 OA
BRANCH  18  20
ATOM     20  O   UNL     1       1.058   5.185  21.017  0.00  0.00    +0.000 OA
BRANCH  20  21
ATOM     21  C   UNL     1       2.148   6.119  21.055  0.00  0.00    +0.000 C 
BRANCH  21  22
ATOM     22  C   UNL     1       1.720   7.422  20.409  0.00  0.00    +0.000 A 
ATOM     23  C   UNL     1       2.106   7.709  19.153  0.00  0.00    +0.000 A 
ATOM     24  C   UNL     1       1.714   8.996  18.540  0.00  0.00    +0.000 A 
ATOM     25  O   UNL     1       2.083   9.260  17.399  0.00  0.00    +0.000 OA
ATOM     26  N   UNL     1       0.953   9.790  19.366  0.00  0.00    +0.000 N 
ATOM     27  N   UNL     1       0.512  11.033  18.976  0.00  0.00    +0.000 NA
ATOM     28  C   UNL     1      -0.170  11.544  19.949  0.00  0.00    +0.000 A 
ATOM     29  S   UNL     1      -0.342  10.611  21.406  0.00  0.00    +0.000 S 
ATOM     30  C   UNL     1       0.617   9.386  20.634  0.00  0.00    +0.000 A 
ATOM     31  N   UNL     1       0.955   8.272  21.187  0.00  0.00    +0.000 NA
BRANCH  28  32
ATOM     32  C   UNL     1      -0.770  12.884  19.863  0.00  0.00    +0.000 C 
ATOM     33  C   UNL     1       0.039  14.115  20.209  0.00  0.00    +0.000 C 
ATOM     34  C   UNL     1      -0.338  13.851  18.783  0.00  0.00    +0.000 C 
ENDBRANCH  28  32
ENDBRANCH  21  22
ENDBRANCH  20  21
ENDBRANCH  18  20
ENDBRANCH   4  18
TORSDOF 7
ENDMDL
MODEL 6
REMARK VINA RESULT:      -8.6      2.318      2.973
REMARK  Name = 
REMARK  7 active torsions:
REMARK  status: ('A' for Active; 'I' for Inactive)
REMARK    1  A    between atoms: C_2  and  C_27
REMARK    2  A    between atoms: N_3  and  C_4
REMARK    3  A    between atoms: C_7  and  C_8
REMARK    4  A    between atoms: C_8  and  O_10
REMARK    5  A    between atoms: O_10  and  C_11
REMARK    6  A    between atoms: C_11  and  C_12
REMARK    7  A    between atoms: C_18  and  C_19
REMARK                            x       y       z     vdW  Elec       q    Type
REMARK                         _______ _______ _______ _____ _____    ______ ____
ROOT
ATOM      1  C   UNL     1       8.122   8.479  18.090  0.00  0.00    +0.000 A 
ATOM      2  C   UNL     1       8.432   7.362  18.871  0.00  0.00    +0.000 A 
ATOM      3  C   UNL     1       7.623   6.226  18.855  0.00  0.00    +0.000 A 
ATOM      4  C   UNL     1       6.474   6.187  18.063  0.00  0.00    +0.000 A 
ATOM      5  C   UNL     1       6.141   7.307  17.290  0.00  0.00    +0.000 A 
ATOM      6  C   UNL     1       6.958   8.453  17.315  0.00  0.00    +0.000 A 
ENDROOT
BRANCH   1   9
ATOM      7  O   UNL     1       9.041  10.101  20.338  0.00  0.00    +0.000 OA
ATOM      8  C   UNL     1       9.305  10.376  19.169  0.00  0.00    +0.000 C 
ATOM      9  N   UNL     1       8.940   9.633  18.054  0.00  0.00    +0.000 N 
ATOM     10  H   UNL     1       9.399   9.840  17.178  0.00  0.00    +0.000 HD
BRANCH   8  11
ATOM     11  C   UNL     1      10.142  11.579  18.939  0.00  0.00    +0.000 A 
ATOM     12  C   UNL     1      10.636  12.372  19.984  0.00  0.00    +0.000 A 
ATOM     13  C   UNL     1      11.492  13.441  19.698  0.00  0.00    +0.000 A 
ATOM     14  C   UNL     1      11.854  13.716  18.378  0.00  0.00    +0.000 A 
ATOM     15  C   UNL     1      11.360  12.924  17.349  0.00  0.00    +0.000 A 
ATOM     16  F   UNL     1      11.720  13.180  16.085  0.00  0.00    +0.000 F 
ATOM     17  C   UNL     1      10.513  11.859  17.616  0.00  0.00    +0.000 A 
ENDBRANCH   8  11
ENDBRANCH   1   9
BRANCH   4  18
ATOM     18  C   UNL     1       5.664   4.939  18.100  0.00  0.00    +0.000 C 
ATOM     19  O   UNL     1       6.160   3.824  18.143  0.00  0.00    +0.000 OA
BRANCH  18  20
ATOM     20  O   UNL     1       4.342   5.219  18.085  0.00  0.00    +0.000 OA
BRANCH  20  21
ATOM     21  C   UNL     1       3.740   5.444  19.368  0.00  0.00    +0.000 C 
BRANCH  21  22
ATOM     22  C   UNL     1       2.892   6.699  19.315  0.00  0.00    +0.000 A 
ATOM     23  C   UNL     1       2.934   7.495  18.232  0.00  0.00    +0.000 A 
ATOM     24  C   UNL     1       2.131   8.736  18.199  0.00  0.00    +0.000 A 
ATOM     25  O   UNL     1       2.186   9.468  17.215  0.00  0.00    +0.000 OA
ATOM     26  N   UNL     1       1.387   8.940  19.338  0.00  0.00    +0.000 N 
ATOM     27  N   UNL     1       0.592  10.050  19.498  0.00  0.00    +0.000 NA
ATOM     28  C   UNL     1       0.020   9.976  20.657  0.00  0.00    +0.000 A 
ATOM     29  S   UNL     1       0.375   8.598  21.656  0.00  0.00    +0.000 S 
ATOM     30  C   UNL     1       1.422   8.050  20.382  0.00  0.00    +0.000 A 
ATOM     31  N   UNL     1       2.121   6.968  20.432  0.00  0.00    +0.000 NA
BRANCH  28  32
ATOM     32  C   UNL     1      -0.886  11.024  21.149  0.00  0.00    +0.000 C 
ATOM     33  C   UNL     1      -0.768  11.543  22.565  0.00  0.00    +0.000 C 
ATOM     34  C   UNL     1      -0.373  12.420  21.416  0.00  0.00    +0.000 C 
ENDBRANCH  28  32
ENDBRANCH  21  22
ENDBRANCH  20  21
ENDBRANCH  18  20
ENDBRANCH   4  18
TORSDOF 7
ENDMDL
MODEL 7
REMARK VINA RESULT:      -8.5      1.980      2.506
REMARK  Name = 
REMARK  7 active torsions:
REMARK  status: ('A' for Active; 'I' for Inactive)
REMARK    1  A    between atoms: C_2  and  C_27
REMARK    2  A    between atoms: N_3  and  C_4
REMARK    3  A    between atoms: C_7  and  C_8
REMARK    4  A    between atoms: C_8  and  O_10
REMARK    5  A    between atoms: O_10  and  C_11
REMARK    6  A    between atoms: C_11  and  C_12
REMARK    7  A    between atoms: C_18  and  C_19
REMARK                            x       y       z     vdW  Elec       q    Type
REMARK                         _______ _______ _______ _____ _____    ______ ____
ROOT
ATOM      1  C   UNL     1       8.116   8.267  18.069  0.00  0.00    +0.000 A 
ATOM      2  C   UNL     1       8.361   7.154  18.877  0.00  0.00    +0.000 A 
ATOM      3  C   UNL     1       7.490   6.063  18.883  0.00  0.00    +0.000 A 
ATOM      4  C   UNL     1       6.345   6.068  18.085  0.00  0.00    +0.000 A 
ATOM      5  C   UNL     1       6.076   7.187  17.285  0.00  0.00    +0.000 A 
ATOM      6  C   UNL     1       6.955   8.286  17.288  0.00  0.00    +0.000 A 
ENDROOT
BRANCH   1   9
ATOM      7  O   UNL     1       8.872  10.076  20.231  0.00  0.00    +0.000 OA
ATOM      8  C   UNL     1       9.277  10.214  19.079  0.00  0.00    +0.000 C 
ATOM      9  N   UNL     1       8.995   9.374  18.010  0.00  0.00    +0.000 N 
ATOM     10  H   UNL     1       9.559   9.466  17.176  0.00  0.00    +0.000 HD
BRANCH   8  11
ATOM     11  C   UNL     1      10.200  11.348  18.827  0.00  0.00    +0.000 A 
ATOM     12  C   UNL     1      10.741  11.621  17.564  0.00  0.00    +0.000 A 
ATOM     13  C   UNL     1      11.536  12.757  17.380  0.00  0.00    +0.000 A 
ATOM     14  C   UNL     1      11.786  13.618  18.451  0.00  0.00    +0.000 A 
ATOM     15  C   UNL     1      11.244  13.340  19.699  0.00  0.00    +0.000 A 
ATOM     16  F   UNL     1      11.473  14.174  20.721  0.00  0.00    +0.000 F 
ATOM     17  C   UNL     1      10.454  12.218  19.897  0.00  0.00    +0.000 A 
ENDBRANCH   8  11
ENDBRANCH   1   9
BRANCH   4  18
ATOM     18  C   UNL     1       5.468   4.868  18.146  0.00  0.00    +0.000 C 
ATOM     19  O   UNL     1       5.472   3.996  17.291  0.00  0.00    +0.000 OA
BRANCH  18  20
ATOM     20  O   UNL     1       4.697   4.886  19.256  0.00  0.00    +0.000 OA
BRANCH  20  21
ATOM     21  C   UNL     1       3.280   4.836  19.029  0.00  0.00    +0.000 C 
BRANCH  21  22
ATOM     22  C   UNL     1       2.706   6.236  19.101  0.00  0.00    +0.000 A 
ATOM     23  C   UNL     1       2.739   7.033  18.018  0.00  0.00    +0.000 A 
ATOM     24  C   UNL     1       2.208   8.411  18.102  0.00  0.00    +0.000 A 
ATOM     25  O   UNL     1       2.256   9.140  17.116  0.00  0.00    +0.000 OA
ATOM     26  N   UNL     1       1.707   8.732  19.343  0.00  0.00    +0.000 N 
ATOM     27  N   UNL     1       1.188   9.975  19.617  0.00  0.00    +0.000 NA
ATOM     28  C   UNL     1       0.800   9.989  20.852  0.00  0.00    +0.000 A 
ATOM     29  S   UNL     1       1.021   8.544  21.794  0.00  0.00    +0.000 S 
ATOM     30  C   UNL     1       1.723   7.828  20.375  0.00  0.00    +0.000 A 
ATOM     31  N   UNL     1       2.189   6.627  20.323  0.00  0.00    +0.000 NA
BRANCH  28  32
ATOM     32  C   UNL     1       0.212  11.185  21.472  0.00  0.00    +0.000 C 
ATOM     33  C   UNL     1      -1.233  11.556  21.217  0.00  0.00    +0.000 C 
ATOM     34  C   UNL     1      -0.822  11.053  22.568  0.00  0.00    +0.000 C 
ENDBRANCH  28  32
ENDBRANCH  21  22
ENDBRANCH  20  21
ENDBRANCH  18  20
ENDBRANCH   4  18
TORSDOF 7
ENDMDL
MODEL 8
REMARK VINA RESULT:      -8.3      5.070      6.851
REMARK  Name = 
REMARK  7 active torsions:
REMARK  status: ('A' for Active; 'I' for Inactive)
REMARK    1  A    between atoms: C_2  and  C_27
REMARK    2  A    between atoms: N_3  and  C_4
REMARK    3  A    between atoms: C_7  and  C_8
REMARK    4  A    between atoms: C_8  and  O_10
REMARK    5  A    between atoms: O_10  and  C_11
REMARK    6  A    between atoms: C_11  and  C_12
REMARK    7  A    between atoms: C_18  and  C_19
REMARK                            x       y       z     vdW  Elec       q    Type
REMARK                         _______ _______ _______ _____ _____    ______ ____
ROOT
ATOM      1  C   UNL     1       4.369   4.039  17.557  0.00  0.00    +0.000 A 
ATOM      2  C   UNL     1       3.071   3.544  17.704  0.00  0.00    +0.000 A 
ATOM      3  C   UNL     1       2.367   3.715  18.896  0.00  0.00    +0.000 A 
ATOM      4  C   UNL     1       2.952   4.379  19.975  0.00  0.00    +0.000 A 
ATOM      5  C   UNL     1       4.261   4.864  19.848  0.00  0.00    +0.000 A 
ATOM      6  C   UNL     1       4.969   4.682  18.645  0.00  0.00    +0.000 A 
ENDROOT
BRANCH   1   9
ATOM      7  O   UNL     1       5.058   6.140  15.649  0.00  0.00    +0.000 OA
ATOM      8  C   UNL     1       5.355   4.960  15.473  0.00  0.00    +0.000 C 
ATOM      9  N   UNL     1       5.099   3.915  16.351  0.00  0.00    +0.000 N 
ATOM     10  H   UNL     1       5.583   3.041  16.198  0.00  0.00    +0.000 HD
BRANCH   8  11
ATOM     11  C   UNL     1       6.110   4.639  14.237  0.00  0.00    +0.000 A 
ATOM     12  C   UNL     1       5.661   3.707  13.292  0.00  0.00    +0.000 A 
ATOM     13  C   UNL     1       6.381   3.519  12.107  0.00  0.00    +0.000 A 
ATOM     14  C   UNL     1       7.541   4.258  11.867  0.00  0.00    +0.000 A 
ATOM     15  C   UNL     1       7.977   5.181  12.809  0.00  0.00    +0.000 A 
ATOM     16  F   UNL     1       9.082   5.899  12.570  0.00  0.00    +0.000 F 
ATOM     17  C   UNL     1       7.274   5.380  13.987  0.00  0.00    +0.000 A 
ENDBRANCH   8  11
ENDBRANCH   1   9
BRANCH   4  18
ATOM     18  C   UNL     1       2.136   4.522  21.210  0.00  0.00    +0.000 C 
ATOM     19  O   UNL     1       2.161   3.711  22.123  0.00  0.00    +0.000 OA
BRANCH  18  20
ATOM     20  O   UNL     1       1.394   5.651  21.173  0.00  0.00    +0.000 OA
BRANCH  20  21
ATOM     21  C   UNL     1       1.787   6.622  20.192  0.00  0.00    +0.000 C 
BRANCH  21  22
ATOM     22  C   UNL     1       1.398   8.007  20.666  0.00  0.00    +0.000 A 
ATOM     23  C   UNL     1       1.082   8.213  21.958  0.00  0.00    +0.000 A 
ATOM     24  C   UNL     1       0.670   9.559  22.410  0.00  0.00    +0.000 A 
ATOM     25  O   UNL     1       0.368   9.737  23.586  0.00  0.00    +0.000 OA
ATOM     26  N   UNL     1       0.666  10.498  21.404  0.00  0.00    +0.000 N 
ATOM     27  N   UNL     1       0.292  11.802  21.630  0.00  0.00    +0.000 NA
ATOM     28  C   UNL     1       0.380  12.448  20.512  0.00  0.00    +0.000 A 
ATOM     29  S   UNL     1       0.903  11.575  19.103  0.00  0.00    +0.000 S 
ATOM     30  C   UNL     1       1.013  10.170  20.118  0.00  0.00    +0.000 A 
ATOM     31  N   UNL     1       1.367   9.001  19.705  0.00  0.00    +0.000 NA
BRANCH  28  32
ATOM     32  C   UNL     1       0.030  13.872  20.404  0.00  0.00    +0.000 C 
ATOM     33  C   UNL     1      -1.418  14.308  20.339  0.00  0.00    +0.000 C 
ATOM     34  C   UNL     1      -0.608  14.597  21.567  0.00  0.00    +0.000 C 
ENDBRANCH  28  32
ENDBRANCH  21  22
ENDBRANCH  20  21
ENDBRANCH  18  20
ENDBRANCH   4  18
TORSDOF 7
ENDMDL
MODEL 9
REMARK VINA RESULT:      -8.3      5.528      7.237
REMARK  Name = 
REMARK  7 active torsions:
REMARK  status: ('A' for Active; 'I' for Inactive)
REMARK    1  A    between atoms: C_2  and  C_27
REMARK    2  A    between atoms: N_3  and  C_4
REMARK    3  A    between atoms: C_7  and  C_8
REMARK    4  A    between atoms: C_8  and  O_10
REMARK    5  A    between atoms: O_10  and  C_11
REMARK    6  A    between atoms: C_11  and  C_12
REMARK    7  A    between atoms: C_18  and  C_19
REMARK                            x       y       z     vdW  Elec       q    Type
REMARK                         _______ _______ _______ _____ _____    ______ ____
ROOT
ATOM      1  C   UNL     1       3.886   4.025  17.209  0.00  0.00    +0.000 A 
ATOM      2  C   UNL     1       4.463   3.621  18.415  0.00  0.00    +0.000 A 
ATOM      3  C   UNL     1       3.755   3.703  19.614  0.00  0.00    +0.000 A 
ATOM      4  C   UNL     1       2.453   4.204  19.634  0.00  0.00    +0.000 A 
ATOM      5  C   UNL     1       1.869   4.632  18.434  0.00  0.00    +0.000 A 
ATOM      6  C   UNL     1       2.590   4.553  17.229  0.00  0.00    +0.000 A 
ENDROOT
BRANCH   1   9
ATOM      7  O   UNL     1       6.064   5.692  16.206  0.00  0.00    +0.000 OA
ATOM      8  C   UNL     1       5.567   4.781  15.546  0.00  0.00    +0.000 C 
ATOM      9  N   UNL     1       4.562   3.923  15.969  0.00  0.00    +0.000 N 
ATOM     10  H   UNL     1       4.396   3.086  15.427  0.00  0.00    +0.000 HD
BRANCH   8  11
ATOM     11  C   UNL     1       6.142   4.542  14.199  0.00  0.00    +0.000 A 
ATOM     12  C   UNL     1       7.287   5.202  13.734  0.00  0.00    +0.000 A 
ATOM     13  C   UNL     1       7.824   4.864  12.487  0.00  0.00    +0.000 A 
ATOM     14  C   UNL     1       7.223   3.871  11.711  0.00  0.00    +0.000 A 
ATOM     15  C   UNL     1       6.089   3.221  12.181  0.00  0.00    +0.000 A 
ATOM     16  F   UNL     1       5.523   2.259  11.442  0.00  0.00    +0.000 F 
ATOM     17  C   UNL     1       5.546   3.544  13.415  0.00  0.00    +0.000 A 
ENDBRANCH   8  11
ENDBRANCH   1   9
BRANCH   4  18
ATOM     18  C   UNL     1       1.764   4.258  20.952  0.00  0.00    +0.000 C 
ATOM     19  O   UNL     1       1.468   3.260  21.590  0.00  0.00    +0.000 OA
BRANCH  18  20
ATOM     20  O   UNL     1       1.528   5.536  21.324  0.00  0.00    +0.000 OA
BRANCH  20  21
ATOM     21  C   UNL     1       2.345   6.530  20.687  0.00  0.00    +0.000 C 
BRANCH  21  22
ATOM     22  C   UNL     1       1.571   7.828  20.579  0.00  0.00    +0.000 A 
ATOM     23  C   UNL     1       1.572   8.518  19.424  0.00  0.00    +0.000 A 
ATOM     24  C   UNL     1       0.843   9.801  19.334  0.00  0.00    +0.000 A 
ATOM     25  O   UNL     1       0.861  10.435  18.283  0.00  0.00    +0.000 OA
ATOM     26  N   UNL     1       0.207  10.156  20.501  0.00  0.00    +0.000 N 
ATOM     27  N   UNL     1      -0.506  11.326  20.614  0.00  0.00    +0.000 NA
ATOM     28  C   UNL     1      -0.985  11.394  21.814  0.00  0.00    +0.000 A 
ATOM     29  S   UNL     1      -0.632  10.093  22.911  0.00  0.00    +0.000 S 
ATOM     30  C   UNL     1       0.274   9.364  21.620  0.00  0.00    +0.000 A 
ATOM     31  N   UNL     1       0.910   8.247  21.719  0.00  0.00    +0.000 NA
BRANCH  28  32
ATOM     32  C   UNL     1      -1.786  12.540  22.271  0.00  0.00    +0.000 C 
ATOM     33  C   UNL     1      -3.289  12.550  22.095  0.00  0.00    +0.000 C 
ATOM     34  C   UNL     1      -2.701  12.409  23.467  0.00  0.00    +0.000 C 
ENDBRANCH  28  32
ENDBRANCH  21  22
ENDBRANCH  20  21
ENDBRANCH  18  20
ENDBRANCH   4  18
TORSDOF 7
ENDMDL
