MODEL 1
REMARK VINA RESULT:      -7.7      0.000      0.000
REMARK  Name = 
REMARK  5 active torsions:
REMARK  status: ('A' for Active; 'I' for Inactive)
REMARK    1  A    between atoms: C_1  and  O_2
REMARK    2  A    between atoms: O_2  and  C_3
REMARK    3  A    between atoms: C_6  and  C_7
REMARK    4  A    between atoms: C_7  and  N_8
REMARK    5  A    between atoms: N_8  and  C_9
REMARK                            x       y       z     vdW  Elec       q    Type
REMARK                         _______ _______ _______ _____ _____    ______ ____
ROOT
ATOM      1  C   UNL     1       5.250   4.946  19.438  0.00  0.00    +0.000 A 
ATOM      2  C   UNL     1       4.833   3.715  19.090  0.00  0.00    +0.000 A 
ATOM      3  C   UNL     1       3.417   3.354  19.120  0.00  0.00    +0.000 A 
ATOM      4  C   UNL     1       3.004   2.034  18.920  0.00  0.00    +0.000 A 
ATOM      5  C   UNL     1       1.648   1.705  18.993  0.00  0.00    +0.000 A 
ATOM      6  C   UNL     1       0.697   2.699  19.232  0.00  0.00    +0.000 A 
ATOM      7  C   UNL     1       1.100   4.022  19.421  0.00  0.00    +0.000 A 
ATOM      8  C   UNL     1       2.461   4.339  19.386  0.00  0.00    +0.000 A 
ATOM      9  C   UNL     1       2.936   5.709  19.692  0.00  0.00    +0.000 A 
ATOM     10  O   UNL     1       2.153   6.625  19.917  0.00  0.00    +0.000 OA
ATOM     11  N   UNL     1       4.301   5.891  19.737  0.00  0.00    +0.000 N 
ATOM     12  H   UNL     1       4.597   6.825  19.970  0.00  0.00    +0.000 HD
ENDROOT
BRANCH   1  13
ATOM     13  N   UNL     1       6.576   5.320  19.481  0.00  0.00    +0.000 N 
ATOM     14  H   UNL     1       7.150   4.680  20.021  0.00  0.00    +0.000 HD
BRANCH  13  15
ATOM     15  C   UNL     1       7.320   5.971  18.413  0.00  0.00    +0.000 C 
BRANCH  15  19
ATOM     16  C   UNL     1       5.697   4.739  14.593  0.00  0.00    +0.000 A 
ATOM     17  C   UNL     1       6.719   4.012  15.205  0.00  0.00    +0.000 A 
ATOM     18  C   UNL     1       7.251   4.425  16.429  0.00  0.00    +0.000 A 
ATOM     19  C   UNL     1       6.783   5.591  17.052  0.00  0.00    +0.000 A 
ATOM     20  C   UNL     1       5.752   6.311  16.434  0.00  0.00    +0.000 A 
ATOM     21  C   UNL     1       5.219   5.895  15.208  0.00  0.00    +0.000 A 
BRANCH  16  23
ATOM     22  C   UNL     1       6.212   3.445  12.680  0.00  0.00    +0.000 C 
ATOM     23  O   UNL     1       5.271   4.239  13.394  0.00  0.00    +0.000 OA
ENDBRANCH  16  23
ENDBRANCH  15  19
ENDBRANCH  13  15
ENDBRANCH   1  13
TORSDOF 4
ENDMDL
MODEL 2
REMARK VINA RESULT:      -7.6      2.565      3.746
REMARK  Name = 
REMARK  5 active torsions:
REMARK  status: ('A' for Active; 'I' for Inactive)
REMARK    1  A    between atoms: C_1  and  O_2
REMARK    2  A    between atoms: O_2  and  C_3
REMARK    3  A    between atoms: C_6  and  C_7
REMARK    4  A    between atoms: C_7  and  N_8
REMARK    5  A    between atoms: N_8  and  C_9
REMARK                            x       y       z     vdW  Elec       q    Type
REMARK                         _______ _______ _______ _____ _____    ______ ____
ROOT
ATOM      1  C   UNL     1       4.275   3.177  17.460  0.00  0.00    +0.000 A 
ATOM      2  C   UNL     1       4.332   2.713  18.721  0.00  0.00    +0.000 A 
ATOM      3  C   UNL     1       3.199   2.849  19.634  0.00  0.00    +0.000 A 
ATOM      4  C   UNL     1       3.318   2.517  20.987  0.00  0.00    +0.000 A 
ATOM      5  C   UNL     1       2.233   2.693  21.850  0.00  0.00    +0.000 A 
ATOM      6  C   UNL     1       1.017   3.169  21.359  0.00  0.00    +0.000 A 
ATOM      7  C   UNL     1       0.886   3.492  20.007  0.00  0.00    +0.000 A 
ATOM      8  C   UNL     1       1.985   3.350  19.156  0.00  0.00    +0.000 A 
ATOM      9  C   UNL     1       1.918   3.786  17.741  0.00  0.00    +0.000 A 
ATOM     10  O   UNL     1       0.881   4.219  17.251  0.00  0.00    +0.000 OA
ATOM     11  N   UNL     1       3.088   3.706  17.016  0.00  0.00    +0.000 N 
ATOM     12  H   UNL     1       3.021   4.030  16.066  0.00  0.00    +0.000 HD
ENDROOT
BRANCH   1  13
ATOM     13  N   UNL     1       5.332   3.125  16.577  0.00  0.00    +0.000 N 
ATOM     14  H   UNL     1       5.402   2.234  16.097  0.00  0.00    +0.000 HD
BRANCH  13  15
ATOM     15  C   UNL     1       5.839   4.232  15.777  0.00  0.00    +0.000 C 
BRANCH  15  19
ATOM     16  C   UNL     1       7.948   7.093  18.249  0.00  0.00    +0.000 A 
ATOM     17  C   UNL     1       7.270   7.502  17.100  0.00  0.00    +0.000 A 
ATOM     18  C   UNL     1       6.607   6.571  16.297  0.00  0.00    +0.000 A 
ATOM     19  C   UNL     1       6.631   5.206  16.619  0.00  0.00    +0.000 A 
ATOM     20  C   UNL     1       7.309   4.806  17.778  0.00  0.00    +0.000 A 
ATOM     21  C   UNL     1       7.972   5.740  18.583  0.00  0.00    +0.000 A 
BRANCH  16  23
ATOM     22  C   UNL     1       8.517   9.388  18.347  0.00  0.00    +0.000 C 
ATOM     23  O   UNL     1       8.566   8.096  18.942  0.00  0.00    +0.000 OA
ENDBRANCH  16  23
ENDBRANCH  15  19
ENDBRANCH  13  15
ENDBRANCH   1  13
TORSDOF 4
ENDMDL
MODEL 3
REMARK VINA RESULT:      -7.6      1.569      2.093
REMARK  Name = 
REMARK  5 active torsions:
REMARK  status: ('A' for Active; 'I' for Inactive)
REMARK    1  A    between atoms: C_1  and  O_2
REMARK    2  A    between atoms: O_2  and  C_3
REMARK    3  A    between atoms: C_6  and  C_7
REMARK    4  A    between atoms: C_7  and  N_8
REMARK    5  A    between atoms: N_8  and  C_9
REMARK                            x       y       z     vdW  Elec       q    Type
REMARK                         _______ _______ _______ _____ _____    ______ ____
ROOT
ATOM      1  C   UNL     1       5.567   4.515  19.395  0.00  0.00    +0.000 A 
ATOM      2  C   UNL     1       4.489   5.193  19.830  0.00  0.00    +0.000 A 
ATOM      3  C   UNL     1       3.177   4.556  19.927  0.00  0.00    +0.000 A 
ATOM      4  C   UNL     1       2.032   5.302  20.219  0.00  0.00    +0.000 A 
ATOM      5  C   UNL     1       0.782   4.679  20.267  0.00  0.00    +0.000 A 
ATOM      6  C   UNL     1       0.676   3.304  20.056  0.00  0.00    +0.000 A 
ATOM      7  C   UNL     1       1.816   2.549  19.775  0.00  0.00    +0.000 A 
ATOM      8  C   UNL     1       3.059   3.184  19.691  0.00  0.00    +0.000 A 
ATOM      9  C   UNL     1       4.273   2.437  19.285  0.00  0.00    +0.000 A 
ATOM     10  O   UNL     1       4.246   1.229  19.079  0.00  0.00    +0.000 OA
ATOM     11  N   UNL     1       5.426   3.177  19.126  0.00  0.00    +0.000 N 
ATOM     12  H   UNL     1       6.230   2.650  18.828  0.00  0.00    +0.000 HD
ENDROOT
BRANCH   1  13
ATOM     13  N   UNL     1       6.812   5.083  19.232  0.00  0.00    +0.000 N 
ATOM     14  H   UNL     1       7.568   4.460  19.497  0.00  0.00    +0.000 HD
BRANCH  13  15
ATOM     15  C   UNL     1       7.201   6.015  18.183  0.00  0.00    +0.000 C 
BRANCH  15  19
ATOM     16  C   UNL     1       5.620   4.629  14.399  0.00  0.00    +0.000 A 
ATOM     17  C   UNL     1       6.671   3.958  15.025  0.00  0.00    +0.000 A 
ATOM     18  C   UNL     1       7.188   4.421  16.237  0.00  0.00    +0.000 A 
ATOM     19  C   UNL     1       6.676   5.582  16.834  0.00  0.00    +0.000 A 
ATOM     20  C   UNL     1       5.616   6.246  16.202  0.00  0.00    +0.000 A 
ATOM     21  C   UNL     1       5.097   5.779  14.987  0.00  0.00    +0.000 A 
BRANCH  16  23
ATOM     22  C   UNL     1       6.192   3.341  12.498  0.00  0.00    +0.000 C 
ATOM     23  O   UNL     1       5.211   4.084  13.214  0.00  0.00    +0.000 OA
ENDBRANCH  16  23
ENDBRANCH  15  19
ENDBRANCH  13  15
ENDBRANCH   1  13
TORSDOF 4
ENDMDL
MODEL 4
REMARK VINA RESULT:      -7.5      2.715      3.989
REMARK  Name = 
REMARK  5 active torsions:
REMARK  status: ('A' for Active; 'I' for Inactive)
REMARK    1  A    between atoms: C_1  and  O_2
REMARK    2  A    between atoms: O_2  and  C_3
REMARK    3  A    between atoms: C_6  and  C_7
REMARK    4  A    between atoms: C_7  and  N_8
REMARK    5  A    between atoms: N_8  and  C_9
REMARK                            x       y       z     vdW  Elec       q    Type
REMARK                         _______ _______ _______ _____ _____    ______ ____
ROOT
ATOM      1  C   UNL     1       4.297   3.675  17.420  0.00  0.00    +0.000 A 
ATOM      2  C   UNL     1       3.142   4.246  17.809  0.00  0.00    +0.000 A 
ATOM      3  C   UNL     1       2.513   3.899  19.082  0.00  0.00    +0.000 A 
ATOM      4  C   UNL     1       1.236   4.367  19.407  0.00  0.00    +0.000 A 
ATOM      5  C   UNL     1       0.637   3.990  20.611  0.00  0.00    +0.000 A 
ATOM      6  C   UNL     1       1.324   3.172  21.510  0.00  0.00    +0.000 A 
ATOM      7  C   UNL     1       2.604   2.710  21.198  0.00  0.00    +0.000 A 
ATOM      8  C   UNL     1       3.183   3.059  19.975  0.00  0.00    +0.000 A 
ATOM      9  C   UNL     1       4.491   2.499  19.561  0.00  0.00    +0.000 A 
ATOM     10  O   UNL     1       5.141   1.769  20.301  0.00  0.00    +0.000 OA
ATOM     11  N   UNL     1       4.923   2.819  18.291  0.00  0.00    +0.000 N 
ATOM     12  H   UNL     1       5.802   2.407  18.026  0.00  0.00    +0.000 HD
ENDROOT
BRANCH   1  13
ATOM     13  N   UNL     1       4.903   3.924  16.207  0.00  0.00    +0.000 N 
ATOM     14  H   UNL     1       4.377   4.572  15.629  0.00  0.00    +0.000 HD
BRANCH  13  15
ATOM     15  C   UNL     1       6.336   3.992  15.960  0.00  0.00    +0.000 C 
BRANCH  15  19
ATOM     16  C   UNL     1       8.023   7.233  18.283  0.00  0.00    +0.000 A 
ATOM     17  C   UNL     1       7.430   7.474  17.043  0.00  0.00    +0.000 A 
ATOM     18  C   UNL     1       6.903   6.421  16.291  0.00  0.00    +0.000 A 
ATOM     19  C   UNL     1       6.983   5.101  16.758  0.00  0.00    +0.000 A 
ATOM     20  C   UNL     1       7.574   4.870  18.007  0.00  0.00    +0.000 A 
ATOM     21  C   UNL     1       8.100   5.926  18.761  0.00  0.00    +0.000 A 
BRANCH  16  23
ATOM     22  C   UNL     1       8.426   9.563  18.187  0.00  0.00    +0.000 C 
ATOM     23  O   UNL     1       8.509   8.343  18.916  0.00  0.00    +0.000 OA
ENDBRANCH  16  23
ENDBRANCH  15  19
ENDBRANCH  13  15
ENDBRANCH   1  13
TORSDOF 4
ENDMDL
MODEL 5
REMARK VINA RESULT:      -7.5      1.579      2.335
REMARK  Name = 
REMARK  5 active torsions:
REMARK  status: ('A' for Active; 'I' for Inactive)
REMARK    1  A    between atoms: C_1  and  O_2
REMARK    2  A    between atoms: O_2  and  C_3
REMARK    3  A    between atoms: C_6  and  C_7
REMARK    4  A    between atoms: C_7  and  N_8
REMARK    5  A    between atoms: N_8  and  C_9
REMARK                            x       y       z     vdW  Elec       q    Type
REMARK                         _______ _______ _______ _____ _____    ______ ____
ROOT
ATOM      1  C   UNL     1       5.512   4.786  19.430  0.00  0.00    +0.000 A 
ATOM      2  C   UNL     1       4.368   5.402  19.780  0.00  0.00    +0.000 A 
ATOM      3  C   UNL     1       3.122   4.656  19.944  0.00  0.00    +0.000 A 
ATOM      4  C   UNL     1       1.906   5.317  20.144  0.00  0.00    +0.000 A 
ATOM      5  C   UNL     1       0.721   4.586  20.258  0.00  0.00    +0.000 A 
ATOM      6  C   UNL     1       0.750   3.192  20.207  0.00  0.00    +0.000 A 
ATOM      7  C   UNL     1       1.961   2.523  20.019  0.00  0.00    +0.000 A 
ATOM      8  C   UNL     1       3.138   3.261  19.867  0.00  0.00    +0.000 A 
ATOM      9  C   UNL     1       4.425   2.594  19.555  0.00  0.00    +0.000 A 
ATOM     10  O   UNL     1       4.516   1.373  19.490  0.00  0.00    +0.000 OA
ATOM     11  N   UNL     1       5.503   3.418  19.317  0.00  0.00    +0.000 N 
ATOM     12  H   UNL     1       6.359   2.941  19.084  0.00  0.00    +0.000 HD
ENDROOT
BRANCH   1  13
ATOM     13  N   UNL     1       6.700   5.448  19.207  0.00  0.00    +0.000 N 
ATOM     14  H   UNL     1       7.500   4.970  19.609  0.00  0.00    +0.000 HD
BRANCH  13  15
ATOM     15  C   UNL     1       7.047   6.215  18.019  0.00  0.00    +0.000 C 
BRANCH  15  19
ATOM     16  C   UNL     1       5.705   4.415  14.317  0.00  0.00    +0.000 A 
ATOM     17  C   UNL     1       5.086   5.560  14.822  0.00  0.00    +0.000 A 
ATOM     18  C   UNL     1       5.513   6.125  16.026  0.00  0.00    +0.000 A 
ATOM     19  C   UNL     1       6.554   5.538  16.760  0.00  0.00    +0.000 A 
ATOM     20  C   UNL     1       7.173   4.393  16.242  0.00  0.00    +0.000 A 
ATOM     21  C   UNL     1       6.746   3.829  15.034  0.00  0.00    +0.000 A 
BRANCH  16  23
ATOM     22  C   UNL     1       6.113   3.316  12.261  0.00  0.00    +0.000 C 
ATOM     23  O   UNL     1       5.190   3.953  13.138  0.00  0.00    +0.000 OA
ENDBRANCH  16  23
ENDBRANCH  15  19
ENDBRANCH  13  15
ENDBRANCH   1  13
TORSDOF 4
ENDMDL
MODEL 6
REMARK VINA RESULT:      -7.5      1.922      2.453
REMARK  Name = 
REMARK  5 active torsions:
REMARK  status: ('A' for Active; 'I' for Inactive)
REMARK    1  A    between atoms: C_1  and  O_2
REMARK    2  A    between atoms: O_2  and  C_3
REMARK    3  A    between atoms: C_6  and  C_7
REMARK    4  A    between atoms: C_7  and  N_8
REMARK    5  A    between atoms: N_8  and  C_9
REMARK                            x       y       z     vdW  Elec       q    Type
REMARK                         _______ _______ _______ _____ _____    ______ ____
ROOT
ATOM      1  C   UNL     1       5.312   4.841  18.795  0.00  0.00    +0.000 A 
ATOM      2  C   UNL     1       4.112   5.381  19.075  0.00  0.00    +0.000 A 
ATOM      3  C   UNL     1       3.053   4.598  19.709  0.00  0.00    +0.000 A 
ATOM      4  C   UNL     1       1.760   5.110  19.847  0.00  0.00    +0.000 A 
ATOM      5  C   UNL     1       0.753   4.328  20.419  0.00  0.00    +0.000 A 
ATOM      6  C   UNL     1       1.043   3.045  20.886  0.00  0.00    +0.000 A 
ATOM      7  C   UNL     1       2.334   2.530  20.763  0.00  0.00    +0.000 A 
ATOM      8  C   UNL     1       3.328   3.302  20.155  0.00  0.00    +0.000 A 
ATOM      9  C   UNL     1       4.681   2.750  19.906  0.00  0.00    +0.000 A 
ATOM     10  O   UNL     1       4.996   1.627  20.285  0.00  0.00    +0.000 OA
ATOM     11  N   UNL     1       5.553   3.552  19.202  0.00  0.00    +0.000 N 
ATOM     12  H   UNL     1       6.457   3.144  19.027  0.00  0.00    +0.000 HD
ENDROOT
BRANCH   1  13
ATOM     13  N   UNL     1       6.324   5.518  18.149  0.00  0.00    +0.000 N 
ATOM     14  H   UNL     1       6.633   6.341  18.654  0.00  0.00    +0.000 HD
BRANCH  13  15
ATOM     15  C   UNL     1       7.386   4.919  17.353  0.00  0.00    +0.000 C 
BRANCH  15  19
ATOM     16  C   UNL     1       6.202   3.940  13.306  0.00  0.00    +0.000 A 
ATOM     17  C   UNL     1       7.280   4.791  13.550  0.00  0.00    +0.000 A 
ATOM     18  C   UNL     1       7.646   5.117  14.858  0.00  0.00    +0.000 A 
ATOM     19  C   UNL     1       6.921   4.613  15.948  0.00  0.00    +0.000 A 
ATOM     20  C   UNL     1       5.844   3.755  15.693  0.00  0.00    +0.000 A 
ATOM     21  C   UNL     1       5.479   3.427  14.382  0.00  0.00    +0.000 A 
BRANCH  16  23
ATOM     22  C   UNL     1       4.641   3.199  11.688  0.00  0.00    +0.000 C 
ATOM     23  O   UNL     1       5.937   3.708  11.985  0.00  0.00    +0.000 OA
ENDBRANCH  16  23
ENDBRANCH  15  19
ENDBRANCH  13  15
ENDBRANCH   1  13
TORSDOF 4
ENDMDL
MODEL 7
REMARK VINA RESULT:      -7.4      4.935      6.903
REMARK  Name = 
REMARK  5 active torsions:
REMARK  status: ('A' for Active; 'I' for Inactive)
REMARK    1  A    between atoms: C_1  and  O_2
REMARK    2  A    between atoms: O_2  and  C_3
REMARK    3  A    between atoms: C_6  and  C_7
REMARK    4  A    between atoms: C_7  and  N_8
REMARK    5  A    between atoms: N_8  and  C_9
REMARK                            x       y       z     vdW  Elec       q    Type
REMARK                         _______ _______ _______ _____ _____    ______ ____
ROOT
ATOM      1  C   UNL     1       7.512   6.958  17.883  0.00  0.00    +0.000 A 
ATOM      2  C   UNL     1       6.840   6.176  18.747  0.00  0.00    +0.000 A 
ATOM      3  C   UNL     1       5.954   5.112  18.279  0.00  0.00    +0.000 A 
ATOM      4  C   UNL     1       5.133   4.413  19.169  0.00  0.00    +0.000 A 
ATOM      5  C   UNL     1       4.264   3.427  18.695  0.00  0.00    +0.000 A 
ATOM      6  C   UNL     1       4.237   3.112  17.336  0.00  0.00    +0.000 A 
ATOM      7  C   UNL     1       5.062   3.797  16.442  0.00  0.00    +0.000 A 
ATOM      8  C   UNL     1       5.901   4.808  16.916  0.00  0.00    +0.000 A 
ATOM      9  C   UNL     1       6.708   5.632  15.985  0.00  0.00    +0.000 A 
ATOM     10  O   UNL     1       6.723   5.411  14.780  0.00  0.00    +0.000 OA
ATOM     11  N   UNL     1       7.417   6.675  16.543  0.00  0.00    +0.000 N 
ATOM     12  H   UNL     1       7.938   7.232  15.887  0.00  0.00    +0.000 HD
ENDROOT
BRANCH   1  13
ATOM     13  N   UNL     1       8.315   8.010  18.268  0.00  0.00    +0.000 N 
ATOM     14  H   UNL     1       9.296   7.758  18.324  0.00  0.00    +0.000 HD
BRANCH  13  15
ATOM     15  C   UNL     1       8.118   9.412  17.927  0.00  0.00    +0.000 C 
BRANCH  15  19
ATOM     16  C   UNL     1      11.111  12.060  19.592  0.00  0.00    +0.000 A 
ATOM     17  C   UNL     1      11.008  11.873  18.213  0.00  0.00    +0.000 A 
ATOM     18  C   UNL     1      10.052  11.003  17.683  0.00  0.00    +0.000 A 
ATOM     19  C   UNL     1       9.194  10.285  18.530  0.00  0.00    +0.000 A 
ATOM     20  C   UNL     1       9.300  10.485  19.912  0.00  0.00    +0.000 A 
ATOM     21  C   UNL     1      10.258  11.358  20.442  0.00  0.00    +0.000 A 
BRANCH  16  23
ATOM     22  C   UNL     1      11.928  14.281  19.578  0.00  0.00    +0.000 C 
ATOM     23  O   UNL     1      12.092  12.927  19.985  0.00  0.00    +0.000 OA
ENDBRANCH  16  23
ENDBRANCH  15  19
ENDBRANCH  13  15
ENDBRANCH   1  13
TORSDOF 4
ENDMDL
MODEL 8
REMARK VINA RESULT:      -7.4      2.576      3.650
REMARK  Name = 
REMARK  5 active torsions:
REMARK  status: ('A' for Active; 'I' for Inactive)
REMARK    1  A    between atoms: C_1  and  O_2
REMARK    2  A    between atoms: O_2  and  C_3
REMARK    3  A    between atoms: C_6  and  C_7
REMARK    4  A    between atoms: C_7  and  N_8
REMARK    5  A    between atoms: N_8  and  C_9
REMARK                            x       y       z     vdW  Elec       q    Type
REMARK                         _______ _______ _______ _____ _____    ______ ____
ROOT
ATOM      1  C   UNL     1       4.254   3.184  17.477  0.00  0.00    +0.000 A 
ATOM      2  C   UNL     1       4.304   2.718  18.738  0.00  0.00    +0.000 A 
ATOM      3  C   UNL     1       3.162   2.843  19.642  0.00  0.00    +0.000 A 
ATOM      4  C   UNL     1       3.273   2.510  20.995  0.00  0.00    +0.000 A 
ATOM      5  C   UNL     1       2.179   2.676  21.849  0.00  0.00    +0.000 A 
ATOM      6  C   UNL     1       0.963   3.143  21.349  0.00  0.00    +0.000 A 
ATOM      7  C   UNL     1       0.841   3.467  19.996  0.00  0.00    +0.000 A 
ATOM      8  C   UNL     1       1.949   3.335  19.154  0.00  0.00    +0.000 A 
ATOM      9  C   UNL     1       1.890   3.774  17.739  0.00  0.00    +0.000 A 
ATOM     10  O   UNL     1       0.854   4.199  17.241  0.00  0.00    +0.000 OA
ATOM     11  N   UNL     1       3.067   3.703  17.024  0.00  0.00    +0.000 N 
ATOM     12  H   UNL     1       3.005   4.028  16.074  0.00  0.00    +0.000 HD
ENDROOT
BRANCH   1  13
ATOM     13  N   UNL     1       5.319   3.142  16.603  0.00  0.00    +0.000 N 
ATOM     14  H   UNL     1       5.411   2.246  16.136  0.00  0.00    +0.000 HD
BRANCH  13  15
ATOM     15  C   UNL     1       5.809   4.247  15.792  0.00  0.00    +0.000 C 
BRANCH  15  19
ATOM     16  C   UNL     1       7.913   7.205  18.152  0.00  0.00    +0.000 A 
ATOM     17  C   UNL     1       8.015   5.846  18.451  0.00  0.00    +0.000 A 
ATOM     18  C   UNL     1       7.319   4.898  17.697  0.00  0.00    +0.000 A 
ATOM     19  C   UNL     1       6.488   5.298  16.641  0.00  0.00    +0.000 A 
ATOM     20  C   UNL     1       6.396   6.664  16.343  0.00  0.00    +0.000 A 
ATOM     21  C   UNL     1       7.096   7.613  17.099  0.00  0.00    +0.000 A 
BRANCH  16  23
ATOM     22  C   UNL     1       8.674   9.403  18.589  0.00  0.00    +0.000 C 
ATOM     23  O   UNL     1       8.632   8.032  18.969  0.00  0.00    +0.000 OA
ENDBRANCH  16  23
ENDBRANCH  15  19
ENDBRANCH  13  15
ENDBRANCH   1  13
TORSDOF 4
ENDMDL
MODEL 9
REMARK VINA RESULT:      -7.3      4.612      7.921
REMARK  Name = 
REMARK  5 active torsions:
REMARK  status: ('A' for Active; 'I' for Inactive)
REMARK    1  A    between atoms: C_1  and  O_2
REMARK    2  A    between atoms: O_2  and  C_3
REMARK    3  A    between atoms: C_6  and  C_7
REMARK    4  A    between atoms: C_7  and  N_8
REMARK    5  A    between atoms: N_8  and  C_9
REMARK                            x       y       z     vdW  Elec       q    Type
REMARK                         _______ _______ _______ _____ _____    ______ ____
ROOT
ATOM      1  C   UNL     1       2.114   6.341  20.406  0.00  0.00    +0.000 A 
ATOM      2  C   UNL     1       2.172   5.959  19.117  0.00  0.00    +0.000 A 
ATOM      3  C   UNL     1       2.368   4.558  18.746  0.00  0.00    +0.000 A 
ATOM      4  C   UNL     1       2.594   4.188  17.417  0.00  0.00    +0.000 A 
ATOM      5  C   UNL     1       2.819   2.848  17.091  0.00  0.00    +0.000 A 
ATOM      6  C   UNL     1       2.787   1.870  18.086  0.00  0.00    +0.000 A 
ATOM      7  C   UNL     1       2.551   2.229  19.414  0.00  0.00    +0.000 A 
ATOM      8  C   UNL     1       2.364   3.576  19.740  0.00  0.00    +0.000 A 
ATOM      9  C   UNL     1       2.222   4.009  21.150  0.00  0.00    +0.000 A 
ATOM     10  O   UNL     1       2.193   3.200  22.071  0.00  0.00    +0.000 OA
ATOM     11  N   UNL     1       2.154   5.367  21.373  0.00  0.00    +0.000 N 
ATOM     12  H   UNL     1       2.081   5.635  22.340  0.00  0.00    +0.000 HD
ENDROOT
BRANCH   1  13
ATOM     13  N   UNL     1       1.987   7.652  20.810  0.00  0.00    +0.000 N 
ATOM     14  H   UNL     1       2.803   7.993  21.307  0.00  0.00    +0.000 HD
BRANCH  13  15
ATOM     15  C   UNL     1       1.291   8.709  20.090  0.00  0.00    +0.000 C 
BRANCH  15  19
ATOM     16  C   UNL     1      -1.101  11.216  22.685  0.00  0.00    +0.000 A 
ATOM     17  C   UNL     1      -0.795  11.618  21.385  0.00  0.00    +0.000 A 
ATOM     18  C   UNL     1      -0.008  10.813  20.558  0.00  0.00    +0.000 A 
ATOM     19  C   UNL     1       0.508   9.597  21.030  0.00  0.00    +0.000 A 
ATOM     20  C   UNL     1       0.191   9.198  22.335  0.00  0.00    +0.000 A 
ATOM     21  C   UNL     1      -0.600  10.006  23.161  0.00  0.00    +0.000 A 
BRANCH  16  23
ATOM     22  C   UNL     1      -3.159  12.372  22.860  0.00  0.00    +0.000 C 
ATOM     23  O   UNL     1      -1.869  12.096  23.396  0.00  0.00    +0.000 OA
ENDBRANCH  16  23
ENDBRANCH  15  19
ENDBRANCH  13  15
ENDBRANCH   1  13
TORSDOF 4
ENDMDL
