MODEL 1
REMARK VINA RESULT:      -6.8      0.000      0.000
REMARK  Name = 
REMARK  5 active torsions:
REMARK  status: ('A' for Active; 'I' for Inactive)
REMARK    1  A    between atoms: C_2  and  C_13
REMARK    2  A    between atoms: N_3  and  N_4
REMARK    3  A    between atoms: C_5  and  C_6
REMARK    4  A    between atoms: C_9  and  O_10
REMARK    5  A    between atoms: C_16  and  O_17
REMARK                            x       y       z     vdW  Elec       q    Type
REMARK                         _______ _______ _______ _____ _____    ______ ____
ROOT
ATOM      1  O   UNL     1       8.141   5.844  19.347  0.00  0.00    +0.000 OA
ATOM      2  C   UNL     1       7.349   6.266  18.504  0.00  0.00    +0.000 C 
ATOM      3  N   UNL     1       7.438   7.502  17.875  0.00  0.00    +0.000 N 
ATOM      4  H   UNL     1       6.694   7.859  17.290  0.00  0.00    +0.000 HD
ENDROOT
BRANCH   2   5
ATOM      5  C   UNL     1       6.188   5.412  18.142  0.00  0.00    +0.000 A 
ATOM      6  C   UNL     1       5.930   5.198  16.779  0.00  0.00    +0.000 A 
ATOM      7  C   UNL     1       4.825   4.446  16.374  0.00  0.00    +0.000 A 
ATOM      8  C   UNL     1       3.975   3.920  17.339  0.00  0.00    +0.000 A 
ATOM      9  C   UNL     1       4.210   4.133  18.695  0.00  0.00    +0.000 A 
ATOM     10  C   UNL     1       5.319   4.881  19.103  0.00  0.00    +0.000 A 
BRANCH   8  11
ATOM     11  O   UNL     1       2.875   3.191  16.991  0.00  0.00    +0.000 OA
ATOM     12  H   UNL     1       3.090   2.658  16.206  0.00  0.00    +0.000 HD
ENDBRANCH   8  11
ENDBRANCH   2   5
BRANCH   3  13
ATOM     13  N   UNL     1       8.469   8.318  18.229  0.00  0.00    +0.000 NA
ATOM     14  C   UNL     1       8.274   9.594  18.228  0.00  0.00    +0.000 C 
BRANCH  14  15
ATOM     15  C   UNL     1       9.363  10.503  18.654  0.00  0.00    +0.000 A 
ATOM     16  C   UNL     1       9.537  10.788  20.016  0.00  0.00    +0.000 A 
ATOM     17  C   UNL     1      10.519  11.691  20.427  0.00  0.00    +0.000 A 
ATOM     18  C   UNL     1      11.318  12.304  19.469  0.00  0.00    +0.000 A 
ATOM     19  C   UNL     1      11.169  12.011  18.116  0.00  0.00    +0.000 A 
ATOM     20  C   UNL     1      10.189  11.104  17.702  0.00  0.00    +0.000 A 
BRANCH  18  21
ATOM     21  O   UNL     1      12.267  13.218  19.823  0.00  0.00    +0.000 OA
ATOM     22  H   UNL     1      11.974  13.668  20.634  0.00  0.00    +0.000 HD
ENDBRANCH  18  21
ENDBRANCH  14  15
ENDBRANCH   3  13
TORSDOF 5
ENDMDL
MODEL 2
REMARK VINA RESULT:      -6.8      2.086      8.752
REMARK  Name = 
REMARK  5 active torsions:
REMARK  status: ('A' for Active; 'I' for Inactive)
REMARK    1  A    between atoms: C_2  and  C_13
REMARK    2  A    between atoms: N_3  and  N_4
REMARK    3  A    between atoms: C_5  and  C_6
REMARK    4  A    between atoms: C_9  and  O_10
REMARK    5  A    between atoms: C_16  and  O_17
REMARK                            x       y       z     vdW  Elec       q    Type
REMARK                         _______ _______ _______ _____ _____    ______ ____
ROOT
ATOM      1  O   UNL     1      10.048  10.749  19.736  0.00  0.00    +0.000 OA
ATOM      2  C   UNL     1       9.707  11.121  18.614  0.00  0.00    +0.000 C 
ATOM      3  N   UNL     1       8.856  10.422  17.766  0.00  0.00    +0.000 N 
ATOM      4  H   UNL     1       8.712  10.700  16.805  0.00  0.00    +0.000 HD
ENDROOT
BRANCH   2   5
ATOM      5  C   UNL     1      10.266  12.398  18.097  0.00  0.00    +0.000 A 
ATOM      6  C   UNL     1      11.493  12.350  17.418  0.00  0.00    +0.000 A 
ATOM      7  C   UNL     1      12.093  13.522  16.951  0.00  0.00    +0.000 A 
ATOM      8  C   UNL     1      11.466  14.740  17.179  0.00  0.00    +0.000 A 
ATOM      9  C   UNL     1      10.254  14.806  17.862  0.00  0.00    +0.000 A 
ATOM     10  C   UNL     1       9.648  13.633  18.325  0.00  0.00    +0.000 A 
BRANCH   8  11
ATOM     11  O   UNL     1      12.021  15.912  16.755  0.00  0.00    +0.000 OA
ATOM     12  H   UNL     1      12.410  16.368  17.520  0.00  0.00    +0.000 HD
ENDBRANCH   8  11
ENDBRANCH   2   5
BRANCH   3  13
ATOM     13  N   UNL     1       8.372   9.226  18.203  0.00  0.00    +0.000 NA
ATOM     14  C   UNL     1       7.720   8.485  17.371  0.00  0.00    +0.000 C 
BRANCH  14  15
ATOM     15  C   UNL     1       7.223   7.158  17.805  0.00  0.00    +0.000 A 
ATOM     16  C   UNL     1       6.029   6.655  17.271  0.00  0.00    +0.000 A 
ATOM     17  C   UNL     1       5.515   5.436  17.717  0.00  0.00    +0.000 A 
ATOM     18  C   UNL     1       6.204   4.730  18.696  0.00  0.00    +0.000 A 
ATOM     19  C   UNL     1       7.402   5.210  19.218  0.00  0.00    +0.000 A 
ATOM     20  C   UNL     1       7.921   6.428  18.770  0.00  0.00    +0.000 A 
BRANCH  18  21
ATOM     21  O   UNL     1       5.721   3.552  19.185  0.00  0.00    +0.000 OA
ATOM     22  H   UNL     1       5.818   3.556  20.153  0.00  0.00    +0.000 HD
ENDBRANCH  18  21
ENDBRANCH  14  15
ENDBRANCH   3  13
TORSDOF 5
ENDMDL
MODEL 3
REMARK VINA RESULT:      -6.7      7.163     10.116
REMARK  Name = 
REMARK  5 active torsions:
REMARK  status: ('A' for Active; 'I' for Inactive)
REMARK    1  A    between atoms: C_2  and  C_13
REMARK    2  A    between atoms: N_3  and  N_4
REMARK    3  A    between atoms: C_5  and  C_6
REMARK    4  A    between atoms: C_9  and  O_10
REMARK    5  A    between atoms: C_16  and  O_17
REMARK                            x       y       z     vdW  Elec       q    Type
REMARK                         _______ _______ _______ _____ _____    ______ ____
ROOT
ATOM      1  O   UNL     1       1.564   8.724  19.368  0.00  0.00    +0.000 OA
ATOM      2  C   UNL     1       1.211   8.533  20.531  0.00  0.00    +0.000 C 
ATOM      3  N   UNL     1       1.418   7.358  21.244  0.00  0.00    +0.000 N 
ATOM      4  H   UNL     1       0.994   7.199  22.148  0.00  0.00    +0.000 HD
ENDROOT
BRANCH   2   5
ATOM      5  C   UNL     1       0.479   9.620  21.231  0.00  0.00    +0.000 A 
ATOM      6  C   UNL     1       0.577  10.919  20.709  0.00  0.00    +0.000 A 
ATOM      7  C   UNL     1      -0.049  11.991  21.349  0.00  0.00    +0.000 A 
ATOM      8  C   UNL     1      -0.761  11.759  22.518  0.00  0.00    +0.000 A 
ATOM      9  C   UNL     1      -0.859  10.478  23.055  0.00  0.00    +0.000 A 
ATOM     10  C   UNL     1      -0.238   9.401  22.413  0.00  0.00    +0.000 A 
BRANCH   8  11
ATOM     11  O   UNL     1      -1.378  12.777  23.185  0.00  0.00    +0.000 OA
ATOM     12  H   UNL     1      -0.718  13.238  23.730  0.00  0.00    +0.000 HD
ENDBRANCH   8  11
ENDBRANCH   2   5
BRANCH   3  13
ATOM     13  N   UNL     1       2.046   6.333  20.603  0.00  0.00    +0.000 NA
ATOM     14  C   UNL     1       1.529   5.152  20.677  0.00  0.00    +0.000 C 
BRANCH  14  15
ATOM     15  C   UNL     1       2.164   4.027  19.951  0.00  0.00    +0.000 A 
ATOM     16  C   UNL     1       1.373   2.967  19.486  0.00  0.00    +0.000 A 
ATOM     17  C   UNL     1       1.965   1.871  18.857  0.00  0.00    +0.000 A 
ATOM     18  C   UNL     1       3.346   1.845  18.698  0.00  0.00    +0.000 A 
ATOM     19  C   UNL     1       4.138   2.903  19.136  0.00  0.00    +0.000 A 
ATOM     20  C   UNL     1       3.547   4.005  19.763  0.00  0.00    +0.000 A 
BRANCH  18  21
ATOM     21  O   UNL     1       3.969   0.779  18.119  0.00  0.00    +0.000 OA
ATOM     22  H   UNL     1       4.837   1.069  17.791  0.00  0.00    +0.000 HD
ENDBRANCH  18  21
ENDBRANCH  14  15
ENDBRANCH   3  13
TORSDOF 5
ENDMDL
MODEL 4
REMARK VINA RESULT:      -6.7      6.310      7.923
REMARK  Name = 
REMARK  5 active torsions:
REMARK  status: ('A' for Active; 'I' for Inactive)
REMARK    1  A    between atoms: C_2  and  C_13
REMARK    2  A    between atoms: N_3  and  N_4
REMARK    3  A    between atoms: C_5  and  C_6
REMARK    4  A    between atoms: C_9  and  O_10
REMARK    5  A    between atoms: C_16  and  O_17
REMARK                            x       y       z     vdW  Elec       q    Type
REMARK                         _______ _______ _______ _____ _____    ______ ____
ROOT
ATOM      1  O   UNL     1       2.782   8.512  17.280  0.00  0.00    +0.000 OA
ATOM      2  C   UNL     1       2.888   7.509  17.985  0.00  0.00    +0.000 C 
ATOM      3  N   UNL     1       2.301   7.347  19.234  0.00  0.00    +0.000 N 
ATOM      4  H   UNL     1       2.525   6.563  19.832  0.00  0.00    +0.000 HD
ENDROOT
BRANCH   2   5
ATOM      5  C   UNL     1       3.728   6.388  17.489  0.00  0.00    +0.000 A 
ATOM      6  C   UNL     1       4.746   6.687  16.570  0.00  0.00    +0.000 A 
ATOM      7  C   UNL     1       5.538   5.671  16.032  0.00  0.00    +0.000 A 
ATOM      8  C   UNL     1       5.299   4.355  16.407  0.00  0.00    +0.000 A 
ATOM      9  C   UNL     1       4.285   4.040  17.309  0.00  0.00    +0.000 A 
ATOM     10  C   UNL     1       3.495   5.057  17.855  0.00  0.00    +0.000 A 
BRANCH   8  11
ATOM     11  O   UNL     1       6.038   3.328  15.896  0.00  0.00    +0.000 OA
ATOM     12  H   UNL     1       5.433   2.664  15.525  0.00  0.00    +0.000 HD
ENDBRANCH   8  11
ENDBRANCH   2   5
BRANCH   3  13
ATOM     13  N   UNL     1       1.567   8.383  19.726  0.00  0.00    +0.000 NA
ATOM     14  C   UNL     1       1.218   8.356  20.969  0.00  0.00    +0.000 C 
BRANCH  14  15
ATOM     15  C   UNL     1       0.458   9.491  21.542  0.00  0.00    +0.000 A 
ATOM     16  C   UNL     1       0.581  10.767  20.972  0.00  0.00    +0.000 A 
ATOM     17  C   UNL     1      -0.079  11.858  21.540  0.00  0.00    +0.000 A 
ATOM     18  C   UNL     1      -0.856  11.663  22.676  0.00  0.00    +0.000 A 
ATOM     19  C   UNL     1      -1.002  10.397  23.236  0.00  0.00    +0.000 A 
ATOM     20  C   UNL     1      -0.346   9.301  22.667  0.00  0.00    +0.000 A 
BRANCH  18  21
ATOM     21  O   UNL     1      -1.491  12.707  23.283  0.00  0.00    +0.000 OA
ATOM     22  H   UNL     1      -1.617  13.414  22.628  0.00  0.00    +0.000 HD
ENDBRANCH  18  21
ENDBRANCH  14  15
ENDBRANCH   3  13
TORSDOF 5
ENDMDL
MODEL 5
REMARK VINA RESULT:      -6.7      7.188     10.129
REMARK  Name = 
REMARK  5 active torsions:
REMARK  status: ('A' for Active; 'I' for Inactive)
REMARK    1  A    between atoms: C_2  and  C_13
REMARK    2  A    between atoms: N_3  and  N_4
REMARK    3  A    between atoms: C_5  and  C_6
REMARK    4  A    between atoms: C_9  and  O_10
REMARK    5  A    between atoms: C_16  and  O_17
REMARK                            x       y       z     vdW  Elec       q    Type
REMARK                         _______ _______ _______ _____ _____    ______ ____
ROOT
ATOM      1  O   UNL     1       1.727   8.755  19.350  0.00  0.00    +0.000 OA
ATOM      2  C   UNL     1       1.294   8.505  20.474  0.00  0.00    +0.000 C 
ATOM      3  N   UNL     1       1.422   7.282  21.124  0.00  0.00    +0.000 N 
ATOM      4  H   UNL     1       0.936   7.082  21.987  0.00  0.00    +0.000 HD
ENDROOT
BRANCH   2   5
ATOM      5  C   UNL     1       0.548   9.570  21.194  0.00  0.00    +0.000 A 
ATOM      6  C   UNL     1      -0.021   9.248  22.436  0.00  0.00    +0.000 A 
ATOM      7  C   UNL     1      -0.774  10.192  23.138  0.00  0.00    +0.000 A 
ATOM      8  C   UNL     1      -0.966  11.451  22.585  0.00  0.00    +0.000 A 
ATOM      9  C   UNL     1      -0.419  11.782  21.348  0.00  0.00    +0.000 A 
ATOM     10  C   UNL     1       0.341  10.841  20.646  0.00  0.00    +0.000 A 
BRANCH   8  11
ATOM     11  O   UNL     1      -1.707  12.400  23.228  0.00  0.00    +0.000 OA
ATOM     12  H   UNL     1      -1.354  12.517  24.125  0.00  0.00    +0.000 HD
ENDBRANCH   8  11
ENDBRANCH   2   5
BRANCH   3  13
ATOM     13  N   UNL     1       2.061   6.279  20.460  0.00  0.00    +0.000 NA
ATOM     14  C   UNL     1       1.635   5.070  20.614  0.00  0.00    +0.000 C 
BRANCH  14  15
ATOM     15  C   UNL     1       2.281   3.965  19.868  0.00  0.00    +0.000 A 
ATOM     16  C   UNL     1       1.604   3.359  18.800  0.00  0.00    +0.000 A 
ATOM     17  C   UNL     1       2.173   2.275  18.129  0.00  0.00    +0.000 A 
ATOM     18  C   UNL     1       3.418   1.807  18.534  0.00  0.00    +0.000 A 
ATOM     19  C   UNL     1       4.109   2.415  19.579  0.00  0.00    +0.000 A 
ATOM     20  C   UNL     1       3.542   3.503  20.250  0.00  0.00    +0.000 A 
BRANCH  18  21
ATOM     21  O   UNL     1       3.996   0.730  17.929  0.00  0.00    +0.000 OA
ATOM     22  H   UNL     1       4.673   0.366  18.526  0.00  0.00    +0.000 HD
ENDBRANCH  18  21
ENDBRANCH  14  15
ENDBRANCH   3  13
TORSDOF 5
ENDMDL
MODEL 6
REMARK VINA RESULT:      -6.7      7.092      7.895
REMARK  Name = 
REMARK  5 active torsions:
REMARK  status: ('A' for Active; 'I' for Inactive)
REMARK    1  A    between atoms: C_2  and  C_13
REMARK    2  A    between atoms: N_3  and  N_4
REMARK    3  A    between atoms: C_5  and  C_6
REMARK    4  A    between atoms: C_9  and  O_10
REMARK    5  A    between atoms: C_16  and  O_17
REMARK                            x       y       z     vdW  Elec       q    Type
REMARK                         _______ _______ _______ _____ _____    ______ ____
ROOT
ATOM      1  O   UNL     1       2.291   6.688  18.134  0.00  0.00    +0.000 OA
ATOM      2  C   UNL     1       2.337   5.935  19.107  0.00  0.00    +0.000 C 
ATOM      3  N   UNL     1       2.066   6.309  20.417  0.00  0.00    +0.000 N 
ATOM      4  H   UNL     1       2.246   5.692  21.198  0.00  0.00    +0.000 HD
ENDROOT
BRANCH   2   5
ATOM      5  C   UNL     1       2.743   4.523  18.883  0.00  0.00    +0.000 A 
ATOM      6  C   UNL     1       3.924   4.075  19.496  0.00  0.00    +0.000 A 
ATOM      7  C   UNL     1       4.384   2.773  19.286  0.00  0.00    +0.000 A 
ATOM      8  C   UNL     1       3.664   1.928  18.450  0.00  0.00    +0.000 A 
ATOM      9  C   UNL     1       2.497   2.361  17.826  0.00  0.00    +0.000 A 
ATOM     10  C   UNL     1       2.031   3.663  18.039  0.00  0.00    +0.000 A 
BRANCH   8  11
ATOM     11  O   UNL     1       4.083   0.653  18.204  0.00  0.00    +0.000 OA
ATOM     12  H   UNL     1       3.623   0.051  18.812  0.00  0.00    +0.000 HD
ENDBRANCH   8  11
ENDBRANCH   2   5
BRANCH   3  13
ATOM     13  N   UNL     1       1.738   7.611  20.648  0.00  0.00    +0.000 NA
ATOM     14  C   UNL     1       0.659   7.867  21.308  0.00  0.00    +0.000 C 
BRANCH  14  15
ATOM     15  C   UNL     1       0.302   9.272  21.614  0.00  0.00    +0.000 A 
ATOM     16  C   UNL     1      -0.423   9.567  22.777  0.00  0.00    +0.000 A 
ATOM     17  C   UNL     1      -0.820  10.877  23.047  0.00  0.00    +0.000 A 
ATOM     18  C   UNL     1      -0.487  11.884  22.147  0.00  0.00    +0.000 A 
ATOM     19  C   UNL     1       0.252  11.606  21.000  0.00  0.00    +0.000 A 
ATOM     20  C   UNL     1       0.654  10.294  20.730  0.00  0.00    +0.000 A 
BRANCH  18  21
ATOM     21  O   UNL     1      -0.884  13.172  22.354  0.00  0.00    +0.000 OA
ATOM     22  H   UNL     1      -0.640  13.429  23.260  0.00  0.00    +0.000 HD
ENDBRANCH  18  21
ENDBRANCH  14  15
ENDBRANCH   3  13
TORSDOF 5
ENDMDL
MODEL 7
REMARK VINA RESULT:      -6.7      5.986      8.175
REMARK  Name = 
REMARK  5 active torsions:
REMARK  status: ('A' for Active; 'I' for Inactive)
REMARK    1  A    between atoms: C_2  and  C_13
REMARK    2  A    between atoms: N_3  and  N_4
REMARK    3  A    between atoms: C_5  and  C_6
REMARK    4  A    between atoms: C_9  and  O_10
REMARK    5  A    between atoms: C_16  and  O_17
REMARK                            x       y       z     vdW  Elec       q    Type
REMARK                         _______ _______ _______ _____ _____    ______ ____
ROOT
ATOM      1  O   UNL     1       2.136   5.771  18.020  0.00  0.00    +0.000 OA
ATOM      2  C   UNL     1       3.103   6.523  17.898  0.00  0.00    +0.000 C 
ATOM      3  N   UNL     1       3.026   7.905  17.766  0.00  0.00    +0.000 N 
ATOM      4  H   UNL     1       3.835   8.466  17.535  0.00  0.00    +0.000 HD
ENDROOT
BRANCH   2   5
ATOM      5  C   UNL     1       4.461   5.921  17.856  0.00  0.00    +0.000 A 
ATOM      6  C   UNL     1       5.043   5.701  16.598  0.00  0.00    +0.000 A 
ATOM      7  C   UNL     1       6.297   5.095  16.491  0.00  0.00    +0.000 A 
ATOM      8  C   UNL     1       6.957   4.699  17.647  0.00  0.00    +0.000 A 
ATOM      9  C   UNL     1       6.388   4.899  18.902  0.00  0.00    +0.000 A 
ATOM     10  C   UNL     1       5.136   5.511  19.012  0.00  0.00    +0.000 A 
BRANCH   8  11
ATOM     11  O   UNL     1       8.177   4.090  17.591  0.00  0.00    +0.000 OA
ATOM     12  H   UNL     1       8.047   3.148  17.387  0.00  0.00    +0.000 HD
ENDBRANCH   8  11
ENDBRANCH   2   5
BRANCH   3  13
ATOM     13  N   UNL     1       1.787   8.470  17.753  0.00  0.00    +0.000 NA
ATOM     14  C   UNL     1       1.597   9.552  18.431  0.00  0.00    +0.000 C 
BRANCH  14  15
ATOM     15  C   UNL     1       0.272  10.214  18.399  0.00  0.00    +0.000 A 
ATOM     16  C   UNL     1      -0.788   9.613  17.705  0.00  0.00    +0.000 A 
ATOM     17  C   UNL     1      -2.024  10.255  17.613  0.00  0.00    +0.000 A 
ATOM     18  C   UNL     1      -2.188  11.497  18.216  0.00  0.00    +0.000 A 
ATOM     19  C   UNL     1      -1.149  12.093  18.926  0.00  0.00    +0.000 A 
ATOM     20  C   UNL     1       0.089  11.449  19.024  0.00  0.00    +0.000 A 
BRANCH  18  21
ATOM     21  O   UNL     1      -3.368  12.175  18.122  0.00  0.00    +0.000 OA
ATOM     22  H   UNL     1      -3.704  12.086  17.214  0.00  0.00    +0.000 HD
ENDBRANCH  18  21
ENDBRANCH  14  15
ENDBRANCH   3  13
TORSDOF 5
ENDMDL
MODEL 8
REMARK VINA RESULT:      -6.6      6.051      8.083
REMARK  Name = 
REMARK  5 active torsions:
REMARK  status: ('A' for Active; 'I' for Inactive)
REMARK    1  A    between atoms: C_2  and  C_13
REMARK    2  A    between atoms: N_3  and  N_4
REMARK    3  A    between atoms: C_5  and  C_6
REMARK    4  A    between atoms: C_9  and  O_10
REMARK    5  A    between atoms: C_16  and  O_17
REMARK                            x       y       z     vdW  Elec       q    Type
REMARK                         _______ _______ _______ _____ _____    ______ ____
ROOT
ATOM      1  O   UNL     1       2.154   5.907  18.194  0.00  0.00    +0.000 OA
ATOM      2  C   UNL     1       3.107   6.635  17.915  0.00  0.00    +0.000 C 
ATOM      3  N   UNL     1       3.025   8.004  17.690  0.00  0.00    +0.000 N 
ATOM      4  H   UNL     1       3.809   8.535  17.333  0.00  0.00    +0.000 HD
ENDROOT
BRANCH   2   5
ATOM      5  C   UNL     1       4.449   6.012  17.774  0.00  0.00    +0.000 A 
ATOM      6  C   UNL     1       4.991   5.905  16.484  0.00  0.00    +0.000 A 
ATOM      7  C   UNL     1       6.226   5.287  16.280  0.00  0.00    +0.000 A 
ATOM      8  C   UNL     1       6.909   4.765  17.372  0.00  0.00    +0.000 A 
ATOM      9  C   UNL     1       6.380   4.852  18.657  0.00  0.00    +0.000 A 
ATOM     10  C   UNL     1       5.146   5.476  18.864  0.00  0.00    +0.000 A 
BRANCH   8  11
ATOM     11  O   UNL     1       8.112   4.139  17.220  0.00  0.00    +0.000 OA
ATOM     12  H   UNL     1       8.391   4.219  16.292  0.00  0.00    +0.000 HD
ENDBRANCH   8  11
ENDBRANCH   2   5
BRANCH   3  13
ATOM     13  N   UNL     1       1.796   8.584  17.767  0.00  0.00    +0.000 NA
ATOM     14  C   UNL     1       1.706   9.775  18.258  0.00  0.00    +0.000 C 
BRANCH  14  15
ATOM     15  C   UNL     1       0.388  10.449  18.311  0.00  0.00    +0.000 A 
ATOM     16  C   UNL     1       0.282  11.722  18.888  0.00  0.00    +0.000 A 
ATOM     17  C   UNL     1      -0.963  12.343  19.002  0.00  0.00    +0.000 A 
ATOM     18  C   UNL     1      -2.094  11.681  18.537  0.00  0.00    +0.000 A 
ATOM     19  C   UNL     1      -1.997  10.426  17.942  0.00  0.00    +0.000 A 
ATOM     20  C   UNL     1      -0.750   9.804  17.823  0.00  0.00    +0.000 A 
BRANCH  18  21
ATOM     21  O   UNL     1      -3.334  12.236  18.659  0.00  0.00    +0.000 OA
ATOM     22  H   UNL     1      -3.231  13.176  18.885  0.00  0.00    +0.000 HD
ENDBRANCH  18  21
ENDBRANCH  14  15
ENDBRANCH   3  13
TORSDOF 5
ENDMDL
MODEL 9
REMARK VINA RESULT:      -6.6      6.854      7.913
REMARK  Name = 
REMARK  5 active torsions:
REMARK  status: ('A' for Active; 'I' for Inactive)
REMARK    1  A    between atoms: C_2  and  C_13
REMARK    2  A    between atoms: N_3  and  N_4
REMARK    3  A    between atoms: C_5  and  C_6
REMARK    4  A    between atoms: C_9  and  O_10
REMARK    5  A    between atoms: C_16  and  O_17
REMARK                            x       y       z     vdW  Elec       q    Type
REMARK                         _______ _______ _______ _____ _____    ______ ____
ROOT
ATOM      1  O   UNL     1       2.208   7.288  18.084  0.00  0.00    +0.000 OA
ATOM      2  C   UNL     1       2.387   6.531  19.038  0.00  0.00    +0.000 C 
ATOM      3  N   UNL     1       2.172   6.863  20.371  0.00  0.00    +0.000 N 
ATOM      4  H   UNL     1       2.460   6.255  21.126  0.00  0.00    +0.000 HD
ENDROOT
BRANCH   2   5
ATOM      5  C   UNL     1       2.902   5.164  18.763  0.00  0.00    +0.000 A 
ATOM      6  C   UNL     1       2.283   4.422  17.744  0.00  0.00    +0.000 A 
ATOM      7  C   UNL     1       2.690   3.115  17.470  0.00  0.00    +0.000 A 
ATOM      8  C   UNL     1       3.707   2.550  18.228  0.00  0.00    +0.000 A 
ATOM      9  C   UNL     1       4.324   3.268  19.250  0.00  0.00    +0.000 A 
ATOM     10  C   UNL     1       3.923   4.580  19.522  0.00  0.00    +0.000 A 
BRANCH   8  11
ATOM     11  O   UNL     1       4.128   1.271  18.006  0.00  0.00    +0.000 OA
ATOM     12  H   UNL     1       3.390   0.665  18.183  0.00  0.00    +0.000 HD
ENDBRANCH   8  11
ENDBRANCH   2   5
BRANCH   3  13
ATOM     13  N   UNL     1       1.746   8.126  20.646  0.00  0.00    +0.000 NA
ATOM     14  C   UNL     1       0.698   8.276  21.385  0.00  0.00    +0.000 C 
BRANCH  14  15
ATOM     15  C   UNL     1       0.240   9.640  21.739  0.00  0.00    +0.000 A 
ATOM     16  C   UNL     1      -0.640   9.818  22.816  0.00  0.00    +0.000 A 
ATOM     17  C   UNL     1      -1.130  11.088  23.122  0.00  0.00    +0.000 A 
ATOM     18  C   UNL     1      -0.735  12.172  22.346  0.00  0.00    +0.000 A 
ATOM     19  C   UNL     1       0.157  12.009  21.289  0.00  0.00    +0.000 A 
ATOM     20  C   UNL     1       0.652  10.738  20.982  0.00  0.00    +0.000 A 
BRANCH  18  21
ATOM     21  O   UNL     1      -1.215  13.425  22.589  0.00  0.00    +0.000 OA
ATOM     22  H   UNL     1      -0.517  13.944  23.025  0.00  0.00    +0.000 HD
ENDBRANCH  18  21
ENDBRANCH  14  15
ENDBRANCH   3  13
TORSDOF 5
ENDMDL
