MODEL 1
REMARK VINA RESULT:      -7.6      0.000      0.000
REMARK  Name = 
REMARK  13 active torsions:
REMARK  status: ('A' for Active; 'I' for Inactive)
REMARK    1  A    between atoms: C_1  and  C_2
REMARK    2  A    between atoms: C_2  and  C_3
REMARK    3  A    between atoms: C_3  and  C_4
REMARK    4  A    between atoms: C_4  and  C_5
REMARK    5  A    between atoms: C_5  and  C_6
REMARK    6  A    between atoms: C_6  and  C_7
REMARK    7  A    between atoms: C_7  and  C_8
REMARK    8  A    between atoms: C_8  and  C_9
REMARK    9  A    between atoms: C_9  and  C_10
REMARK   10  A    between atoms: C_10  and  N_11
REMARK   11  A    between atoms: C_19  and  O_20
REMARK   12  A    between atoms: C_19  and  C_21
REMARK   13  A    between atoms: C_24  and  N_25
REMARK                            x       y       z     vdW  Elec       q    Type
REMARK                         _______ _______ _______ _____ _____    ______ ____
ROOT
ATOM      1  N   UNL     1       3.966   5.434  19.101  0.00  0.00    +0.000 N 
ATOM      2  C   UNL     1       2.970   4.663  19.656  0.00  0.00    +0.000 A 
ATOM      3  N   UNL     1       1.731   5.073  19.989  0.00  0.00    +0.000 NA
ATOM      4  C   UNL     1       0.885   4.109  20.434  0.00  0.00    +0.000 A 
ATOM      5  C   UNL     1       1.220   2.765  20.562  0.00  0.00    +0.000 A 
ATOM      6  C   UNL     1       2.521   2.431  20.235  0.00  0.00    +0.000 A 
ATOM      7  N   UNL     1       3.356   3.390  19.817  0.00  0.00    +0.000 N 
ATOM      8  C   UNL     1       4.741   3.178  19.439  0.00  0.00    +0.000 C 
ATOM      9  C   UNL     1       5.163   4.595  18.964  0.00  0.00    +0.000 C 
ENDROOT
BRANCH   9  10
ATOM     10  C   UNL     1       5.647   4.517  17.519  0.00  0.00    +0.000 A 
ATOM     11  C   UNL     1       4.775   4.173  16.464  0.00  0.00    +0.000 A 
ATOM     12  C   UNL     1       5.183   4.257  15.129  0.00  0.00    +0.000 A 
ATOM     13  C   UNL     1       6.522   4.560  14.839  0.00  0.00    +0.000 A 
ATOM     14  C   UNL     1       7.423   4.816  15.867  0.00  0.00    +0.000 A 
ATOM     15  C   UNL     1       6.988   4.821  17.191  0.00  0.00    +0.000 A 
BRANCH  13  16
ATOM     16  N   UNL     1       6.971   4.601  13.442  0.00  0.00    +0.000 N 
ATOM     17  O   UNL     1       6.505   3.760  12.675  0.00  0.00    +0.000 OA
ATOM     18  O   UNL     1       7.822   5.455  13.144  0.00  0.00    +0.000 OA
ENDBRANCH  13  16
ENDBRANCH   9  10
BRANCH   9  19
ATOM     19  O   UNL     1       6.194   5.111  19.787  0.00  0.00    +0.000 OA
ATOM     20  H   UNL     1       6.408   4.507  20.513  0.00  0.00    +0.000 HD
ENDBRANCH   9  19
BRANCH   1  21
ATOM     21  C   UNL     1       3.934   6.894  18.903  0.00  0.00    +0.000 C 
BRANCH  21  22
ATOM     22  C   UNL     1       3.025   7.318  17.737  0.00  0.00    +0.000 C 
BRANCH  22  23
ATOM     23  C   UNL     1       2.189   8.587  17.993  0.00  0.00    +0.000 C 
BRANCH  23  24
ATOM     24  C   UNL     1       1.617   8.576  19.421  0.00  0.00    +0.000 C 
BRANCH  24  25
ATOM     25  C   UNL     1       0.534   9.635  19.630  0.00  0.00    +0.000 C 
BRANCH  25  26
ATOM     26  C   UNL     1       0.408  10.540  18.403  0.00  0.00    +0.000 C 
BRANCH  26  27
ATOM     27  C   UNL     1      -0.952  11.232  18.372  0.00  0.00    +0.000 C 
BRANCH  27  28
ATOM     28  C   UNL     1      -2.076  10.212  18.214  0.00  0.00    +0.000 C 
BRANCH  28  30
ATOM     29  C   UNL     1      -2.710  10.955  15.907  0.00  0.00    +0.000 C 
ATOM     30  C   UNL     1      -2.229   9.791  16.756  0.00  0.00    +0.000 C 
ENDBRANCH  28  30
ENDBRANCH  27  28
ENDBRANCH  26  27
ENDBRANCH  25  26
ENDBRANCH  24  25
ENDBRANCH  23  24
ENDBRANCH  22  23
ENDBRANCH  21  22
ENDBRANCH   1  21
TORSDOF 12
ENDMDL
MODEL 2
REMARK VINA RESULT:      -7.4      0.533      1.064
REMARK  Name = 
REMARK  13 active torsions:
REMARK  status: ('A' for Active; 'I' for Inactive)
REMARK    1  A    between atoms: C_1  and  C_2
REMARK    2  A    between atoms: C_2  and  C_3
REMARK    3  A    between atoms: C_3  and  C_4
REMARK    4  A    between atoms: C_4  and  C_5
REMARK    5  A    between atoms: C_5  and  C_6
REMARK    6  A    between atoms: C_6  and  C_7
REMARK    7  A    between atoms: C_7  and  C_8
REMARK    8  A    between atoms: C_8  and  C_9
REMARK    9  A    between atoms: C_9  and  C_10
REMARK   10  A    between atoms: C_10  and  N_11
REMARK   11  A    between atoms: C_19  and  O_20
REMARK   12  A    between atoms: C_19  and  C_21
REMARK   13  A    between atoms: C_24  and  N_25
REMARK                            x       y       z     vdW  Elec       q    Type
REMARK                         _______ _______ _______ _____ _____    ______ ____
ROOT
ATOM      1  N   UNL     1       3.838   5.479  19.186  0.00  0.00    +0.000 N 
ATOM      2  C   UNL     1       2.892   4.610  19.680  0.00  0.00    +0.000 A 
ATOM      3  N   UNL     1       1.633   4.919  20.048  0.00  0.00    +0.000 NA
ATOM      4  C   UNL     1       0.848   3.875  20.416  0.00  0.00    +0.000 A 
ATOM      5  C   UNL     1       1.261   2.547  20.435  0.00  0.00    +0.000 A 
ATOM      6  C   UNL     1       2.577   2.316  20.078  0.00  0.00    +0.000 A 
ATOM      7  N   UNL     1       3.351   3.352  19.737  0.00  0.00    +0.000 N 
ATOM      8  C   UNL     1       4.744   3.253  19.340  0.00  0.00    +0.000 C 
ATOM      9  C   UNL     1       5.080   4.725  18.979  0.00  0.00    +0.000 C 
ENDROOT
BRANCH   9  10
ATOM     10  C   UNL     1       5.557   4.792  17.531  0.00  0.00    +0.000 A 
ATOM     11  C   UNL     1       6.768   5.427  17.180  0.00  0.00    +0.000 A 
ATOM     12  C   UNL     1       7.277   5.348  15.880  0.00  0.00    +0.000 A 
ATOM     13  C   UNL     1       6.507   4.740  14.877  0.00  0.00    +0.000 A 
ATOM     14  C   UNL     1       5.270   4.185  15.182  0.00  0.00    +0.000 A 
ATOM     15  C   UNL     1       4.810   4.185  16.497  0.00  0.00    +0.000 A 
BRANCH  13  16
ATOM     16  N   UNL     1       7.013   4.697  13.499  0.00  0.00    +0.000 N 
ATOM     17  O   UNL     1       6.558   3.826  12.758  0.00  0.00    +0.000 OA
ATOM     18  O   UNL     1       7.895   5.515  13.193  0.00  0.00    +0.000 OA
ENDBRANCH  13  16
ENDBRANCH   9  10
BRANCH   9  19
ATOM     19  O   UNL     1       6.085   5.233  19.838  0.00  0.00    +0.000 OA
ATOM     20  H   UNL     1       6.469   6.053  19.494  0.00  0.00    +0.000 HD
ENDBRANCH   9  19
BRANCH   1  21
ATOM     21  C   UNL     1       3.720   6.947  19.106  0.00  0.00    +0.000 C 
BRANCH  21  22
ATOM     22  C   UNL     1       2.895   7.414  17.895  0.00  0.00    +0.000 C 
BRANCH  22  23
ATOM     23  C   UNL     1       2.678   8.937  17.804  0.00  0.00    +0.000 C 
BRANCH  23  24
ATOM     24  C   UNL     1       1.182   9.276  17.929  0.00  0.00    +0.000 C 
BRANCH  24  25
ATOM     25  C   UNL     1       0.770   9.597  19.366  0.00  0.00    +0.000 C 
BRANCH  25  26
ATOM     26  C   UNL     1      -0.639  10.190  19.413  0.00  0.00    +0.000 C 
BRANCH  26  27
ATOM     27  C   UNL     1      -0.734  11.440  18.541  0.00  0.00    +0.000 C 
BRANCH  27  28
ATOM     28  C   UNL     1      -1.949  11.368  17.621  0.00  0.00    +0.000 C 
BRANCH  28  30
ATOM     29  C   UNL     1      -2.982   9.903  15.872  0.00  0.00    +0.000 C 
ATOM     30  C   UNL     1      -2.217   9.932  17.183  0.00  0.00    +0.000 C 
ENDBRANCH  28  30
ENDBRANCH  27  28
ENDBRANCH  26  27
ENDBRANCH  25  26
ENDBRANCH  24  25
ENDBRANCH  23  24
ENDBRANCH  22  23
ENDBRANCH  21  22
ENDBRANCH   1  21
TORSDOF 12
ENDMDL
MODEL 3
REMARK VINA RESULT:      -7.2      1.184      2.304
REMARK  Name = 
REMARK  13 active torsions:
REMARK  status: ('A' for Active; 'I' for Inactive)
REMARK    1  A    between atoms: C_1  and  C_2
REMARK    2  A    between atoms: C_2  and  C_3
REMARK    3  A    between atoms: C_3  and  C_4
REMARK    4  A    between atoms: C_4  and  C_5
REMARK    5  A    between atoms: C_5  and  C_6
REMARK    6  A    between atoms: C_6  and  C_7
REMARK    7  A    between atoms: C_7  and  C_8
REMARK    8  A    between atoms: C_8  and  C_9
REMARK    9  A    between atoms: C_9  and  C_10
REMARK   10  A    between atoms: C_10  and  N_11
REMARK   11  A    between atoms: C_19  and  O_20
REMARK   12  A    between atoms: C_19  and  C_21
REMARK   13  A    between atoms: C_24  and  N_25
REMARK                            x       y       z     vdW  Elec       q    Type
REMARK                         _______ _______ _______ _____ _____    ______ ____
ROOT
ATOM      1  N   UNL     1       3.978   5.356  19.135  0.00  0.00    +0.000 N 
ATOM      2  C   UNL     1       2.968   4.545  19.601  0.00  0.00    +0.000 A 
ATOM      3  N   UNL     1       1.740   4.939  19.990  0.00  0.00    +0.000 NA
ATOM      4  C   UNL     1       0.875   3.947  20.323  0.00  0.00    +0.000 A 
ATOM      5  C   UNL     1       1.181   2.590  20.286  0.00  0.00    +0.000 A 
ATOM      6  C   UNL     1       2.472   2.270  19.910  0.00  0.00    +0.000 A 
ATOM      7  N   UNL     1       3.326   3.254  19.605  0.00  0.00    +0.000 N 
ATOM      8  C   UNL     1       4.704   3.059  19.193  0.00  0.00    +0.000 C 
ATOM      9  C   UNL     1       5.155   4.514  18.888  0.00  0.00    +0.000 C 
ENDROOT
BRANCH   9  10
ATOM     10  C   UNL     1       5.630   4.600  17.441  0.00  0.00    +0.000 A 
ATOM     11  C   UNL     1       6.962   4.938  17.118  0.00  0.00    +0.000 A 
ATOM     12  C   UNL     1       7.431   4.861  15.803  0.00  0.00    +0.000 A 
ATOM     13  C   UNL     1       6.529   4.571  14.769  0.00  0.00    +0.000 A 
ATOM     14  C   UNL     1       5.191   4.321  15.054  0.00  0.00    +0.000 A 
ATOM     15  C   UNL     1       4.750   4.308  16.375  0.00  0.00    +0.000 A 
BRANCH  13  16
ATOM     16  N   UNL     1       7.003   4.538  13.379  0.00  0.00    +0.000 N 
ATOM     17  O   UNL     1       7.819   5.394  13.041  0.00  0.00    +0.000 OA
ATOM     18  O   UNL     1       6.514   3.675  12.634  0.00  0.00    +0.000 OA
ENDBRANCH  13  16
ENDBRANCH   9  10
BRANCH   9  19
ATOM     19  O   UNL     1       6.201   4.905  19.760  0.00  0.00    +0.000 OA
ATOM     20  H   UNL     1       6.484   4.174  20.329  0.00  0.00    +0.000 HD
ENDBRANCH   9  19
BRANCH   1  21
ATOM     21  C   UNL     1       3.978   6.829  19.114  0.00  0.00    +0.000 C 
BRANCH  21  22
ATOM     22  C   UNL     1       2.976   7.412  18.103  0.00  0.00    +0.000 C 
BRANCH  22  23
ATOM     23  C   UNL     1       1.859   8.277  18.718  0.00  0.00    +0.000 C 
BRANCH  23  24
ATOM     24  C   UNL     1       1.610   9.527  17.856  0.00  0.00    +0.000 C 
BRANCH  24  25
ATOM     25  C   UNL     1       0.475  10.398  18.396  0.00  0.00    +0.000 C 
BRANCH  25  26
ATOM     26  C   UNL     1       1.023  11.587  19.186  0.00  0.00    +0.000 C 
BRANCH  26  27
ATOM     27  C   UNL     1       0.609  11.505  20.653  0.00  0.00    +0.000 C 
BRANCH  27  28
ATOM     28  C   UNL     1      -0.382  10.367  20.874  0.00  0.00    +0.000 C 
BRANCH  28  30
ATOM     29  C   UNL     1       1.211   9.058  22.297  0.00  0.00    +0.000 C 
ATOM     30  C   UNL     1      -0.161   9.707  22.231  0.00  0.00    +0.000 C 
ENDBRANCH  28  30
ENDBRANCH  27  28
ENDBRANCH  26  27
ENDBRANCH  25  26
ENDBRANCH  24  25
ENDBRANCH  23  24
ENDBRANCH  22  23
ENDBRANCH  21  22
ENDBRANCH   1  21
TORSDOF 12
ENDMDL
MODEL 4
REMARK VINA RESULT:      -7.2      1.249      2.182
REMARK  Name = 
REMARK  13 active torsions:
REMARK  status: ('A' for Active; 'I' for Inactive)
REMARK    1  A    between atoms: C_1  and  C_2
REMARK    2  A    between atoms: C_2  and  C_3
REMARK    3  A    between atoms: C_3  and  C_4
REMARK    4  A    between atoms: C_4  and  C_5
REMARK    5  A    between atoms: C_5  and  C_6
REMARK    6  A    between atoms: C_6  and  C_7
REMARK    7  A    between atoms: C_7  and  C_8
REMARK    8  A    between atoms: C_8  and  C_9
REMARK    9  A    between atoms: C_9  and  C_10
REMARK   10  A    between atoms: C_10  and  N_11
REMARK   11  A    between atoms: C_19  and  O_20
REMARK   12  A    between atoms: C_19  and  C_21
REMARK   13  A    between atoms: C_24  and  N_25
REMARK                            x       y       z     vdW  Elec       q    Type
REMARK                         _______ _______ _______ _____ _____    ______ ____
ROOT
ATOM      1  N   UNL     1       4.008   5.368  19.121  0.00  0.00    +0.000 N 
ATOM      2  C   UNL     1       2.971   4.618  19.629  0.00  0.00    +0.000 A 
ATOM      3  N   UNL     1       1.747   5.067  19.966  0.00  0.00    +0.000 NA
ATOM      4  C   UNL     1       0.853   4.123  20.357  0.00  0.00    +0.000 A 
ATOM      5  C   UNL     1       1.128   2.761  20.428  0.00  0.00    +0.000 A 
ATOM      6  C   UNL     1       2.417   2.384  20.100  0.00  0.00    +0.000 A 
ATOM      7  N   UNL     1       3.298   3.323  19.737  0.00  0.00    +0.000 N 
ATOM      8  C   UNL     1       4.678   3.066  19.365  0.00  0.00    +0.000 C 
ATOM      9  C   UNL     1       5.168   4.483  18.960  0.00  0.00    +0.000 C 
ENDROOT
BRANCH   9  10
ATOM     10  C   UNL     1       5.668   4.449  17.518  0.00  0.00    +0.000 A 
ATOM     11  C   UNL     1       4.812   4.119  16.446  0.00  0.00    +0.000 A 
ATOM     12  C   UNL     1       5.232   4.243  15.118  0.00  0.00    +0.000 A 
ATOM     13  C   UNL     1       6.569   4.573  14.850  0.00  0.00    +0.000 A 
ATOM     14  C   UNL     1       7.455   4.816  15.893  0.00  0.00    +0.000 A 
ATOM     15  C   UNL     1       7.007   4.781  17.212  0.00  0.00    +0.000 A 
BRANCH  13  16
ATOM     16  N   UNL     1       7.031   4.656  13.459  0.00  0.00    +0.000 N 
ATOM     17  O   UNL     1       7.849   5.534  13.188  0.00  0.00    +0.000 OA
ATOM     18  O   UNL     1       6.531   3.861  12.647  0.00  0.00    +0.000 OA
ENDBRANCH  13  16
ENDBRANCH   9  10
BRANCH   9  19
ATOM     19  O   UNL     1       6.209   4.916  19.818  0.00  0.00    +0.000 OA
ATOM     20  H   UNL     1       5.870   5.446  20.553  0.00  0.00    +0.000 HD
ENDBRANCH   9  19
BRANCH   1  21
ATOM     21  C   UNL     1       4.042   6.835  18.989  0.00  0.00    +0.000 C 
BRANCH  21  22
ATOM     22  C   UNL     1       3.005   7.370  17.988  0.00  0.00    +0.000 C 
BRANCH  22  23
ATOM     23  C   UNL     1       1.926   8.287  18.595  0.00  0.00    +0.000 C 
BRANCH  23  24
ATOM     24  C   UNL     1       1.722   9.533  17.717  0.00  0.00    +0.000 C 
BRANCH  24  25
ATOM     25  C   UNL     1       1.575  10.815  18.538  0.00  0.00    +0.000 C 
BRANCH  25  26
ATOM     26  C   UNL     1       0.193  10.894  19.188  0.00  0.00    +0.000 C 
BRANCH  26  27
ATOM     27  C   UNL     1       0.307  10.949  20.709  0.00  0.00    +0.000 C 
BRANCH  27  28
ATOM     28  C   UNL     1      -1.000  11.425  21.334  0.00  0.00    +0.000 C 
BRANCH  28  30
ATOM     29  C   UNL     1      -0.435   9.828  23.179  0.00  0.00    +0.000 C 
ATOM     30  C   UNL     1      -0.999  11.197  22.842  0.00  0.00    +0.000 C 
ENDBRANCH  28  30
ENDBRANCH  27  28
ENDBRANCH  26  27
ENDBRANCH  25  26
ENDBRANCH  24  25
ENDBRANCH  23  24
ENDBRANCH  22  23
ENDBRANCH  21  22
ENDBRANCH   1  21
TORSDOF 12
ENDMDL
MODEL 5
REMARK VINA RESULT:      -7.2      0.820      1.204
REMARK  Name = 
REMARK  13 active torsions:
REMARK  status: ('A' for Active; 'I' for Inactive)
REMARK    1  A    between atoms: C_1  and  C_2
REMARK    2  A    between atoms: C_2  and  C_3
REMARK    3  A    between atoms: C_3  and  C_4
REMARK    4  A    between atoms: C_4  and  C_5
REMARK    5  A    between atoms: C_5  and  C_6
REMARK    6  A    between atoms: C_6  and  C_7
REMARK    7  A    between atoms: C_7  and  C_8
REMARK    8  A    between atoms: C_8  and  C_9
REMARK    9  A    between atoms: C_9  and  C_10
REMARK   10  A    between atoms: C_10  and  N_11
REMARK   11  A    between atoms: C_19  and  O_20
REMARK   12  A    between atoms: C_19  and  C_21
REMARK   13  A    between atoms: C_24  and  N_25
REMARK                            x       y       z     vdW  Elec       q    Type
REMARK                         _______ _______ _______ _____ _____    ______ ____
ROOT
ATOM      1  N   UNL     1       3.969   5.362  19.136  0.00  0.00    +0.000 N 
ATOM      2  C   UNL     1       2.947   4.572  19.612  0.00  0.00    +0.000 A 
ATOM      3  N   UNL     1       1.696   4.972  19.908  0.00  0.00    +0.000 NA
ATOM      4  C   UNL     1       0.828   3.993  20.272  0.00  0.00    +0.000 A 
ATOM      5  C   UNL     1       1.154   2.643  20.353  0.00  0.00    +0.000 A 
ATOM      6  C   UNL     1       2.467   2.318  20.067  0.00  0.00    +0.000 A 
ATOM      7  N   UNL     1       3.322   3.291  19.731  0.00  0.00    +0.000 N 
ATOM      8  C   UNL     1       4.721   3.090  19.403  0.00  0.00    +0.000 C 
ATOM      9  C   UNL     1       5.168   4.525  19.012  0.00  0.00    +0.000 C 
ENDROOT
BRANCH   9  10
ATOM     10  C   UNL     1       5.714   4.511  17.588  0.00  0.00    +0.000 A 
ATOM     11  C   UNL     1       4.970   3.975  16.515  0.00  0.00    +0.000 A 
ATOM     12  C   UNL     1       5.405   4.107  15.193  0.00  0.00    +0.000 A 
ATOM     13  C   UNL     1       6.667   4.664  14.939  0.00  0.00    +0.000 A 
ATOM     14  C   UNL     1       7.458   5.119  15.988  0.00  0.00    +0.000 A 
ATOM     15  C   UNL     1       6.979   5.069  17.295  0.00  0.00    +0.000 A 
BRANCH  13  16
ATOM     16  N   UNL     1       7.154   4.761  13.557  0.00  0.00    +0.000 N 
ATOM     17  O   UNL     1       6.651   4.003  12.728  0.00  0.00    +0.000 OA
ATOM     18  O   UNL     1       8.067   5.570  13.332  0.00  0.00    +0.000 OA
ENDBRANCH  13  16
ENDBRANCH   9  10
BRANCH   9  19
ATOM     19  O   UNL     1       6.163   4.998  19.902  0.00  0.00    +0.000 OA
ATOM     20  H   UNL     1       5.819   5.101  20.801  0.00  0.00    +0.000 HD
ENDBRANCH   9  19
BRANCH   1  21
ATOM     21  C   UNL     1       3.949   6.830  19.003  0.00  0.00    +0.000 C 
BRANCH  21  22
ATOM     22  C   UNL     1       3.341   7.302  17.672  0.00  0.00    +0.000 C 
BRANCH  22  23
ATOM     23  C   UNL     1       2.377   8.498  17.784  0.00  0.00    +0.000 C 
BRANCH  23  24
ATOM     24  C   UNL     1       1.710   8.524  19.171  0.00  0.00    +0.000 C 
BRANCH  24  25
ATOM     25  C   UNL     1       0.929   9.814  19.425  0.00  0.00    +0.000 C 
BRANCH  25  26
ATOM     26  C   UNL     1      -0.053  10.094  18.286  0.00  0.00    +0.000 C 
BRANCH  26  27
ATOM     27  C   UNL     1      -1.462  10.325  18.825  0.00  0.00    +0.000 C 
BRANCH  27  28
ATOM     28  C   UNL     1      -1.664  11.789  19.204  0.00  0.00    +0.000 C 
BRANCH  28  30
ATOM     29  C   UNL     1      -0.272  13.847  18.886  0.00  0.00    +0.000 C 
ATOM     30  C   UNL     1      -0.999  12.712  18.188  0.00  0.00    +0.000 C 
ENDBRANCH  28  30
ENDBRANCH  27  28
ENDBRANCH  26  27
ENDBRANCH  25  26
ENDBRANCH  24  25
ENDBRANCH  23  24
ENDBRANCH  22  23
ENDBRANCH  21  22
ENDBRANCH   1  21
TORSDOF 12
ENDMDL
MODEL 6
REMARK VINA RESULT:      -7.1      1.200      2.029
REMARK  Name = 
REMARK  13 active torsions:
REMARK  status: ('A' for Active; 'I' for Inactive)
REMARK    1  A    between atoms: C_1  and  C_2
REMARK    2  A    between atoms: C_2  and  C_3
REMARK    3  A    between atoms: C_3  and  C_4
REMARK    4  A    between atoms: C_4  and  C_5
REMARK    5  A    between atoms: C_5  and  C_6
REMARK    6  A    between atoms: C_6  and  C_7
REMARK    7  A    between atoms: C_7  and  C_8
REMARK    8  A    between atoms: C_8  and  C_9
REMARK    9  A    between atoms: C_9  and  C_10
REMARK   10  A    between atoms: C_10  and  N_11
REMARK   11  A    between atoms: C_19  and  O_20
REMARK   12  A    between atoms: C_19  and  C_21
REMARK   13  A    between atoms: C_24  and  N_25
REMARK                            x       y       z     vdW  Elec       q    Type
REMARK                         _______ _______ _______ _____ _____    ______ ____
ROOT
ATOM      1  N   UNL     1       3.940   5.429  19.097  0.00  0.00    +0.000 N 
ATOM      2  C   UNL     1       2.952   4.649  19.654  0.00  0.00    +0.000 A 
ATOM      3  N   UNL     1       1.707   5.045  19.980  0.00  0.00    +0.000 NA
ATOM      4  C   UNL     1       0.872   4.073  20.429  0.00  0.00    +0.000 A 
ATOM      5  C   UNL     1       1.224   2.734  20.568  0.00  0.00    +0.000 A 
ATOM      6  C   UNL     1       2.530   2.415  20.246  0.00  0.00    +0.000 A 
ATOM      7  N   UNL     1       3.353   3.382  19.825  0.00  0.00    +0.000 N 
ATOM      8  C   UNL     1       4.742   3.185  19.452  0.00  0.00    +0.000 C 
ATOM      9  C   UNL     1       5.148   4.604  18.969  0.00  0.00    +0.000 C 
ENDROOT
BRANCH   9  10
ATOM     10  C   UNL     1       5.637   4.523  17.526  0.00  0.00    +0.000 A 
ATOM     11  C   UNL     1       4.750   4.275  16.456  0.00  0.00    +0.000 A 
ATOM     12  C   UNL     1       5.176   4.358  15.127  0.00  0.00    +0.000 A 
ATOM     13  C   UNL     1       6.537   4.562  14.854  0.00  0.00    +0.000 A 
ATOM     14  C   UNL     1       7.445   4.721  15.895  0.00  0.00    +0.000 A 
ATOM     15  C   UNL     1       7.000   4.728  17.214  0.00  0.00    +0.000 A 
BRANCH  13  16
ATOM     16  N   UNL     1       7.000   4.600  13.461  0.00  0.00    +0.000 N 
ATOM     17  O   UNL     1       7.802   5.483  13.158  0.00  0.00    +0.000 OA
ATOM     18  O   UNL     1       6.516   3.767  12.679  0.00  0.00    +0.000 OA
ENDBRANCH  13  16
ENDBRANCH   9  10
BRANCH   9  19
ATOM     19  O   UNL     1       6.169   5.139  19.792  0.00  0.00    +0.000 OA
ATOM     20  H   UNL     1       6.654   4.443  20.258  0.00  0.00    +0.000 HD
ENDBRANCH   9  19
BRANCH   1  21
ATOM     21  C   UNL     1       3.889   6.887  18.888  0.00  0.00    +0.000 C 
BRANCH  21  22
ATOM     22  C   UNL     1       2.802   7.310  17.887  0.00  0.00    +0.000 C 
BRANCH  22  23
ATOM     23  C   UNL     1       2.534   8.826  17.818  0.00  0.00    +0.000 C 
BRANCH  23  24
ATOM     24  C   UNL     1       1.028   9.113  17.944  0.00  0.00    +0.000 C 
BRANCH  24  25
ATOM     25  C   UNL     1       0.690   9.949  19.179  0.00  0.00    +0.000 C 
BRANCH  25  26
ATOM     26  C   UNL     1      -0.404  10.971  18.867  0.00  0.00    +0.000 C 
BRANCH  26  27
ATOM     27  C   UNL     1       0.184  12.370  18.710  0.00  0.00    +0.000 C 
BRANCH  27  28
ATOM     28  C   UNL     1       1.618  12.416  19.229  0.00  0.00    +0.000 C 
BRANCH  28  30
ATOM     29  C   UNL     1       2.992  14.262  18.238  0.00  0.00    +0.000 C 
ATOM     30  C   UNL     1       2.588  12.803  18.117  0.00  0.00    +0.000 C 
ENDBRANCH  28  30
ENDBRANCH  27  28
ENDBRANCH  26  27
ENDBRANCH  25  26
ENDBRANCH  24  25
ENDBRANCH  23  24
ENDBRANCH  22  23
ENDBRANCH  21  22
ENDBRANCH   1  21
TORSDOF 12
ENDMDL
MODEL 7
REMARK VINA RESULT:      -7.1      3.120      7.413
REMARK  Name = 
REMARK  13 active torsions:
REMARK  status: ('A' for Active; 'I' for Inactive)
REMARK    1  A    between atoms: C_1  and  C_2
REMARK    2  A    between atoms: C_2  and  C_3
REMARK    3  A    between atoms: C_3  and  C_4
REMARK    4  A    between atoms: C_4  and  C_5
REMARK    5  A    between atoms: C_5  and  C_6
REMARK    6  A    between atoms: C_6  and  C_7
REMARK    7  A    between atoms: C_7  and  C_8
REMARK    8  A    between atoms: C_8  and  C_9
REMARK    9  A    between atoms: C_9  and  C_10
REMARK   10  A    between atoms: C_10  and  N_11
REMARK   11  A    between atoms: C_19  and  O_20
REMARK   12  A    between atoms: C_19  and  C_21
REMARK   13  A    between atoms: C_24  and  N_25
REMARK                            x       y       z     vdW  Elec       q    Type
REMARK                         _______ _______ _______ _____ _____    ______ ____
ROOT
ATOM      1  N   UNL     1       4.465   5.340  18.762  0.00  0.00    +0.000 N 
ATOM      2  C   UNL     1       4.174   4.004  18.921  0.00  0.00    +0.000 A 
ATOM      3  N   UNL     1       4.919   3.095  19.579  0.00  0.00    +0.000 NA
ATOM      4  C   UNL     1       4.383   1.852  19.687  0.00  0.00    +0.000 A 
ATOM      5  C   UNL     1       3.146   1.481  19.169  0.00  0.00    +0.000 A 
ATOM      6  C   UNL     1       2.459   2.461  18.477  0.00  0.00    +0.000 A 
ATOM      7  N   UNL     1       3.004   3.677  18.356  0.00  0.00    +0.000 N 
ATOM      8  C   UNL     1       2.392   4.796  17.662  0.00  0.00    +0.000 C 
ATOM      9  C   UNL     1       3.413   5.935  17.929  0.00  0.00    +0.000 C 
ENDROOT
BRANCH   9  10
ATOM     10  C   UNL     1       2.705   7.089  18.634  0.00  0.00    +0.000 A 
ATOM     11  C   UNL     1       2.410   8.296  17.964  0.00  0.00    +0.000 A 
ATOM     12  C   UNL     1       1.624   9.285  18.564  0.00  0.00    +0.000 A 
ATOM     13  C   UNL     1       1.235   9.132  19.903  0.00  0.00    +0.000 A 
ATOM     14  C   UNL     1       1.590   7.990  20.612  0.00  0.00    +0.000 A 
ATOM     15  C   UNL     1       2.294   6.968  19.980  0.00  0.00    +0.000 A 
BRANCH  13  16
ATOM     16  N   UNL     1       0.452  10.190  20.556  0.00  0.00    +0.000 N 
ATOM     17  O   UNL     1      -0.450   9.836  21.314  0.00  0.00    +0.000 OA
ATOM     18  O   UNL     1       0.730  11.363  20.264  0.00  0.00    +0.000 OA
ENDBRANCH  13  16
ENDBRANCH   9  10
BRANCH   9  19
ATOM     19  O   UNL     1       3.980   6.392  16.714  0.00  0.00    +0.000 OA
ATOM     20  H   UNL     1       4.277   5.656  16.159  0.00  0.00    +0.000 HD
ENDBRANCH   9  19
BRANCH   1  21
ATOM     21  C   UNL     1       5.719   6.014  19.143  0.00  0.00    +0.000 C 
BRANCH  21  22
ATOM     22  C   UNL     1       6.964   5.351  18.528  0.00  0.00    +0.000 C 
BRANCH  22  23
ATOM     23  C   UNL     1       7.155   5.601  17.019  0.00  0.00    +0.000 C 
BRANCH  23  24
ATOM     24  C   UNL     1       6.672   4.386  16.207  0.00  0.00    +0.000 C 
BRANCH  24  25
ATOM     25  C   UNL     1       6.460   4.714  14.729  0.00  0.00    +0.000 C 
BRANCH  25  26
ATOM     26  C   UNL     1       6.197   3.444  13.918  0.00  0.00    +0.000 C 
BRANCH  26  27
ATOM     27  C   UNL     1       6.225   3.736  12.420  0.00  0.00    +0.000 C 
BRANCH  27  28
ATOM     28  C   UNL     1       5.315   2.773  11.663  0.00  0.00    +0.000 C 
BRANCH  28  30
ATOM     29  C   UNL     1       3.517   3.686  10.178  0.00  0.00    +0.000 C 
ATOM     30  C   UNL     1       3.888   3.307  11.601  0.00  0.00    +0.000 C 
ENDBRANCH  28  30
ENDBRANCH  27  28
ENDBRANCH  26  27
ENDBRANCH  25  26
ENDBRANCH  24  25
ENDBRANCH  23  24
ENDBRANCH  22  23
ENDBRANCH  21  22
ENDBRANCH   1  21
TORSDOF 12
ENDMDL
MODEL 8
REMARK VINA RESULT:      -7.1      0.954      1.689
REMARK  Name = 
REMARK  13 active torsions:
REMARK  status: ('A' for Active; 'I' for Inactive)
REMARK    1  A    between atoms: C_1  and  C_2
REMARK    2  A    between atoms: C_2  and  C_3
REMARK    3  A    between atoms: C_3  and  C_4
REMARK    4  A    between atoms: C_4  and  C_5
REMARK    5  A    between atoms: C_5  and  C_6
REMARK    6  A    between atoms: C_6  and  C_7
REMARK    7  A    between atoms: C_7  and  C_8
REMARK    8  A    between atoms: C_8  and  C_9
REMARK    9  A    between atoms: C_9  and  C_10
REMARK   10  A    between atoms: C_10  and  N_11
REMARK   11  A    between atoms: C_19  and  O_20
REMARK   12  A    between atoms: C_19  and  C_21
REMARK   13  A    between atoms: C_24  and  N_25
REMARK                            x       y       z     vdW  Elec       q    Type
REMARK                         _______ _______ _______ _____ _____    ______ ____
ROOT
ATOM      1  N   UNL     1       3.910   5.138  18.843  0.00  0.00    +0.000 N 
ATOM      2  C   UNL     1       2.871   4.301  19.184  0.00  0.00    +0.000 A 
ATOM      3  N   UNL     1       1.627   4.673  19.542  0.00  0.00    +0.000 NA
ATOM      4  C   UNL     1       0.740   3.665  19.742  0.00  0.00    +0.000 A 
ATOM      5  C   UNL     1       1.039   2.313  19.603  0.00  0.00    +0.000 A 
ATOM      6  C   UNL     1       2.346   2.013  19.268  0.00  0.00    +0.000 A 
ATOM      7  N   UNL     1       3.221   3.011  19.094  0.00  0.00    +0.000 N 
ATOM      8  C   UNL     1       4.617   2.838  18.738  0.00  0.00    +0.000 C 
ATOM      9  C   UNL     1       5.093   4.308  18.585  0.00  0.00    +0.000 C 
ENDROOT
BRANCH   9  10
ATOM     10  C   UNL     1       5.643   4.514  17.177  0.00  0.00    +0.000 A 
ATOM     11  C   UNL     1       6.952   4.996  16.957  0.00  0.00    +0.000 A 
ATOM     12  C   UNL     1       7.505   5.033  15.674  0.00  0.00    +0.000 A 
ATOM     13  C   UNL     1       6.700   4.711  14.571  0.00  0.00    +0.000 A 
ATOM     14  C   UNL     1       5.379   4.318  14.756  0.00  0.00    +0.000 A 
ATOM     15  C   UNL     1       4.862   4.195  16.044  0.00  0.00    +0.000 A 
BRANCH  13  16
ATOM     16  N   UNL     1       7.259   4.795  13.215  0.00  0.00    +0.000 N 
ATOM     17  O   UNL     1       8.059   5.702  12.990  0.00  0.00    +0.000 OA
ATOM     18  O   UNL     1       6.850   3.972  12.381  0.00  0.00    +0.000 OA
ENDBRANCH  13  16
ENDBRANCH   9  10
BRANCH   9  19
ATOM     19  O   UNL     1       6.094   4.611  19.540  0.00  0.00    +0.000 OA
ATOM     20  H   UNL     1       5.722   4.712  20.428  0.00  0.00    +0.000 HD
ENDBRANCH   9  19
BRANCH   1  21
ATOM     21  C   UNL     1       3.919   6.608  18.950  0.00  0.00    +0.000 C 
BRANCH  21  22
ATOM     22  C   UNL     1       3.443   7.304  17.664  0.00  0.00    +0.000 C 
BRANCH  22  23
ATOM     23  C   UNL     1       2.182   8.175  17.824  0.00  0.00    +0.000 C 
BRANCH  23  24
ATOM     24  C   UNL     1       1.799   8.301  19.308  0.00  0.00    +0.000 C 
BRANCH  24  25
ATOM     25  C   UNL     1       1.055   9.601  19.617  0.00  0.00    +0.000 C 
BRANCH  25  26
ATOM     26  C   UNL     1       0.256  10.076  18.402  0.00  0.00    +0.000 C 
BRANCH  26  27
ATOM     27  C   UNL     1      -1.221  10.242  18.752  0.00  0.00    +0.000 C 
BRANCH  27  28
ATOM     28  C   UNL     1      -1.523  11.681  19.160  0.00  0.00    +0.000 C 
BRANCH  28  30
ATOM     29  C   UNL     1      -0.328  13.881  19.086  0.00  0.00    +0.000 C 
ATOM     30  C   UNL     1      -0.760  12.668  18.282  0.00  0.00    +0.000 C 
ENDBRANCH  28  30
ENDBRANCH  27  28
ENDBRANCH  26  27
ENDBRANCH  25  26
ENDBRANCH  24  25
ENDBRANCH  23  24
ENDBRANCH  22  23
ENDBRANCH  21  22
ENDBRANCH   1  21
TORSDOF 12
ENDMDL
MODEL 9
REMARK VINA RESULT:      -7.1      1.403      2.306
REMARK  Name = 
REMARK  13 active torsions:
REMARK  status: ('A' for Active; 'I' for Inactive)
REMARK    1  A    between atoms: C_1  and  C_2
REMARK    2  A    between atoms: C_2  and  C_3
REMARK    3  A    between atoms: C_3  and  C_4
REMARK    4  A    between atoms: C_4  and  C_5
REMARK    5  A    between atoms: C_5  and  C_6
REMARK    6  A    between atoms: C_6  and  C_7
REMARK    7  A    between atoms: C_7  and  C_8
REMARK    8  A    between atoms: C_8  and  C_9
REMARK    9  A    between atoms: C_9  and  C_10
REMARK   10  A    between atoms: C_10  and  N_11
REMARK   11  A    between atoms: C_19  and  O_20
REMARK   12  A    between atoms: C_19  and  C_21
REMARK   13  A    between atoms: C_24  and  N_25
REMARK                            x       y       z     vdW  Elec       q    Type
REMARK                         _______ _______ _______ _____ _____    ______ ____
ROOT
ATOM      1  N   UNL     1       3.839   5.365  19.125  0.00  0.00    +0.000 N 
ATOM      2  C   UNL     1       2.886   4.476  19.566  0.00  0.00    +0.000 A 
ATOM      3  N   UNL     1       1.619   4.768  19.917  0.00  0.00    +0.000 NA
ATOM      4  C   UNL     1       0.829   3.710  20.231  0.00  0.00    +0.000 A 
ATOM      5  C   UNL     1       1.247   2.382  20.210  0.00  0.00    +0.000 A 
ATOM      6  C   UNL     1       2.570   2.169  19.874  0.00  0.00    +0.000 A 
ATOM      7  N   UNL     1       3.349   3.219  19.588  0.00  0.00    +0.000 N 
ATOM      8  C   UNL     1       4.749   3.137  19.216  0.00  0.00    +0.000 C 
ATOM      9  C   UNL     1       5.088   4.623  18.917  0.00  0.00    +0.000 C 
ENDROOT
BRANCH   9  10
ATOM     10  C   UNL     1       5.596   4.743  17.483  0.00  0.00    +0.000 A 
ATOM     11  C   UNL     1       6.713   5.543  17.158  0.00  0.00    +0.000 A 
ATOM     12  C   UNL     1       7.269   5.526  15.876  0.00  0.00    +0.000 A 
ATOM     13  C   UNL     1       6.627   4.803  14.859  0.00  0.00    +0.000 A 
ATOM     14  C   UNL     1       5.473   4.077  15.135  0.00  0.00    +0.000 A 
ATOM     15  C   UNL     1       4.977   4.024  16.436  0.00  0.00    +0.000 A 
BRANCH  13  16
ATOM     16  N   UNL     1       7.176   4.819  13.497  0.00  0.00    +0.000 N 
ATOM     17  O   UNL     1       6.725   4.001  12.697  0.00  0.00    +0.000 OA
ATOM     18  O   UNL     1       8.087   5.629  13.264  0.00  0.00    +0.000 OA
ENDBRANCH  13  16
ENDBRANCH   9  10
BRANCH   9  19
ATOM     19  O   UNL     1       6.073   5.102  19.815  0.00  0.00    +0.000 OA
ATOM     20  H   UNL     1       6.826   5.489  19.347  0.00  0.00    +0.000 HD
ENDBRANCH   9  19
BRANCH   1  21
ATOM     21  C   UNL     1       3.718   6.834  19.095  0.00  0.00    +0.000 C 
BRANCH  21  22
ATOM     22  C   UNL     1       2.914   7.343  17.887  0.00  0.00    +0.000 C 
BRANCH  22  23
ATOM     23  C   UNL     1       2.621   8.855  17.890  0.00  0.00    +0.000 C 
BRANCH  23  24
ATOM     24  C   UNL     1       1.108   9.110  18.011  0.00  0.00    +0.000 C 
BRANCH  24  25
ATOM     25  C   UNL     1       0.729   9.794  19.325  0.00  0.00    +0.000 C 
BRANCH  25  26
ATOM     26  C   UNL     1       1.123   8.932  20.525  0.00  0.00    +0.000 C 
BRANCH  26  27
ATOM     27  C   UNL     1       0.296   9.299  21.755  0.00  0.00    +0.000 C 
BRANCH  27  28
ATOM     28  C   UNL     1      -0.721  10.385  21.421  0.00  0.00    +0.000 C 
BRANCH  28  30
ATOM     29  C   UNL     1      -1.978  11.771  23.087  0.00  0.00    +0.000 C 
ATOM     30  C   UNL     1      -0.635  11.538  22.417  0.00  0.00    +0.000 C 
ENDBRANCH  28  30
ENDBRANCH  27  28
ENDBRANCH  26  27
ENDBRANCH  25  26
ENDBRANCH  24  25
ENDBRANCH  23  24
ENDBRANCH  22  23
ENDBRANCH  21  22
ENDBRANCH   1  21
TORSDOF 12
ENDMDL
