MODEL 1
REMARK VINA RESULT:      -6.9      0.000      0.000
REMARK  Name = 
REMARK  3 active torsions:
REMARK  status: ('A' for Active; 'I' for Inactive)
REMARK    1  A    between atoms: C_1  and  C_2
REMARK    2  A    between atoms: C_7  and  C_9
REMARK    3  A    between atoms: C_9  and  C_10
REMARK                            x       y       z     vdW  Elec       q    Type
REMARK                         _______ _______ _______ _____ _____    ______ ____
ROOT
ATOM      1  C   UNL     1       7.562   5.111  13.157  0.00  0.00    +0.000 C 
ATOM      2  C   UNL     1       7.002   4.988  14.525  0.00  0.00    +0.000 A 
ATOM      3  C   UNL     1       7.183   5.806  15.623  0.00  0.00    +0.000 A 
ATOM      4  N   UNL     1       6.580   5.380  16.788  0.00  0.00    +0.000 NA
ATOM      5  C   UNL     1       5.941   4.265  16.559  0.00  0.00    +0.000 A 
ATOM      6  N   UNL     1       5.213   3.498  17.417  0.00  0.00    +0.000 N 
ATOM      7  C   UNL     1       5.213   3.711  18.783  0.00  0.00    +0.000 C 
ATOM      8  O   UNL     1       5.920   4.483  19.416  0.00  0.00    +0.000 OA
ATOM      9  S   UNL     1       5.976   3.682  14.955  0.00  0.00    +0.000 S 
ATOM     10  H   UNL     1       4.719   2.717  17.012  0.00  0.00    +0.000 HD
ENDROOT
BRANCH   7  11
ATOM     11  C   UNL     1       4.190   2.839  19.486  0.00  0.00    +0.000 C 
BRANCH  11  12
ATOM     12  C   UNL     1       3.179   3.629  20.319  0.00  0.00    +0.000 C 
ATOM     13  C   UNL     1       2.211   2.763  21.161  0.00  0.00    +0.000 C 
ATOM     14  C   UNL     1       0.831   3.152  20.608  0.00  0.00    +0.000 C 
ATOM     15  C   UNL     1       0.712   2.620  19.166  0.00  0.00    +0.000 C 
ATOM     16  C   UNL     1       1.531   3.635  18.355  0.00  0.00    +0.000 C 
ATOM     17  C   UNL     1       2.198   4.479  19.456  0.00  0.00    +0.000 C 
ATOM     18  C   UNL     1       1.006   4.657  20.401  0.00  0.00    +0.000 C 
ENDBRANCH  11  12
ENDBRANCH   7  11
TORSDOF 2
ENDMDL
MODEL 2
REMARK VINA RESULT:      -6.8      0.996      1.724
REMARK  Name = 
REMARK  3 active torsions:
REMARK  status: ('A' for Active; 'I' for Inactive)
REMARK    1  A    between atoms: C_1  and  C_2
REMARK    2  A    between atoms: C_7  and  C_9
REMARK    3  A    between atoms: C_9  and  C_10
REMARK                            x       y       z     vdW  Elec       q    Type
REMARK                         _______ _______ _______ _____ _____    ______ ____
ROOT
ATOM      1  C   UNL     1       6.987   4.200  12.211  0.00  0.00    +0.000 C 
ATOM      2  C   UNL     1       6.775   4.380  13.668  0.00  0.00    +0.000 A 
ATOM      3  C   UNL     1       7.547   5.059  14.589  0.00  0.00    +0.000 A 
ATOM      4  N   UNL     1       7.119   4.982  15.897  0.00  0.00    +0.000 NA
ATOM      5  C   UNL     1       6.027   4.268  15.951  0.00  0.00    +0.000 A 
ATOM      6  N   UNL     1       5.268   3.936  17.033  0.00  0.00    +0.000 N 
ATOM      7  C   UNL     1       5.688   4.163  18.330  0.00  0.00    +0.000 C 
ATOM      8  O   UNL     1       6.787   4.551  18.699  0.00  0.00    +0.000 OA
ATOM      9  S   UNL     1       5.421   3.688  14.465  0.00  0.00    +0.000 S 
ATOM     10  H   UNL     1       4.405   3.449  16.842  0.00  0.00    +0.000 HD
ENDROOT
BRANCH   7  11
ATOM     11  C   UNL     1       4.590   3.865  19.333  0.00  0.00    +0.000 C 
BRANCH  11  12
ATOM     12  C   UNL     1       3.281   3.402  18.691  0.00  0.00    +0.000 C 
ATOM     13  C   UNL     1       2.177   4.485  18.610  0.00  0.00    +0.000 C 
ATOM     14  C   UNL     1       1.037   3.877  19.441  0.00  0.00    +0.000 C 
ATOM     15  C   UNL     1       1.471   3.841  20.919  0.00  0.00    +0.000 C 
ATOM     16  C   UNL     1       2.409   2.626  20.974  0.00  0.00    +0.000 C 
ATOM     17  C   UNL     1       2.571   2.265  19.486  0.00  0.00    +0.000 C 
ATOM     18  C   UNL     1       1.117   2.408  19.027  0.00  0.00    +0.000 C 
ENDBRANCH  11  12
ENDBRANCH   7  11
TORSDOF 2
ENDMDL
MODEL 3
REMARK VINA RESULT:      -6.7      1.004      1.729
REMARK  Name = 
REMARK  3 active torsions:
REMARK  status: ('A' for Active; 'I' for Inactive)
REMARK    1  A    between atoms: C_1  and  C_2
REMARK    2  A    between atoms: C_7  and  C_9
REMARK    3  A    between atoms: C_9  and  C_10
REMARK                            x       y       z     vdW  Elec       q    Type
REMARK                         _______ _______ _______ _____ _____    ______ ____
ROOT
ATOM      1  C   UNL     1       6.832   4.093  12.919  0.00  0.00    +0.000 C 
ATOM      2  C   UNL     1       6.576   4.427  14.341  0.00  0.00    +0.000 A 
ATOM      3  C   UNL     1       7.470   4.762  15.339  0.00  0.00    +0.000 A 
ATOM      4  N   UNL     1       6.924   4.948  16.590  0.00  0.00    +0.000 NA
ATOM      5  C   UNL     1       5.632   4.772  16.527  0.00  0.00    +0.000 A 
ATOM      6  N   UNL     1       4.701   4.855  17.518  0.00  0.00    +0.000 N 
ATOM      7  C   UNL     1       5.048   4.954  18.853  0.00  0.00    +0.000 C 
ATOM      8  O   UNL     1       6.166   4.857  19.341  0.00  0.00    +0.000 OA
ATOM      9  S   UNL     1       4.985   4.424  14.986  0.00  0.00    +0.000 S 
ATOM     10  H   UNL     1       3.736   4.773  17.235  0.00  0.00    +0.000 HD
ENDROOT
BRANCH   7  11
ATOM     11  C   UNL     1       3.836   5.208  19.728  0.00  0.00    +0.000 C 
BRANCH  11  12
ATOM     12  C   UNL     1       2.591   4.431  19.294  0.00  0.00    +0.000 C 
ATOM     13  C   UNL     1       1.317   4.728  20.121  0.00  0.00    +0.000 C 
ATOM     14  C   UNL     1       0.967   3.357  20.719  0.00  0.00    +0.000 C 
ATOM     15  C   UNL     1       2.049   2.980  21.750  0.00  0.00    +0.000 C 
ATOM     16  C   UNL     1       3.215   2.508  20.870  0.00  0.00    +0.000 C 
ATOM     17  C   UNL     1       2.739   2.888  19.456  0.00  0.00    +0.000 C 
ATOM     18  C   UNL     1       1.280   2.430  19.544  0.00  0.00    +0.000 C 
ENDBRANCH  11  12
ENDBRANCH   7  11
TORSDOF 2
ENDMDL
MODEL 4
REMARK VINA RESULT:      -6.6      4.918      6.805
REMARK  Name = 
REMARK  3 active torsions:
REMARK  status: ('A' for Active; 'I' for Inactive)
REMARK    1  A    between atoms: C_1  and  C_2
REMARK    2  A    between atoms: C_7  and  C_9
REMARK    3  A    between atoms: C_9  and  C_10
REMARK                            x       y       z     vdW  Elec       q    Type
REMARK                         _______ _______ _______ _____ _____    ______ ____
ROOT
ATOM      1  C   UNL     1      -0.847  11.813  22.387  0.00  0.00    +0.000 C 
ATOM      2  C   UNL     1      -0.017  10.791  21.704  0.00  0.00    +0.000 A 
ATOM      3  C   UNL     1       0.689  10.882  20.520  0.00  0.00    +0.000 A 
ATOM      4  N   UNL     1       1.310   9.722  20.107  0.00  0.00    +0.000 NA
ATOM      5  C   UNL     1       1.086   8.779  20.981  0.00  0.00    +0.000 A 
ATOM      6  N   UNL     1       1.503   7.482  20.975  0.00  0.00    +0.000 N 
ATOM      7  C   UNL     1       2.099   6.901  19.871  0.00  0.00    +0.000 C 
ATOM      8  O   UNL     1       2.222   7.381  18.753  0.00  0.00    +0.000 OA
ATOM      9  S   UNL     1       0.173   9.215  22.356  0.00  0.00    +0.000 S 
ATOM     10  H   UNL     1       1.295   6.940  21.801  0.00  0.00    +0.000 HD
ENDROOT
BRANCH   7  11
ATOM     11  C   UNL     1       2.625   5.513  20.185  0.00  0.00    +0.000 C 
BRANCH  11  12
ATOM     12  C   UNL     1       1.572   4.412  20.045  0.00  0.00    +0.000 C 
ATOM     13  C   UNL     1       1.911   3.090  20.775  0.00  0.00    +0.000 C 
ATOM     14  C   UNL     1       1.955   2.066  19.630  0.00  0.00    +0.000 C 
ATOM     15  C   UNL     1       3.179   2.373  18.744  0.00  0.00    +0.000 C 
ATOM     16  C   UNL     1       2.706   3.569  17.905  0.00  0.00    +0.000 C 
ATOM     17  C   UNL     1       1.368   3.936  18.575  0.00  0.00    +0.000 C 
ATOM     18  C   UNL     1       0.784   2.533  18.767  0.00  0.00    +0.000 C 
ENDBRANCH  11  12
ENDBRANCH   7  11
TORSDOF 2
ENDMDL
MODEL 5
REMARK VINA RESULT:      -6.6      2.104      2.920
REMARK  Name = 
REMARK  3 active torsions:
REMARK  status: ('A' for Active; 'I' for Inactive)
REMARK    1  A    between atoms: C_1  and  C_2
REMARK    2  A    between atoms: C_7  and  C_9
REMARK    3  A    between atoms: C_9  and  C_10
REMARK                            x       y       z     vdW  Elec       q    Type
REMARK                         _______ _______ _______ _____ _____    ______ ____
ROOT
ATOM      1  C   UNL     1       8.470   7.760  18.548  0.00  0.00    +0.000 C 
ATOM      2  C   UNL     1       7.537   6.704  18.084  0.00  0.00    +0.000 A 
ATOM      3  C   UNL     1       7.096   6.422  16.807  0.00  0.00    +0.000 A 
ATOM      4  N   UNL     1       6.164   5.411  16.709  0.00  0.00    +0.000 NA
ATOM      5  C   UNL     1       5.924   4.929  17.897  0.00  0.00    +0.000 A 
ATOM      6  N   UNL     1       5.076   3.929  18.267  0.00  0.00    +0.000 N 
ATOM      7  C   UNL     1       4.151   3.383  17.396  0.00  0.00    +0.000 C 
ATOM      8  O   UNL     1       3.870   3.770  16.271  0.00  0.00    +0.000 OA
ATOM      9  S   UNL     1       6.813   5.606  19.188  0.00  0.00    +0.000 S 
ATOM     10  H   UNL     1       5.110   3.647  19.235  0.00  0.00    +0.000 HD
ENDROOT
BRANCH   7  11
ATOM     11  C   UNL     1       3.460   2.175  18.000  0.00  0.00    +0.000 C 
BRANCH  11  12
ATOM     12  C   UNL     1       2.028   2.456  18.462  0.00  0.00    +0.000 C 
ATOM     13  C   UNL     1       1.589   3.936  18.359  0.00  0.00    +0.000 C 
ATOM     14  C   UNL     1       1.264   4.302  19.815  0.00  0.00    +0.000 C 
ATOM     15  C   UNL     1       2.577   4.317  20.623  0.00  0.00    +0.000 C 
ATOM     16  C   UNL     1       2.852   2.826  20.862  0.00  0.00    +0.000 C 
ATOM     17  C   UNL     1       1.795   2.146  19.972  0.00  0.00    +0.000 C 
ATOM     18  C   UNL     1       0.582   3.022  20.299  0.00  0.00    +0.000 C 
ENDBRANCH  11  12
ENDBRANCH   7  11
TORSDOF 2
ENDMDL
MODEL 6
REMARK VINA RESULT:      -6.5      0.805      1.676
REMARK  Name = 
REMARK  3 active torsions:
REMARK  status: ('A' for Active; 'I' for Inactive)
REMARK    1  A    between atoms: C_1  and  C_2
REMARK    2  A    between atoms: C_7  and  C_9
REMARK    3  A    between atoms: C_9  and  C_10
REMARK                            x       y       z     vdW  Elec       q    Type
REMARK                         _______ _______ _______ _____ _____    ______ ____
ROOT
ATOM      1  C   UNL     1       7.687   5.437  13.623  0.00  0.00    +0.000 C 
ATOM      2  C   UNL     1       6.972   5.062  14.868  0.00  0.00    +0.000 A 
ATOM      3  C   UNL     1       7.033   5.638  16.122  0.00  0.00    +0.000 A 
ATOM      4  N   UNL     1       6.296   5.008  17.101  0.00  0.00    +0.000 NA
ATOM      5  C   UNL     1       5.676   3.983  16.583  0.00  0.00    +0.000 A 
ATOM      6  N   UNL     1       4.845   3.084  17.182  0.00  0.00    +0.000 N 
ATOM      7  C   UNL     1       4.691   3.020  18.554  0.00  0.00    +0.000 C 
ATOM      8  O   UNL     1       5.327   3.627  19.404  0.00  0.00    +0.000 OA
ATOM      9  S   UNL     1       5.889   3.731  14.908  0.00  0.00    +0.000 S 
ATOM     10  H   UNL     1       4.395   2.417  16.575  0.00  0.00    +0.000 HD
ENDROOT
BRANCH   7  11
ATOM     11  C   UNL     1       3.584   2.060  18.948  0.00  0.00    +0.000 C 
BRANCH  11  12
ATOM     12  C   UNL     1       2.192   2.694  18.946  0.00  0.00    +0.000 C 
ATOM     13  C   UNL     1       2.177   4.232  18.770  0.00  0.00    +0.000 C 
ATOM     14  C   UNL     1       1.507   4.720  20.064  0.00  0.00    +0.000 C 
ATOM     15  C   UNL     1       2.461   4.449  21.244  0.00  0.00    +0.000 C 
ATOM     16  C   UNL     1       2.279   2.946  21.496  0.00  0.00    +0.000 C 
ATOM     17  C   UNL     1       1.427   2.507  20.291  0.00  0.00    +0.000 C 
ATOM     18  C   UNL     1       0.421   3.661  20.255  0.00  0.00    +0.000 C 
ENDBRANCH  11  12
ENDBRANCH   7  11
TORSDOF 2
ENDMDL
MODEL 7
REMARK VINA RESULT:      -6.4      5.210      7.154
REMARK  Name = 
REMARK  3 active torsions:
REMARK  status: ('A' for Active; 'I' for Inactive)
REMARK    1  A    between atoms: C_1  and  C_2
REMARK    2  A    between atoms: C_7  and  C_9
REMARK    3  A    between atoms: C_9  and  C_10
REMARK                            x       y       z     vdW  Elec       q    Type
REMARK                         _______ _______ _______ _____ _____    ______ ____
ROOT
ATOM      1  C   UNL     1      -1.038  11.317  22.784  0.00  0.00    +0.000 C 
ATOM      2  C   UNL     1      -0.201  10.799  21.675  0.00  0.00    +0.000 A 
ATOM      3  C   UNL     1       0.204  11.427  20.514  0.00  0.00    +0.000 A 
ATOM      4  N   UNL     1       0.924  10.647  19.635  0.00  0.00    +0.000 NA
ATOM      5  C   UNL     1       1.073   9.453  20.141  0.00  0.00    +0.000 A 
ATOM      6  N   UNL     1       1.712   8.369  19.619  0.00  0.00    +0.000 N 
ATOM      7  C   UNL     1       2.152   8.329  18.309  0.00  0.00    +0.000 C 
ATOM      8  O   UNL     1       1.939   9.149  17.427  0.00  0.00    +0.000 OA
ATOM      9  S   UNL     1       0.414   9.196  21.695  0.00  0.00    +0.000 S 
ATOM     10  H   UNL     1       1.790   7.562  20.220  0.00  0.00    +0.000 HD
ENDROOT
BRANCH   7  11
ATOM     11  C   UNL     1       2.980   7.088  18.035  0.00  0.00    +0.000 C 
BRANCH  11  12
ATOM     12  C   UNL     1       2.978   6.082  19.188  0.00  0.00    +0.000 C 
ATOM     13  C   UNL     1       4.325   5.355  19.420  0.00  0.00    +0.000 C 
ATOM     14  C   UNL     1       3.960   3.878  19.207  0.00  0.00    +0.000 C 
ATOM     15  C   UNL     1       3.628   3.664  17.716  0.00  0.00    +0.000 C 
ATOM     16  C   UNL     1       2.205   4.227  17.596  0.00  0.00    +0.000 C 
ATOM     17  C   UNL     1       1.994   4.894  18.968  0.00  0.00    +0.000 C 
ATOM     18  C   UNL     1       2.587   3.811  19.874  0.00  0.00    +0.000 C 
ENDBRANCH  11  12
ENDBRANCH   7  11
TORSDOF 2
ENDMDL
MODEL 8
REMARK VINA RESULT:      -6.4      4.686      6.606
REMARK  Name = 
REMARK  3 active torsions:
REMARK  status: ('A' for Active; 'I' for Inactive)
REMARK    1  A    between atoms: C_1  and  C_2
REMARK    2  A    between atoms: C_7  and  C_9
REMARK    3  A    between atoms: C_9  and  C_10
REMARK                            x       y       z     vdW  Elec       q    Type
REMARK                         _______ _______ _______ _____ _____    ______ ____
ROOT
ATOM      1  C   UNL     1      -0.887  11.444  21.869  0.00  0.00    +0.000 C 
ATOM      2  C   UNL     1       0.010  10.515  21.140  0.00  0.00    +0.000 A 
ATOM      3  C   UNL     1       0.616  10.666  19.908  0.00  0.00    +0.000 A 
ATOM      4  N   UNL     1       1.341   9.580  19.465  0.00  0.00    +0.000 NA
ATOM      5  C   UNL     1       1.294   8.635  20.363  0.00  0.00    +0.000 A 
ATOM      6  N   UNL     1       1.864   7.398  20.342  0.00  0.00    +0.000 N 
ATOM      7  C   UNL     1       2.447   6.870  19.205  0.00  0.00    +0.000 C 
ATOM      8  O   UNL     1       2.432   7.338  18.076  0.00  0.00    +0.000 OA
ATOM      9  S   UNL     1       0.434   8.986  21.795  0.00  0.00    +0.000 S 
ATOM     10  H   UNL     1       1.780   6.851  21.187  0.00  0.00    +0.000 HD
ENDROOT
BRANCH   7  11
ATOM     11  C   UNL     1       3.157   5.561  19.496  0.00  0.00    +0.000 C 
BRANCH  11  12
ATOM     12  C   UNL     1       2.930   4.489  18.428  0.00  0.00    +0.000 C 
ATOM     13  C   UNL     1       1.458   4.043  18.256  0.00  0.00    +0.000 C 
ATOM     14  C   UNL     1       1.511   2.544  18.587  0.00  0.00    +0.000 C 
ATOM     15  C   UNL     1       1.817   2.384  20.090  0.00  0.00    +0.000 C 
ATOM     16  C   UNL     1       3.328   2.644  20.163  0.00  0.00    +0.000 C 
ATOM     17  C   UNL     1       3.649   3.143  18.742  0.00  0.00    +0.000 C 
ATOM     18  C   UNL     1       2.829   2.139  17.926  0.00  0.00    +0.000 C 
ENDBRANCH  11  12
ENDBRANCH   7  11
TORSDOF 2
ENDMDL
MODEL 9
REMARK VINA RESULT:      -6.3      5.347      7.599
REMARK  Name = 
REMARK  3 active torsions:
REMARK  status: ('A' for Active; 'I' for Inactive)
REMARK    1  A    between atoms: C_1  and  C_2
REMARK    2  A    between atoms: C_7  and  C_9
REMARK    3  A    between atoms: C_9  and  C_10
REMARK                            x       y       z     vdW  Elec       q    Type
REMARK                         _______ _______ _______ _____ _____    ______ ____
ROOT
ATOM      1  C   UNL     1      -1.367  11.732  23.063  0.00  0.00    +0.000 C 
ATOM      2  C   UNL     1      -0.445  10.977  22.181  0.00  0.00    +0.000 A 
ATOM      3  C   UNL     1       0.265  11.410  21.078  0.00  0.00    +0.000 A 
ATOM      4  N   UNL     1       0.988  10.440  20.417  0.00  0.00    +0.000 NA
ATOM      5  C   UNL     1       0.836   9.297  21.030  0.00  0.00    +0.000 A 
ATOM      6  N   UNL     1       1.364   8.079  20.725  0.00  0.00    +0.000 N 
ATOM      7  C   UNL     1       2.020   7.834  19.533  0.00  0.00    +0.000 C 
ATOM      8  O   UNL     1       2.114   8.580  18.568  0.00  0.00    +0.000 OA
ATOM      9  S   UNL     1      -0.127   9.310  22.439  0.00  0.00    +0.000 S 
ATOM     10  H   UNL     1       1.193   7.338  21.388  0.00  0.00    +0.000 HD
ENDROOT
BRANCH   7  11
ATOM     11  C   UNL     1       2.660   6.459  19.519  0.00  0.00    +0.000 C 
BRANCH  11  12
ATOM     12  C   UNL     1       3.007   5.957  18.116  0.00  0.00    +0.000 C 
ATOM     13  C   UNL     1       2.515   4.525  17.796  0.00  0.00    +0.000 C 
ATOM     14  C   UNL     1       3.821   3.770  17.504  0.00  0.00    +0.000 C 
ATOM     15  C   UNL     1       4.622   3.647  18.816  0.00  0.00    +0.000 C 
ATOM     16  C   UNL     1       5.244   5.043  18.971  0.00  0.00    +0.000 C 
ATOM     17  C   UNL     1       4.540   5.846  17.861  0.00  0.00    +0.000 C 
ATOM     18  C   UNL     1       4.606   4.823  16.723  0.00  0.00    +0.000 C 
ENDBRANCH  11  12
ENDBRANCH   7  11
TORSDOF 2
ENDMDL
