MODEL 1
REMARK VINA RESULT:      -8.3      0.000      0.000
REMARK  Name = 
REMARK  5 active torsions:
REMARK  status: ('A' for Active; 'I' for Inactive)
REMARK    1  A    between atoms: C_1  and  N_2
REMARK    2  A    between atoms: N_7  and  S_8
REMARK    3  A    between atoms: S_8  and  C_11
REMARK    4  A    between atoms: C_17  and  C_18
REMARK    5  A    between atoms: C_21  and  N_22
REMARK                            x       y       z     vdW  Elec       q    Type
REMARK                         _______ _______ _______ _____ _____    ______ ____
ROOT
ATOM      1  C   UNL     1       1.637   4.106  18.579  0.00  0.00    +0.000 C 
ATOM      2  N   UNL     1       2.277   3.602  17.363  0.00  0.00    +0.000 NA
ATOM      3  O   UNL     1       2.271   2.153  17.640  0.00  0.00    +0.000 OA
ATOM      4  C   UNL     1       3.516   1.841  18.307  0.00  0.00    +0.000 C 
ATOM      5  C   UNL     1       4.442   3.033  18.112  0.00  0.00    +0.000 C 
ATOM      6  C   UNL     1       4.702   3.913  19.348  0.00  0.00    +0.000 C 
ATOM      7  N   UNL     1       5.346   5.240  19.013  0.00  0.00    +0.000 NA
ATOM      8  C   UNL     1       4.686   6.034  17.888  0.00  0.00    +0.000 C 
ATOM      9  C   UNL     1       4.460   5.083  16.709  0.00  0.00    +0.000 C 
ATOM     10  C   UNL     1       3.705   3.791  17.045  0.00  0.00    +0.000 C 
ENDROOT
BRANCH   8  11
ATOM     11  C   UNL     1       3.421   6.831  18.241  0.00  0.00    +0.000 A 
ATOM     12  C   UNL     1       2.830   7.737  17.353  0.00  0.00    +0.000 A 
ATOM     13  C   UNL     1       1.896   8.683  17.821  0.00  0.00    +0.000 A 
ATOM     14  C   UNL     1       1.538   8.724  19.180  0.00  0.00    +0.000 A 
ATOM     15  C   UNL     1       1.955   7.686  20.011  0.00  0.00    +0.000 A 
ATOM     16  C   UNL     1       2.851   6.732  19.529  0.00  0.00    +0.000 A 
BRANCH  14  17
ATOM     17  N   UNL     1       0.858   9.847  19.738  0.00  0.00    +0.000 N 
ATOM     18  C   UNL     1       0.537  10.060  21.061  0.00  0.00    +0.000 A 
ATOM     19  C   UNL     1      -0.181  11.233  21.100  0.00  0.00    +0.000 A 
ATOM     20  N   UNL     1      -0.329  11.753  19.849  0.00  0.00    +0.000 NA
ATOM     21  C   UNL     1       0.288  10.906  19.055  0.00  0.00    +0.000 A 
ENDBRANCH  14  17
ENDBRANCH   8  11
BRANCH   7  22
ATOM     22  S   UNL     1       7.072   5.176  18.916  0.00  0.00    +0.000 S 
ATOM     23  O   UNL     1       7.590   4.962  20.245  0.00  0.00    +0.000 OA
ATOM     24  O   UNL     1       7.438   4.311  17.821  0.00  0.00    +0.000 OA
BRANCH  22  25
ATOM     25  C   UNL     1       7.531   6.824  18.403  0.00  0.00    +0.000 A 
ATOM     26  C   UNL     1       6.816   7.480  17.393  0.00  0.00    +0.000 A 
ATOM     27  C   UNL     1       7.099   8.819  17.107  0.00  0.00    +0.000 A 
ATOM     28  C   UNL     1       8.085   9.497  17.827  0.00  0.00    +0.000 A 
ATOM     29  C   UNL     1       8.791   8.841  18.836  0.00  0.00    +0.000 A 
ATOM     30  C   UNL     1       8.516   7.504  19.127  0.00  0.00    +0.000 A 
ENDBRANCH  22  25
ENDBRANCH   7  22
TORSDOF 4
ENDMDL
MODEL 2
REMARK VINA RESULT:      -8.1      1.333      1.577
REMARK  Name = 
REMARK  5 active torsions:
REMARK  status: ('A' for Active; 'I' for Inactive)
REMARK    1  A    between atoms: C_1  and  N_2
REMARK    2  A    between atoms: N_7  and  S_8
REMARK    3  A    between atoms: S_8  and  C_11
REMARK    4  A    between atoms: C_17  and  C_18
REMARK    5  A    between atoms: C_21  and  N_22
REMARK                            x       y       z     vdW  Elec       q    Type
REMARK                         _______ _______ _______ _____ _____    ______ ____
ROOT
ATOM      1  C   UNL     1       1.113   4.704  20.443  0.00  0.00    +0.000 C 
ATOM      2  N   UNL     1       1.073   3.744  19.339  0.00  0.00    +0.000 NA
ATOM      3  O   UNL     1       1.228   2.478  20.080  0.00  0.00    +0.000 OA
ATOM      4  C   UNL     1       2.645   2.193  20.146  0.00  0.00    +0.000 C 
ATOM      5  C   UNL     1       3.332   3.094  19.130  0.00  0.00    +0.000 C 
ATOM      6  C   UNL     1       4.158   4.264  19.695  0.00  0.00    +0.000 C 
ATOM      7  N   UNL     1       4.528   5.293  18.650  0.00  0.00    +0.000 NA
ATOM      8  C   UNL     1       3.384   5.788  17.768  0.00  0.00    +0.000 C 
ATOM      9  C   UNL     1       2.618   4.564  17.260  0.00  0.00    +0.000 C 
ATOM     10  C   UNL     1       2.150   3.586  18.344  0.00  0.00    +0.000 C 
ENDROOT
BRANCH   8  11
ATOM     11  C   UNL     1       2.450   6.851  18.364  0.00  0.00    +0.000 A 
ATOM     12  C   UNL     1       1.727   7.748  17.570  0.00  0.00    +0.000 A 
ATOM     13  C   UNL     1       1.161   8.906  18.141  0.00  0.00    +0.000 A 
ATOM     14  C   UNL     1       1.304   9.170  19.514  0.00  0.00    +0.000 A 
ATOM     15  C   UNL     1       1.826   8.172  20.334  0.00  0.00    +0.000 A 
ATOM     16  C   UNL     1       2.352   7.012  19.763  0.00  0.00    +0.000 A 
BRANCH  14  17
ATOM     17  N   UNL     1       1.030  10.460  20.057  0.00  0.00    +0.000 N 
ATOM     18  C   UNL     1       1.150  11.678  19.425  0.00  0.00    +0.000 A 
ATOM     19  C   UNL     1       0.854  12.635  20.369  0.00  0.00    +0.000 A 
ATOM     20  N   UNL     1       0.565  12.058  21.569  0.00  0.00    +0.000 NA
ATOM     21  C   UNL     1       0.686  10.765  21.361  0.00  0.00    +0.000 A 
ENDBRANCH  14  17
ENDBRANCH   8  11
BRANCH   7  22
ATOM     22  S   UNL     1       5.979   4.920  17.784  0.00  0.00    +0.000 S 
ATOM     23  O   UNL     1       6.694   3.905  18.519  0.00  0.00    +0.000 OA
ATOM     24  O   UNL     1       5.649   4.743  16.391  0.00  0.00    +0.000 OA
BRANCH  22  25
ATOM     25  C   UNL     1       6.926   6.432  17.868  0.00  0.00    +0.000 A 
ATOM     26  C   UNL     1       6.530   7.561  17.138  0.00  0.00    +0.000 A 
ATOM     27  C   UNL     1       7.200   8.773  17.328  0.00  0.00    +0.000 A 
ATOM     28  C   UNL     1       8.252   8.858  18.242  0.00  0.00    +0.000 A 
ATOM     29  C   UNL     1       8.640   7.733  18.971  0.00  0.00    +0.000 A 
ATOM     30  C   UNL     1       7.977   6.518  18.786  0.00  0.00    +0.000 A 
ENDBRANCH  22  25
ENDBRANCH   7  22
TORSDOF 4
ENDMDL
MODEL 3
REMARK VINA RESULT:      -8.1      0.846      1.359
REMARK  Name = 
REMARK  5 active torsions:
REMARK  status: ('A' for Active; 'I' for Inactive)
REMARK    1  A    between atoms: C_1  and  N_2
REMARK    2  A    between atoms: N_7  and  S_8
REMARK    3  A    between atoms: S_8  and  C_11
REMARK    4  A    between atoms: C_17  and  C_18
REMARK    5  A    between atoms: C_21  and  N_22
REMARK                            x       y       z     vdW  Elec       q    Type
REMARK                         _______ _______ _______ _____ _____    ______ ____
ROOT
ATOM      1  C   UNL     1       1.655   4.052  19.434  0.00  0.00    +0.000 C 
ATOM      2  N   UNL     1       1.889   3.409  18.141  0.00  0.00    +0.000 NA
ATOM      3  O   UNL     1       2.072   2.009  18.568  0.00  0.00    +0.000 OA
ATOM      4  C   UNL     1       3.487   1.818  18.806  0.00  0.00    +0.000 C 
ATOM      5  C   UNL     1       4.212   2.997  18.174  0.00  0.00    +0.000 C 
ATOM      6  C   UNL     1       4.808   4.038  19.140  0.00  0.00    +0.000 C 
ATOM      7  N   UNL     1       5.212   5.325  18.456  0.00  0.00    +0.000 NA
ATOM      8  C   UNL     1       4.164   5.948  17.537  0.00  0.00    +0.000 C 
ATOM      9  C   UNL     1       3.625   4.845  16.622  0.00  0.00    +0.000 C 
ATOM     10  C   UNL     1       3.113   3.590  17.339  0.00  0.00    +0.000 C 
ENDROOT
BRANCH   8  11
ATOM     11  C   UNL     1       3.038   6.752  18.203  0.00  0.00    +0.000 A 
ATOM     12  C   UNL     1       2.275   7.697  17.506  0.00  0.00    +0.000 A 
ATOM     13  C   UNL     1       1.501   8.641  18.209  0.00  0.00    +0.000 A 
ATOM     14  C   UNL     1       1.475   8.643  19.615  0.00  0.00    +0.000 A 
ATOM     15  C   UNL     1       2.052   7.572  20.293  0.00  0.00    +0.000 A 
ATOM     16  C   UNL     1       2.786   6.620  19.585  0.00  0.00    +0.000 A 
BRANCH  14  17
ATOM     17  N   UNL     1       0.972   9.758  20.349  0.00  0.00    +0.000 N 
ATOM     18  C   UNL     1       0.663  11.010  19.865  0.00  0.00    +0.000 A 
ATOM     19  C   UNL     1       0.295  11.766  20.955  0.00  0.00    +0.000 A 
ATOM     20  N   UNL     1       0.375  11.034  22.101  0.00  0.00    +0.000 NA
ATOM     21  C   UNL     1       0.790   9.846  21.717  0.00  0.00    +0.000 A 
ENDBRANCH  14  17
ENDBRANCH   8  11
BRANCH   7  22
ATOM     22  S   UNL     1       6.808   5.291  17.789  0.00  0.00    +0.000 S 
ATOM     23  O   UNL     1       7.604   4.377  18.571  0.00  0.00    +0.000 OA
ATOM     24  O   UNL     1       6.705   5.159  16.358  0.00  0.00    +0.000 OA
BRANCH  22  25
ATOM     25  C   UNL     1       7.425   6.943  18.077  0.00  0.00    +0.000 A 
ATOM     26  C   UNL     1       8.390   7.180  19.065  0.00  0.00    +0.000 A 
ATOM     27  C   UNL     1       8.962   8.451  19.178  0.00  0.00    +0.000 A 
ATOM     28  C   UNL     1       8.578   9.473  18.308  0.00  0.00    +0.000 A 
ATOM     29  C   UNL     1       7.621   9.231  17.322  0.00  0.00    +0.000 A 
ATOM     30  C   UNL     1       7.043   7.966  17.203  0.00  0.00    +0.000 A 
ENDBRANCH  22  25
ENDBRANCH   7  22
TORSDOF 4
ENDMDL
MODEL 4
REMARK VINA RESULT:      -8.0      2.114      2.763
REMARK  Name = 
REMARK  5 active torsions:
REMARK  status: ('A' for Active; 'I' for Inactive)
REMARK    1  A    between atoms: C_1  and  N_2
REMARK    2  A    between atoms: N_7  and  S_8
REMARK    3  A    between atoms: S_8  and  C_11
REMARK    4  A    between atoms: C_17  and  C_18
REMARK    5  A    between atoms: C_21  and  N_22
REMARK                            x       y       z     vdW  Elec       q    Type
REMARK                         _______ _______ _______ _____ _____    ______ ____
ROOT
ATOM      1  C   UNL     1       1.113   4.743  20.297  0.00  0.00    +0.000 C 
ATOM      2  N   UNL     1       1.292   3.919  19.101  0.00  0.00    +0.000 NA
ATOM      3  O   UNL     1       1.455   2.588  19.717  0.00  0.00    +0.000 OA
ATOM      4  C   UNL     1       2.872   2.394  19.942  0.00  0.00    +0.000 C 
ATOM      5  C   UNL     1       3.605   3.452  19.131  0.00  0.00    +0.000 C 
ATOM      6  C   UNL     1       4.254   4.601  19.925  0.00  0.00    +0.000 C 
ATOM      7  N   UNL     1       4.669   5.768  19.056  0.00  0.00    +0.000 NA
ATOM      8  C   UNL     1       3.609   6.285  18.086  0.00  0.00    +0.000 C 
ATOM      9  C   UNL     1       3.016   5.079  17.350  0.00  0.00    +0.000 C 
ATOM     10  C   UNL     1       2.497   3.952  18.250  0.00  0.00    +0.000 C 
ENDROOT
BRANCH   8  11
ATOM     11  C   UNL     1       2.522   7.205  18.661  0.00  0.00    +0.000 A 
ATOM     12  C   UNL     1       1.809   8.113  17.870  0.00  0.00    +0.000 A 
ATOM     13  C   UNL     1       1.081   9.160  18.471  0.00  0.00    +0.000 A 
ATOM     14  C   UNL     1       1.051   9.300  19.869  0.00  0.00    +0.000 A 
ATOM     15  C   UNL     1       1.572   8.273  20.654  0.00  0.00    +0.000 A 
ATOM     16  C   UNL     1       2.260   7.221  20.048  0.00  0.00    +0.000 A 
BRANCH  14  17
ATOM     17  N   UNL     1       0.603  10.505  20.488  0.00  0.00    +0.000 N 
ATOM     18  C   UNL     1       0.564  11.766  19.935  0.00  0.00    +0.000 A 
ATOM     19  C   UNL     1       0.136  12.612  20.932  0.00  0.00    +0.000 A 
ATOM     20  N   UNL     1      -0.082  11.926  22.089  0.00  0.00    +0.000 NA
ATOM     21  C   UNL     1       0.213  10.677  21.803  0.00  0.00    +0.000 A 
ENDBRANCH  14  17
ENDBRANCH   8  11
BRANCH   7  22
ATOM     22  S   UNL     1       6.243   5.597  18.360  0.00  0.00    +0.000 S 
ATOM     23  O   UNL     1       6.857   6.902  18.309  0.00  0.00    +0.000 OA
ATOM     24  O   UNL     1       6.905   4.482  18.989  0.00  0.00    +0.000 OA
BRANCH  22  25
ATOM     25  C   UNL     1       5.913   5.078  16.682  0.00  0.00    +0.000 A 
ATOM     26  C   UNL     1       5.731   6.026  15.667  0.00  0.00    +0.000 A 
ATOM     27  C   UNL     1       5.617   5.601  14.340  0.00  0.00    +0.000 A 
ATOM     28  C   UNL     1       5.688   4.241  14.030  0.00  0.00    +0.000 A 
ATOM     29  C   UNL     1       5.875   3.300  15.045  0.00  0.00    +0.000 A 
ATOM     30  C   UNL     1       5.988   3.716  16.372  0.00  0.00    +0.000 A 
ENDBRANCH  22  25
ENDBRANCH   7  22
TORSDOF 4
ENDMDL
MODEL 5
REMARK VINA RESULT:      -7.9      2.086      5.057
REMARK  Name = 
REMARK  5 active torsions:
REMARK  status: ('A' for Active; 'I' for Inactive)
REMARK    1  A    between atoms: C_1  and  N_2
REMARK    2  A    between atoms: N_7  and  S_8
REMARK    3  A    between atoms: S_8  and  C_11
REMARK    4  A    between atoms: C_17  and  C_18
REMARK    5  A    between atoms: C_21  and  N_22
REMARK                            x       y       z     vdW  Elec       q    Type
REMARK                         _______ _______ _______ _____ _____    ______ ____
ROOT
ATOM      1  C   UNL     1       5.560   7.773  16.993  0.00  0.00    +0.000 C 
ATOM      2  N   UNL     1       6.439   6.939  17.813  0.00  0.00    +0.000 NA
ATOM      3  O   UNL     1       7.491   6.614  16.831  0.00  0.00    +0.000 OA
ATOM      4  C   UNL     1       7.098   5.384  16.177  0.00  0.00    +0.000 C 
ATOM      5  C   UNL     1       5.989   4.764  17.014  0.00  0.00    +0.000 C 
ATOM      6  C   UNL     1       4.568   4.821  16.425  0.00  0.00    +0.000 C 
ATOM      7  N   UNL     1       3.489   4.495  17.434  0.00  0.00    +0.000 NA
ATOM      8  C   UNL     1       3.575   5.240  18.764  0.00  0.00    +0.000 C 
ATOM      9  C   UNL     1       5.017   5.138  19.268  0.00  0.00    +0.000 C 
ATOM     10  C   UNL     1       6.094   5.580  18.271  0.00  0.00    +0.000 C 
ENDROOT
BRANCH   8  11
ATOM     11  C   UNL     1       3.051   6.684  18.793  0.00  0.00    +0.000 A 
ATOM     12  C   UNL     1       2.609   7.300  19.969  0.00  0.00    +0.000 A 
ATOM     13  C   UNL     1       1.832   8.474  19.906  0.00  0.00    +0.000 A 
ATOM     14  C   UNL     1       1.499   9.048  18.667  0.00  0.00    +0.000 A 
ATOM     15  C   UNL     1       2.123   8.563  17.519  0.00  0.00    +0.000 A 
ATOM     16  C   UNL     1       2.921   7.421  17.596  0.00  0.00    +0.000 A 
BRANCH  14  17
ATOM     17  N   UNL     1       0.469  10.028  18.552  0.00  0.00    +0.000 N 
ATOM     18  C   UNL     1       0.361  11.214  19.244  0.00  0.00    +0.000 A 
ATOM     19  C   UNL     1      -0.831  11.781  18.855  0.00  0.00    +0.000 A 
ATOM     20  N   UNL     1      -1.475  10.986  17.955  0.00  0.00    +0.000 NA
ATOM     21  C   UNL     1      -0.687   9.945  17.798  0.00  0.00    +0.000 A 
ENDBRANCH  14  17
ENDBRANCH   8  11
BRANCH   7  22
ATOM     22  S   UNL     1       3.165   2.803  17.591  0.00  0.00    +0.000 S 
ATOM     23  O   UNL     1       2.136   2.451  16.643  0.00  0.00    +0.000 OA
ATOM     24  O   UNL     1       4.422   2.097  17.627  0.00  0.00    +0.000 OA
BRANCH  22  25
ATOM     25  C   UNL     1       2.478   2.651  19.233  0.00  0.00    +0.000 A 
ATOM     26  C   UNL     1       3.297   2.309  20.317  0.00  0.00    +0.000 A 
ATOM     27  C   UNL     1       2.770   2.335  21.612  0.00  0.00    +0.000 A 
ATOM     28  C   UNL     1       1.440   2.705  21.821  0.00  0.00    +0.000 A 
ATOM     29  C   UNL     1       0.630   3.050  20.738  0.00  0.00    +0.000 A 
ATOM     30  C   UNL     1       1.147   3.025  19.442  0.00  0.00    +0.000 A 
ENDBRANCH  22  25
ENDBRANCH   7  22
TORSDOF 4
ENDMDL
MODEL 6
REMARK VINA RESULT:      -7.9      4.776      8.266
REMARK  Name = 
REMARK  5 active torsions:
REMARK  status: ('A' for Active; 'I' for Inactive)
REMARK    1  A    between atoms: C_1  and  N_2
REMARK    2  A    between atoms: N_7  and  S_8
REMARK    3  A    between atoms: S_8  and  C_11
REMARK    4  A    between atoms: C_17  and  C_18
REMARK    5  A    between atoms: C_21  and  N_22
REMARK                            x       y       z     vdW  Elec       q    Type
REMARK                         _______ _______ _______ _____ _____    ______ ____
ROOT
ATOM      1  C   UNL     1      -1.294   9.669  17.579  0.00  0.00    +0.000 C 
ATOM      2  N   UNL     1      -2.065  10.031  18.769  0.00  0.00    +0.000 NA
ATOM      3  O   UNL     1      -3.132  10.847  18.158  0.00  0.00    +0.000 OA
ATOM      4  C   UNL     1      -2.674  12.219  18.160  0.00  0.00    +0.000 C 
ATOM      5  C   UNL     1      -1.481  12.293  19.102  0.00  0.00    +0.000 C 
ATOM      6  C   UNL     1      -0.097  12.468  18.450  0.00  0.00    +0.000 C 
ATOM      7  N   UNL     1       1.049  12.204  19.400  0.00  0.00    +0.000 NA
ATOM      8  C   UNL     1       0.966  10.904  20.198  0.00  0.00    +0.000 C 
ATOM      9  C   UNL     1      -0.439  10.812  20.801  0.00  0.00    +0.000 C 
ATOM     10  C   UNL     1      -1.593  10.970  19.804  0.00  0.00    +0.000 C 
ENDROOT
BRANCH   8  11
ATOM     11  C   UNL     1       1.374   9.611  19.476  0.00  0.00    +0.000 A 
ATOM     12  C   UNL     1       1.433   8.373  20.126  0.00  0.00    +0.000 A 
ATOM     13  C   UNL     1       2.125   7.296  19.539  0.00  0.00    +0.000 A 
ATOM     14  C   UNL     1       2.755   7.444  18.291  0.00  0.00    +0.000 A 
ATOM     15  C   UNL     1       2.506   8.598  17.552  0.00  0.00    +0.000 A 
ATOM     16  C   UNL     1       1.788   9.647  18.128  0.00  0.00    +0.000 A 
BRANCH  14  17
ATOM     17  N   UNL     1       3.716   6.498  17.824  0.00  0.00    +0.000 N 
ATOM     18  C   UNL     1       4.915   6.761  17.199  0.00  0.00    +0.000 A 
ATOM     19  C   UNL     1       5.453   5.539  16.865  0.00  0.00    +0.000 A 
ATOM     20  N   UNL     1       4.627   4.525  17.250  0.00  0.00    +0.000 NA
ATOM     21  C   UNL     1       3.596   5.121  17.808  0.00  0.00    +0.000 A 
ENDBRANCH  14  17
ENDBRANCH   8  11
BRANCH   7  22
ATOM     22  S   UNL     1       1.513  13.581  20.338  0.00  0.00    +0.000 S 
ATOM     23  O   UNL     1       0.337  14.095  20.997  0.00  0.00    +0.000 OA
ATOM     24  O   UNL     1       2.704  13.250  21.081  0.00  0.00    +0.000 OA
BRANCH  22  25
ATOM     25  C   UNL     1       2.026  14.777  19.113  0.00  0.00    +0.000 A 
ATOM     26  C   UNL     1       1.388  16.020  19.023  0.00  0.00    +0.000 A 
ATOM     27  C   UNL     1       1.896  16.994  18.156  0.00  0.00    +0.000 A 
ATOM     28  C   UNL     1       3.034  16.728  17.393  0.00  0.00    +0.000 A 
ATOM     29  C   UNL     1       3.671  15.489  17.491  0.00  0.00    +0.000 A 
ATOM     30  C   UNL     1       3.169  14.512  18.352  0.00  0.00    +0.000 A 
ENDBRANCH  22  25
ENDBRANCH   7  22
TORSDOF 4
ENDMDL
MODEL 7
REMARK VINA RESULT:      -7.7      5.845     10.697
REMARK  Name = 
REMARK  5 active torsions:
REMARK  status: ('A' for Active; 'I' for Inactive)
REMARK    1  A    between atoms: C_1  and  N_2
REMARK    2  A    between atoms: N_7  and  S_8
REMARK    3  A    between atoms: S_8  and  C_11
REMARK    4  A    between atoms: C_17  and  C_18
REMARK    5  A    between atoms: C_21  and  N_22
REMARK                            x       y       z     vdW  Elec       q    Type
REMARK                         _______ _______ _______ _____ _____    ______ ____
ROOT
ATOM      1  C   UNL     1       2.174  12.910  19.325  0.00  0.00    +0.000 C 
ATOM      2  N   UNL     1       1.381  13.964  18.692  0.00  0.00    +0.000 NA
ATOM      3  O   UNL     1       2.390  15.036  18.596  0.00  0.00    +0.000 OA
ATOM      4  C   UNL     1       2.291  15.825  19.805  0.00  0.00    +0.000 C 
ATOM      5  C   UNL     1       0.976  15.456  20.476  0.00  0.00    +0.000 C 
ATOM      6  C   UNL     1       1.071  14.609  21.759  0.00  0.00    +0.000 C 
ATOM      7  N   UNL     1      -0.253  14.009  22.178  0.00  0.00    +0.000 NA
ATOM      8  C   UNL     1      -1.030  13.282  21.083  0.00  0.00    +0.000 C 
ATOM      9  C   UNL     1      -1.067  14.190  19.850  0.00  0.00    +0.000 C 
ATOM     10  C   UNL     1       0.297  14.700  19.370  0.00  0.00    +0.000 C 
ENDROOT
BRANCH   8  11
ATOM     11  C   UNL     1      -0.584  11.853  20.738  0.00  0.00    +0.000 A 
ATOM     12  C   UNL     1       0.170  11.068  21.616  0.00  0.00    +0.000 A 
ATOM     13  C   UNL     1       0.840   9.920  21.146  0.00  0.00    +0.000 A 
ATOM     14  C   UNL     1       0.752   9.543  19.795  0.00  0.00    +0.000 A 
ATOM     15  C   UNL     1      -0.172  10.193  18.980  0.00  0.00    +0.000 A 
ATOM     16  C   UNL     1      -0.859  11.307  19.466  0.00  0.00    +0.000 A 
BRANCH  14  17
ATOM     17  N   UNL     1       1.654   8.596  19.225  0.00  0.00    +0.000 N 
ATOM     18  C   UNL     1       2.190   8.607  17.956  0.00  0.00    +0.000 A 
ATOM     19  C   UNL     1       2.933   7.455  17.840  0.00  0.00    +0.000 A 
ATOM     20  N   UNL     1       2.872   6.721  18.987  0.00  0.00    +0.000 NA
ATOM     21  C   UNL     1       2.096   7.415  19.791  0.00  0.00    +0.000 A 
ENDBRANCH  14  17
ENDBRANCH   8  11
BRANCH   7  22
ATOM     22  S   UNL     1      -1.220  15.059  23.154  0.00  0.00    +0.000 S 
ATOM     23  O   UNL     1      -0.647  15.098  24.478  0.00  0.00    +0.000 OA
ATOM     24  O   UNL     1      -1.475  16.269  22.413  0.00  0.00    +0.000 OA
BRANCH  22  25
ATOM     25  C   UNL     1      -2.792  14.216  23.258  0.00  0.00    +0.000 A 
ATOM     26  C   UNL     1      -2.924  13.049  24.023  0.00  0.00    +0.000 A 
ATOM     27  C   UNL     1      -4.190  12.486  24.207  0.00  0.00    +0.000 A 
ATOM     28  C   UNL     1      -5.315  13.087  23.637  0.00  0.00    +0.000 A 
ATOM     29  C   UNL     1      -5.179  14.253  22.881  0.00  0.00    +0.000 A 
ATOM     30  C   UNL     1      -3.918  14.820  22.691  0.00  0.00    +0.000 A 
ENDBRANCH  22  25
ENDBRANCH   7  22
TORSDOF 4
ENDMDL
MODEL 8
REMARK VINA RESULT:      -7.6      8.486     10.455
REMARK  Name = 
REMARK  5 active torsions:
REMARK  status: ('A' for Active; 'I' for Inactive)
REMARK    1  A    between atoms: C_1  and  N_2
REMARK    2  A    between atoms: N_7  and  S_8
REMARK    3  A    between atoms: S_8  and  C_11
REMARK    4  A    between atoms: C_17  and  C_18
REMARK    5  A    between atoms: C_21  and  N_22
REMARK                            x       y       z     vdW  Elec       q    Type
REMARK                         _______ _______ _______ _____ _____    ______ ____
ROOT
ATOM      1  C   UNL     1       5.593  15.110  24.244  0.00  0.00    +0.000 C 
ATOM      2  N   UNL     1       6.527  16.205  24.513  0.00  0.00    +0.000 NA
ATOM      3  O   UNL     1       5.738  17.353  24.025  0.00  0.00    +0.000 OA
ATOM      4  C   UNL     1       6.076  17.540  22.630  0.00  0.00    +0.000 C 
ATOM      5  C   UNL     1       7.341  16.737  22.362  0.00  0.00    +0.000 C 
ATOM      6  C   UNL     1       7.178  15.455  21.525  0.00  0.00    +0.000 C 
ATOM      7  N   UNL     1       8.387  14.549  21.578  0.00  0.00    +0.000 NA
ATOM      8  C   UNL     1       8.928  14.242  22.973  0.00  0.00    +0.000 C 
ATOM      9  C   UNL     1       9.049  15.566  23.732  0.00  0.00    +0.000 C 
ATOM     10  C   UNL     1       7.778  16.423  23.764  0.00  0.00    +0.000 C 
ENDROOT
BRANCH   8  11
ATOM     11  C   UNL     1       8.191  13.170  23.790  0.00  0.00    +0.000 A 
ATOM     12  C   UNL     1       7.262  12.294  23.217  0.00  0.00    +0.000 A 
ATOM     13  C   UNL     1       6.370  11.571  24.035  0.00  0.00    +0.000 A 
ATOM     14  C   UNL     1       6.408  11.710  25.433  0.00  0.00    +0.000 A 
ATOM     15  C   UNL     1       7.472  12.404  26.005  0.00  0.00    +0.000 A 
ATOM     16  C   UNL     1       8.372  13.087  25.187  0.00  0.00    +0.000 A 
BRANCH  14  17
ATOM     17  N   UNL     1       5.336  11.253  26.257  0.00  0.00    +0.000 N 
ATOM     18  C   UNL     1       4.645  10.066  26.150  0.00  0.00    +0.000 A 
ATOM     19  C   UNL     1       3.656  10.108  27.106  0.00  0.00    +0.000 A 
ATOM     20  N   UNL     1       3.699  11.282  27.797  0.00  0.00    +0.000 NA
ATOM     21  C   UNL     1       4.700  11.951  27.266  0.00  0.00    +0.000 A 
ENDBRANCH  14  17
ENDBRANCH   8  11
BRANCH   7  22
ATOM     22  S   UNL     1       9.608  14.940  20.416  0.00  0.00    +0.000 S 
ATOM     23  O   UNL     1       9.105  16.000  19.576  0.00  0.00    +0.000 OA
ATOM     24  O   UNL     1      10.870  15.063  21.101  0.00  0.00    +0.000 OA
BRANCH  22  25
ATOM     25  C   UNL     1       9.739  13.462  19.422  0.00  0.00    +0.000 A 
ATOM     26  C   UNL     1      10.384  13.497  18.179  0.00  0.00    +0.000 A 
ATOM     27  C   UNL     1      10.603  12.304  17.483  0.00  0.00    +0.000 A 
ATOM     28  C   UNL     1      10.184  11.087  18.027  0.00  0.00    +0.000 A 
ATOM     29  C   UNL     1       9.547  11.058  19.268  0.00  0.00    +0.000 A 
ATOM     30  C   UNL     1       9.324  12.244  19.969  0.00  0.00    +0.000 A 
ENDBRANCH  22  25
ENDBRANCH   7  22
TORSDOF 4
ENDMDL
MODEL 9
REMARK VINA RESULT:      -7.5      8.727     10.208
REMARK  Name = 
REMARK  5 active torsions:
REMARK  status: ('A' for Active; 'I' for Inactive)
REMARK    1  A    between atoms: C_1  and  N_2
REMARK    2  A    between atoms: N_7  and  S_8
REMARK    3  A    between atoms: S_8  and  C_11
REMARK    4  A    between atoms: C_17  and  C_18
REMARK    5  A    between atoms: C_21  and  N_22
REMARK                            x       y       z     vdW  Elec       q    Type
REMARK                         _______ _______ _______ _____ _____    ______ ____
ROOT
ATOM      1  C   UNL     1       4.822  14.878  23.272  0.00  0.00    +0.000 C 
ATOM      2  N   UNL     1       5.390  16.226  23.292  0.00  0.00    +0.000 NA
ATOM      3  O   UNL     1       4.362  16.961  22.531  0.00  0.00    +0.000 OA
ATOM      4  C   UNL     1       4.755  16.924  21.138  0.00  0.00    +0.000 C 
ATOM      5  C   UNL     1       6.211  16.481  21.094  0.00  0.00    +0.000 C 
ATOM      6  C   UNL     1       6.482  15.055  20.581  0.00  0.00    +0.000 C 
ATOM      7  N   UNL     1       7.885  14.572  20.872  0.00  0.00    +0.000 NA
ATOM      8  C   UNL     1       8.365  14.750  22.311  0.00  0.00    +0.000 C 
ATOM      9  C   UNL     1       8.050  16.187  22.737  0.00  0.00    +0.000 C 
ATOM     10  C   UNL     1       6.594  16.625  22.539  0.00  0.00    +0.000 C 
ENDROOT
BRANCH   8  11
ATOM     11  C   UNL     1       7.884  13.720  23.343  0.00  0.00    +0.000 A 
ATOM     12  C   UNL     1       7.293  12.506  22.975  0.00  0.00    +0.000 A 
ATOM     13  C   UNL     1       6.567  11.754  23.921  0.00  0.00    +0.000 A 
ATOM     14  C   UNL     1       6.435  12.206  25.246  0.00  0.00    +0.000 A 
ATOM     15  C   UNL     1       7.205  13.290  25.660  0.00  0.00    +0.000 A 
ATOM     16  C   UNL     1       7.951  14.007  24.723  0.00  0.00    +0.000 A 
BRANCH  14  17
ATOM     17  N   UNL     1       5.462  11.650  26.129  0.00  0.00    +0.000 N 
ATOM     18  C   UNL     1       4.917  10.386  26.086  0.00  0.00    +0.000 A 
ATOM     19  C   UNL     1       3.970  10.340  27.084  0.00  0.00    +0.000 A 
ATOM     20  N   UNL     1       3.898  11.532  27.739  0.00  0.00    +0.000 NA
ATOM     21  C   UNL     1       4.787  12.299  27.146  0.00  0.00    +0.000 A 
ENDBRANCH  14  17
ENDBRANCH   8  11
BRANCH   7  22
ATOM     22  S   UNL     1       9.047  15.032  19.676  0.00  0.00    +0.000 S 
ATOM     23  O   UNL     1       8.336  15.391  18.473  0.00  0.00    +0.000 OA
ATOM     24  O   UNL     1       9.996  15.932  20.282  0.00  0.00    +0.000 OA
BRANCH  22  25
ATOM     25  C   UNL     1       9.948  13.524  19.355  0.00  0.00    +0.000 A 
ATOM     26  C   UNL     1       9.797  12.851  18.135  0.00  0.00    +0.000 A 
ATOM     27  C   UNL     1      10.616  11.755  17.847  0.00  0.00    +0.000 A 
ATOM     28  C   UNL     1      11.580  11.339  18.767  0.00  0.00    +0.000 A 
ATOM     29  C   UNL     1      11.730  12.015  19.979  0.00  0.00    +0.000 A 
ATOM     30  C   UNL     1      10.916  13.109  20.275  0.00  0.00    +0.000 A 
ENDBRANCH  22  25
ENDBRANCH   7  22
TORSDOF 4
ENDMDL
