MODEL 1
REMARK VINA RESULT:      -8.1      0.000      0.000
REMARK  Name = 
REMARK  7 active torsions:
REMARK  status: ('A' for Active; 'I' for Inactive)
REMARK    1  A    between atoms: C_2  and  O_3
REMARK    2  A    between atoms: C_2  and  C_4
REMARK    3  A    between atoms: C_4  and  O_5
REMARK    4  A    between atoms: O_5  and  C_6
REMARK    5  A    between atoms: C_11  and  C_12
REMARK    6  A    between atoms: C_12  and  C_14
REMARK    7  A    between atoms: N_17  and  C_18
REMARK                            x       y       z     vdW  Elec       q    Type
REMARK                         _______ _______ _______ _____ _____    ______ ____
ROOT
ATOM      1  C   UNL     1       3.484   6.903  17.971  0.00  0.00    +0.000 C 
ATOM      2  O   UNL     1       4.478   7.210  17.319  0.00  0.00    +0.000 OA
ENDROOT
BRANCH   1   8
ATOM      3  C   UNL     1       4.202   4.674  18.975  0.00  0.00    +0.000 A 
ATOM      4  C   UNL     1       3.956   3.295  19.098  0.00  0.00    +0.000 A 
ATOM      5  C   UNL     1       2.778   2.718  18.621  0.00  0.00    +0.000 A 
ATOM      6  C   UNL     1       1.837   3.509  17.978  0.00  0.00    +0.000 A 
ATOM      7  C   UNL     1       2.084   4.870  17.803  0.00  0.00    +0.000 A 
ATOM      8  C   UNL     1       3.255   5.472  18.308  0.00  0.00    +0.000 A 
BRANCH   3   9
ATOM      9  O   UNL     1       5.407   5.029  19.517  0.00  0.00    +0.000 OA
BRANCH   9  10
ATOM     10  C   UNL     1       6.585   4.933  18.710  0.00  0.00    +0.000 C 
BRANCH  10  12
ATOM     11  O   UNL     1       8.149   6.787  18.714  0.00  0.00    +0.000 OA
ATOM     12  C   UNL     1       7.674   5.820  19.292  0.00  0.00    +0.000 C 
BRANCH  12  13
ATOM     13  O   UNL     1       8.063   5.450  20.536  0.00  0.00    +0.000 OA
ATOM     14  H   UNL     1       7.369   4.885  20.940  0.00  0.00    +0.000 HD
ENDBRANCH  12  13
ENDBRANCH  10  12
ENDBRANCH   9  10
ENDBRANCH   3   9
ENDBRANCH   1   8
BRANCH   1  15
ATOM     15  C   UNL     1       2.499   7.901  18.357  0.00  0.00    +0.000 A 
ATOM     16  C   UNL     1       2.044   9.083  17.735  0.00  0.00    +0.000 A 
ATOM     17  N   UNL     1       1.201   9.779  18.500  0.00  0.00    +0.000 NA
ATOM     18  N   UNL     1       1.099   9.053  19.646  0.00  0.00    +0.000 N 
ATOM     19  C   UNL     1       1.771   7.858  19.527  0.00  0.00    +0.000 A 
BRANCH  18  20
ATOM     20  C   UNL     1       0.442   9.564  20.800  0.00  0.00    +0.000 A 
ATOM     21  C   UNL     1      -0.324  10.733  20.702  0.00  0.00    +0.000 A 
ATOM     22  C   UNL     1      -0.914  11.281  21.843  0.00  0.00    +0.000 A 
ATOM     23  C   UNL     1      -0.739  10.669  23.084  0.00  0.00    +0.000 A 
ATOM     24  C   UNL     1       0.012   9.500  23.184  0.00  0.00    +0.000 A 
ATOM     25  C   UNL     1       0.603   8.945  22.048  0.00  0.00    +0.000 A 
ENDBRANCH  18  20
ENDBRANCH   1  15
TORSDOF 7
ENDMDL
MODEL 2
REMARK VINA RESULT:      -7.9      4.342      8.152
REMARK  Name = 
REMARK  7 active torsions:
REMARK  status: ('A' for Active; 'I' for Inactive)
REMARK    1  A    between atoms: C_2  and  O_3
REMARK    2  A    between atoms: C_2  and  C_4
REMARK    3  A    between atoms: C_4  and  O_5
REMARK    4  A    between atoms: O_5  and  C_6
REMARK    5  A    between atoms: C_11  and  C_12
REMARK    6  A    between atoms: C_12  and  C_14
REMARK    7  A    between atoms: N_17  and  C_18
REMARK                            x       y       z     vdW  Elec       q    Type
REMARK                         _______ _______ _______ _____ _____    ______ ____
ROOT
ATOM      1  C   UNL     1       4.734   4.541  18.786  0.00  0.00    +0.000 C 
ATOM      2  O   UNL     1       4.533   3.616  19.567  0.00  0.00    +0.000 OA
ENDROOT
BRANCH   1   8
ATOM      3  C   UNL     1       2.806   5.885  19.770  0.00  0.00    +0.000 A 
ATOM      4  C   UNL     1       1.946   6.990  19.646  0.00  0.00    +0.000 A 
ATOM      5  C   UNL     1       2.155   7.972  18.676  0.00  0.00    +0.000 A 
ATOM      6  C   UNL     1       3.213   7.846  17.787  0.00  0.00    +0.000 A 
ATOM      7  C   UNL     1       4.047   6.732  17.863  0.00  0.00    +0.000 A 
ATOM      8  C   UNL     1       3.868   5.749  18.858  0.00  0.00    +0.000 A 
BRANCH   3   9
ATOM      9  O   UNL     1       2.425   5.052  20.788  0.00  0.00    +0.000 OA
BRANCH   9  10
ATOM     10  C   UNL     1       1.201   4.322  20.665  0.00  0.00    +0.000 C 
BRANCH  10  12
ATOM     11  O   UNL     1       1.594   2.036  19.957  0.00  0.00    +0.000 OA
ATOM     12  C   UNL     1       1.469   2.840  20.869  0.00  0.00    +0.000 C 
BRANCH  12  13
ATOM     13  O   UNL     1       1.581   2.487  22.173  0.00  0.00    +0.000 OA
ATOM     14  H   UNL     1       0.984   3.047  22.715  0.00  0.00    +0.000 HD
ENDBRANCH  12  13
ENDBRANCH  10  12
ENDBRANCH   9  10
ENDBRANCH   3   9
ENDBRANCH   1   8
BRANCH   1  15
ATOM     15  C   UNL     1       5.753   4.447  17.752  0.00  0.00    +0.000 A 
ATOM     16  C   UNL     1       7.151   4.644  17.770  0.00  0.00    +0.000 A 
ATOM     17  N   UNL     1       7.698   4.569  16.555  0.00  0.00    +0.000 NA
ATOM     18  N   UNL     1       6.652   4.325  15.721  0.00  0.00    +0.000 N 
ATOM     19  C   UNL     1       5.495   4.122  16.438  0.00  0.00    +0.000 A 
BRANCH  18  20
ATOM     20  C   UNL     1       6.794   4.377  14.307  0.00  0.00    +0.000 A 
ATOM     21  C   UNL     1       6.086   3.473  13.504  0.00  0.00    +0.000 A 
ATOM     22  C   UNL     1       6.275   3.470  12.119  0.00  0.00    +0.000 A 
ATOM     23  C   UNL     1       7.170   4.364  11.533  0.00  0.00    +0.000 A 
ATOM     24  C   UNL     1       7.867   5.273  12.326  0.00  0.00    +0.000 A 
ATOM     25  C   UNL     1       7.683   5.284  13.710  0.00  0.00    +0.000 A 
ENDBRANCH  18  20
ENDBRANCH   1  15
TORSDOF 7
ENDMDL
MODEL 3
REMARK VINA RESULT:      -7.8      4.067      7.694
REMARK  Name = 
REMARK  7 active torsions:
REMARK  status: ('A' for Active; 'I' for Inactive)
REMARK    1  A    between atoms: C_2  and  O_3
REMARK    2  A    between atoms: C_2  and  C_4
REMARK    3  A    between atoms: C_4  and  O_5
REMARK    4  A    between atoms: O_5  and  C_6
REMARK    5  A    between atoms: C_11  and  C_12
REMARK    6  A    between atoms: C_12  and  C_14
REMARK    7  A    between atoms: N_17  and  C_18
REMARK                            x       y       z     vdW  Elec       q    Type
REMARK                         _______ _______ _______ _____ _____    ______ ____
ROOT
ATOM      1  C   UNL     1       4.727   4.050  18.832  0.00  0.00    +0.000 C 
ATOM      2  O   UNL     1       5.557   3.661  19.647  0.00  0.00    +0.000 OA
ENDROOT
BRANCH   1   8
ATOM      3  C   UNL     1       2.440   4.668  19.770  0.00  0.00    +0.000 A 
ATOM      4  C   UNL     1       1.140   4.246  20.099  0.00  0.00    +0.000 A 
ATOM      5  C   UNL     1       0.661   2.993  19.715  0.00  0.00    +0.000 A 
ATOM      6  C   UNL     1       1.489   2.123  19.021  0.00  0.00    +0.000 A 
ATOM      7  C   UNL     1       2.798   2.504  18.728  0.00  0.00    +0.000 A 
ATOM      8  C   UNL     1       3.286   3.779  19.082  0.00  0.00    +0.000 A 
BRANCH   3   9
ATOM      9  O   UNL     1       2.701   5.930  20.234  0.00  0.00    +0.000 OA
BRANCH   9  10
ATOM     10  C   UNL     1       2.379   7.053  19.408  0.00  0.00    +0.000 C 
BRANCH  10  12
ATOM     11  O   UNL     1       1.145   9.107  19.780  0.00  0.00    +0.000 OA
ATOM     12  C   UNL     1       1.698   8.123  20.247  0.00  0.00    +0.000 C 
BRANCH  12  13
ATOM     13  O   UNL     1       1.743   7.873  21.578  0.00  0.00    +0.000 OA
ATOM     14  H   UNL     1       0.989   7.297  21.827  0.00  0.00    +0.000 HD
ENDBRANCH  12  13
ENDBRANCH  10  12
ENDBRANCH   9  10
ENDBRANCH   3   9
ENDBRANCH   1   8
BRANCH   1  15
ATOM     15  C   UNL     1       5.133   4.707  17.599  0.00  0.00    +0.000 A 
ATOM     16  C   UNL     1       4.931   6.013  17.103  0.00  0.00    +0.000 A 
ATOM     17  N   UNL     1       5.377   6.166  15.855  0.00  0.00    +0.000 NA
ATOM     18  N   UNL     1       5.875   4.947  15.516  0.00  0.00    +0.000 N 
ATOM     19  C   UNL     1       5.853   4.094  16.596  0.00  0.00    +0.000 A 
BRANCH  18  20
ATOM     20  C   UNL     1       6.267   4.643  14.183  0.00  0.00    +0.000 A 
ATOM     21  C   UNL     1       5.586   3.648  13.469  0.00  0.00    +0.000 A 
ATOM     22  C   UNL     1       6.009   3.294  12.185  0.00  0.00    +0.000 A 
ATOM     23  C   UNL     1       7.110   3.928  11.612  0.00  0.00    +0.000 A 
ATOM     24  C   UNL     1       7.783   4.926  12.313  0.00  0.00    +0.000 A 
ATOM     25  C   UNL     1       7.365   5.287  13.595  0.00  0.00    +0.000 A 
ENDBRANCH  18  20
ENDBRANCH   1  15
TORSDOF 7
ENDMDL
MODEL 4
REMARK VINA RESULT:      -7.8      4.038      7.860
REMARK  Name = 
REMARK  7 active torsions:
REMARK  status: ('A' for Active; 'I' for Inactive)
REMARK    1  A    between atoms: C_2  and  O_3
REMARK    2  A    between atoms: C_2  and  C_4
REMARK    3  A    between atoms: C_4  and  O_5
REMARK    4  A    between atoms: O_5  and  C_6
REMARK    5  A    between atoms: C_11  and  C_12
REMARK    6  A    between atoms: C_12  and  C_14
REMARK    7  A    between atoms: N_17  and  C_18
REMARK                            x       y       z     vdW  Elec       q    Type
REMARK                         _______ _______ _______ _____ _____    ______ ____
ROOT
ATOM      1  C   UNL     1       5.470   4.863  18.884  0.00  0.00    +0.000 C 
ATOM      2  O   UNL     1       5.960   5.097  19.985  0.00  0.00    +0.000 OA
ENDROOT
BRANCH   1   8
ATOM      3  C   UNL     1       2.950   4.890  18.507  0.00  0.00    +0.000 A 
ATOM      4  C   UNL     1       1.726   4.209  18.628  0.00  0.00    +0.000 A 
ATOM      5  C   UNL     1       1.672   2.862  18.992  0.00  0.00    +0.000 A 
ATOM      6  C   UNL     1       2.847   2.180  19.275  0.00  0.00    +0.000 A 
ATOM      7  C   UNL     1       4.067   2.851  19.209  0.00  0.00    +0.000 A 
ATOM      8  C   UNL     1       4.139   4.202  18.812  0.00  0.00    +0.000 A 
BRANCH   3   9
ATOM      9  O   UNL     1       2.774   6.195  18.133  0.00  0.00    +0.000 OA
BRANCH   9  10
ATOM     10  C   UNL     1       2.567   7.185  19.146  0.00  0.00    +0.000 C 
BRANCH  10  12
ATOM     11  O   UNL     1       1.237   9.211  19.073  0.00  0.00    +0.000 OA
ATOM     12  C   UNL     1       2.014   8.451  18.513  0.00  0.00    +0.000 C 
BRANCH  12  13
ATOM     13  O   UNL     1       2.482   8.677  17.262  0.00  0.00    +0.000 OA
ATOM     14  H   UNL     1       1.735   8.920  16.673  0.00  0.00    +0.000 HD
ENDBRANCH  12  13
ENDBRANCH  10  12
ENDBRANCH   9  10
ENDBRANCH   3   9
ENDBRANCH   1   8
BRANCH   1  15
ATOM     15  C   UNL     1       6.195   5.156  17.658  0.00  0.00    +0.000 A 
ATOM     16  C   UNL     1       7.011   6.240  17.268  0.00  0.00    +0.000 A 
ATOM     17  N   UNL     1       7.391   6.168  15.991  0.00  0.00    +0.000 NA
ATOM     18  N   UNL     1       6.817   5.026  15.526  0.00  0.00    +0.000 N 
ATOM     19  C   UNL     1       6.201   4.340  16.548  0.00  0.00    +0.000 A 
BRANCH  18  20
ATOM     20  C   UNL     1       6.820   4.697  14.143  0.00  0.00    +0.000 A 
ATOM     21  C   UNL     1       5.970   3.690  13.666  0.00  0.00    +0.000 A 
ATOM     22  C   UNL     1       6.017   3.312  12.322  0.00  0.00    +0.000 A 
ATOM     23  C   UNL     1       6.913   3.933  11.451  0.00  0.00    +0.000 A 
ATOM     24  C   UNL     1       7.751   4.942  11.918  0.00  0.00    +0.000 A 
ATOM     25  C   UNL     1       7.708   5.327  13.259  0.00  0.00    +0.000 A 
ENDBRANCH  18  20
ENDBRANCH   1  15
TORSDOF 7
ENDMDL
MODEL 5
REMARK VINA RESULT:      -7.7      4.112      7.905
REMARK  Name = 
REMARK  7 active torsions:
REMARK  status: ('A' for Active; 'I' for Inactive)
REMARK    1  A    between atoms: C_2  and  O_3
REMARK    2  A    between atoms: C_2  and  C_4
REMARK    3  A    between atoms: C_4  and  O_5
REMARK    4  A    between atoms: O_5  and  C_6
REMARK    5  A    between atoms: C_11  and  C_12
REMARK    6  A    between atoms: C_12  and  C_14
REMARK    7  A    between atoms: N_17  and  C_18
REMARK                            x       y       z     vdW  Elec       q    Type
REMARK                         _______ _______ _______ _____ _____    ______ ____
ROOT
ATOM      1  C   UNL     1       4.975   4.653  18.875  0.00  0.00    +0.000 C 
ATOM      2  O   UNL     1       5.251   5.227  19.924  0.00  0.00    +0.000 OA
ENDROOT
BRANCH   1   8
ATOM      3  C   UNL     1       2.475   4.774  18.396  0.00  0.00    +0.000 A 
ATOM      4  C   UNL     1       1.227   4.128  18.438  0.00  0.00    +0.000 A 
ATOM      5  C   UNL     1       1.118   2.770  18.743  0.00  0.00    +0.000 A 
ATOM      6  C   UNL     1       2.258   2.040  19.046  0.00  0.00    +0.000 A 
ATOM      7  C   UNL     1       3.499   2.674  19.058  0.00  0.00    +0.000 A 
ATOM      8  C   UNL     1       3.629   4.038  18.721  0.00  0.00    +0.000 A 
BRANCH   3   9
ATOM      9  O   UNL     1       2.355   6.098  18.069  0.00  0.00    +0.000 OA
BRANCH   9  10
ATOM     10  C   UNL     1       2.406   7.077  19.112  0.00  0.00    +0.000 C 
BRANCH  10  12
ATOM     11  O   UNL     1       1.303   9.235  19.189  0.00  0.00    +0.000 OA
ATOM     12  C   UNL     1       1.972   8.427  18.564  0.00  0.00    +0.000 C 
BRANCH  12  13
ATOM     13  O   UNL     1       2.420   8.667  17.307  0.00  0.00    +0.000 OA
ATOM     14  H   UNL     1       3.264   9.166  17.351  0.00  0.00    +0.000 HD
ENDBRANCH  12  13
ENDBRANCH  10  12
ENDBRANCH   9  10
ENDBRANCH   3   9
ENDBRANCH   1   8
BRANCH   1  15
ATOM     15  C   UNL     1       5.959   4.505  17.815  0.00  0.00    +0.000 A 
ATOM     16  C   UNL     1       7.361   4.669  17.785  0.00  0.00    +0.000 A 
ATOM     17  N   UNL     1       7.869   4.548  16.558  0.00  0.00    +0.000 NA
ATOM     18  N   UNL     1       6.793   4.305  15.763  0.00  0.00    +0.000 N 
ATOM     19  C   UNL     1       5.654   4.149  16.519  0.00  0.00    +0.000 A 
BRANCH  18  20
ATOM     20  C   UNL     1       6.894   4.313  14.344  0.00  0.00    +0.000 A 
ATOM     21  C   UNL     1       7.717   5.255  13.711  0.00  0.00    +0.000 A 
ATOM     22  C   UNL     1       7.767   5.315  12.316  0.00  0.00    +0.000 A 
ATOM     23  C   UNL     1       6.996   4.442  11.550  0.00  0.00    +0.000 A 
ATOM     24  C   UNL     1       6.186   3.497  12.174  0.00  0.00    +0.000 A 
ATOM     25  C   UNL     1       6.132   3.428  13.567  0.00  0.00    +0.000 A 
ENDBRANCH  18  20
ENDBRANCH   1  15
TORSDOF 7
ENDMDL
MODEL 6
REMARK VINA RESULT:      -7.7      0.771      1.395
REMARK  Name = 
REMARK  7 active torsions:
REMARK  status: ('A' for Active; 'I' for Inactive)
REMARK    1  A    between atoms: C_2  and  O_3
REMARK    2  A    between atoms: C_2  and  C_4
REMARK    3  A    between atoms: C_4  and  O_5
REMARK    4  A    between atoms: O_5  and  C_6
REMARK    5  A    between atoms: C_11  and  C_12
REMARK    6  A    between atoms: C_12  and  C_14
REMARK    7  A    between atoms: N_17  and  C_18
REMARK                            x       y       z     vdW  Elec       q    Type
REMARK                         _______ _______ _______ _____ _____    ______ ____
ROOT
ATOM      1  C   UNL     1       3.440   7.029  17.835  0.00  0.00    +0.000 C 
ATOM      2  O   UNL     1       4.333   7.331  17.048  0.00  0.00    +0.000 OA
ENDROOT
BRANCH   1   8
ATOM      3  C   UNL     1       4.376   4.950  18.973  0.00  0.00    +0.000 A 
ATOM      4  C   UNL     1       4.240   3.574  19.226  0.00  0.00    +0.000 A 
ATOM      5  C   UNL     1       3.082   2.878  18.873  0.00  0.00    +0.000 A 
ATOM      6  C   UNL     1       2.049   3.544  18.229  0.00  0.00    +0.000 A 
ATOM      7  C   UNL     1       2.185   4.898  17.926  0.00  0.00    +0.000 A 
ATOM      8  C   UNL     1       3.336   5.621  18.304  0.00  0.00    +0.000 A 
BRANCH   3   9
ATOM      9  O   UNL     1       5.582   5.433  19.406  0.00  0.00    +0.000 OA
BRANCH   9  10
ATOM     10  C   UNL     1       6.782   4.779  18.982  0.00  0.00    +0.000 C 
BRANCH  10  12
ATOM     11  O   UNL     1       7.700   4.723  16.738  0.00  0.00    +0.000 OA
ATOM     12  C   UNL     1       7.251   5.379  17.666  0.00  0.00    +0.000 C 
BRANCH  12  13
ATOM     13  O   UNL     1       7.105   6.725  17.606  0.00  0.00    +0.000 OA
ATOM     14  H   UNL     1       7.278   7.031  16.689  0.00  0.00    +0.000 HD
ENDBRANCH  12  13
ENDBRANCH  10  12
ENDBRANCH   9  10
ENDBRANCH   3   9
ENDBRANCH   1   8
BRANCH   1  15
ATOM     15  C   UNL     1       2.448   8.004  18.259  0.00  0.00    +0.000 A 
ATOM     16  C   UNL     1       1.892   9.137  17.626  0.00  0.00    +0.000 A 
ATOM     17  N   UNL     1       1.086   9.834  18.429  0.00  0.00    +0.000 NA
ATOM     18  N   UNL     1       1.111   9.159  19.610  0.00  0.00    +0.000 N 
ATOM     19  C   UNL     1       1.822   7.988  19.487  0.00  0.00    +0.000 A 
BRANCH  18  20
ATOM     20  C   UNL     1       0.531   9.699  20.792  0.00  0.00    +0.000 A 
ATOM     21  C   UNL     1       0.379   8.887  21.924  0.00  0.00    +0.000 A 
ATOM     22  C   UNL     1      -0.253   9.388  23.064  0.00  0.00    +0.000 A 
ATOM     23  C   UNL     1      -0.739  10.695  23.078  0.00  0.00    +0.000 A 
ATOM     24  C   UNL     1      -0.581  11.509  21.960  0.00  0.00    +0.000 A 
ATOM     25  C   UNL     1       0.053  11.017  20.817  0.00  0.00    +0.000 A 
ENDBRANCH  18  20
ENDBRANCH   1  15
TORSDOF 7
ENDMDL
MODEL 7
REMARK VINA RESULT:      -7.6      4.261      8.067
REMARK  Name = 
REMARK  7 active torsions:
REMARK  status: ('A' for Active; 'I' for Inactive)
REMARK    1  A    between atoms: C_2  and  O_3
REMARK    2  A    between atoms: C_2  and  C_4
REMARK    3  A    between atoms: C_4  and  O_5
REMARK    4  A    between atoms: O_5  and  C_6
REMARK    5  A    between atoms: C_11  and  C_12
REMARK    6  A    between atoms: C_12  and  C_14
REMARK    7  A    between atoms: N_17  and  C_18
REMARK                            x       y       z     vdW  Elec       q    Type
REMARK                         _______ _______ _______ _____ _____    ______ ____
ROOT
ATOM      1  C   UNL     1       4.899   4.022  18.991  0.00  0.00    +0.000 C 
ATOM      2  O   UNL     1       4.866   2.958  19.603  0.00  0.00    +0.000 OA
ENDROOT
BRANCH   1   8
ATOM      3  C   UNL     1       2.797   4.854  20.169  0.00  0.00    +0.000 A 
ATOM      4  C   UNL     1       1.811   5.851  20.270  0.00  0.00    +0.000 A 
ATOM      5  C   UNL     1       1.919   7.057  19.578  0.00  0.00    +0.000 A 
ATOM      6  C   UNL     1       3.004   7.275  18.741  0.00  0.00    +0.000 A 
ATOM      7  C   UNL     1       3.968   6.279  18.589  0.00  0.00    +0.000 A 
ATOM      8  C   UNL     1       3.889   5.068  19.307  0.00  0.00    +0.000 A 
BRANCH   3   9
ATOM      9  O   UNL     1       2.499   3.759  20.935  0.00  0.00    +0.000 OA
BRANCH   9  10
ATOM     10  C   UNL     1       1.335   2.989  20.620  0.00  0.00    +0.000 C 
BRANCH  10  12
ATOM     11  O   UNL     1       0.783   2.920  18.259  0.00  0.00    +0.000 OA
ATOM     12  C   UNL     1       1.435   2.475  19.193  0.00  0.00    +0.000 C 
BRANCH  12  13
ATOM     13  O   UNL     1       2.341   1.479  19.041  0.00  0.00    +0.000 OA
ATOM     14  H   UNL     1       2.819   1.342  19.888  0.00  0.00    +0.000 HD
ENDBRANCH  12  13
ENDBRANCH  10  12
ENDBRANCH   9  10
ENDBRANCH   3   9
ENDBRANCH   1   8
BRANCH   1  15
ATOM     15  C   UNL     1       5.859   4.247  17.923  0.00  0.00    +0.000 A 
ATOM     16  C   UNL     1       7.097   4.924  17.881  0.00  0.00    +0.000 A 
ATOM     17  N   UNL     1       7.605   4.995  16.649  0.00  0.00    +0.000 NA
ATOM     18  N   UNL     1       6.692   4.363  15.864  0.00  0.00    +0.000 N 
ATOM     19  C   UNL     1       5.699   3.796  16.631  0.00  0.00    +0.000 A 
BRANCH  18  20
ATOM     20  C   UNL     1       6.772   4.401  14.444  0.00  0.00    +0.000 A 
ATOM     21  C   UNL     1       6.004   3.512  13.681  0.00  0.00    +0.000 A 
ATOM     22  C   UNL     1       6.129   3.494  12.290  0.00  0.00    +0.000 A 
ATOM     23  C   UNL     1       7.021   4.359  11.657  0.00  0.00    +0.000 A 
ATOM     24  C   UNL     1       7.779   5.253  12.410  0.00  0.00    +0.000 A 
ATOM     25  C   UNL     1       7.657   5.278  13.800  0.00  0.00    +0.000 A 
ENDBRANCH  18  20
ENDBRANCH   1  15
TORSDOF 7
ENDMDL
MODEL 8
REMARK VINA RESULT:      -7.6      3.897      7.660
REMARK  Name = 
REMARK  7 active torsions:
REMARK  status: ('A' for Active; 'I' for Inactive)
REMARK    1  A    between atoms: C_2  and  O_3
REMARK    2  A    between atoms: C_2  and  C_4
REMARK    3  A    between atoms: C_4  and  O_5
REMARK    4  A    between atoms: O_5  and  C_6
REMARK    5  A    between atoms: C_11  and  C_12
REMARK    6  A    between atoms: C_12  and  C_14
REMARK    7  A    between atoms: N_17  and  C_18
REMARK                            x       y       z     vdW  Elec       q    Type
REMARK                         _______ _______ _______ _____ _____    ______ ____
ROOT
ATOM      1  C   UNL     1       5.161   4.915  19.031  0.00  0.00    +0.000 C 
ATOM      2  O   UNL     1       5.995   4.958  19.930  0.00  0.00    +0.000 OA
ENDROOT
BRANCH   1   8
ATOM      3  C   UNL     1       2.616   5.018  19.091  0.00  0.00    +0.000 A 
ATOM      4  C   UNL     1       1.416   4.442  19.547  0.00  0.00    +0.000 A 
ATOM      5  C   UNL     1       1.396   3.192  20.166  0.00  0.00    +0.000 A 
ATOM      6  C   UNL     1       2.584   2.506  20.370  0.00  0.00    +0.000 A 
ATOM      7  C   UNL     1       3.789   3.081  19.969  0.00  0.00    +0.000 A 
ATOM      8  C   UNL     1       3.822   4.330  19.315  0.00  0.00    +0.000 A 
BRANCH   3   9
ATOM      9  O   UNL     1       2.408   6.239  18.509  0.00  0.00    +0.000 OA
BRANCH   9  10
ATOM     10  C   UNL     1       2.314   7.398  19.344  0.00  0.00    +0.000 C 
BRANCH  10  12
ATOM     11  O   UNL     1       2.307   8.802  17.367  0.00  0.00    +0.000 OA
ATOM     12  C   UNL     1       1.909   8.598  18.504  0.00  0.00    +0.000 C 
BRANCH  12  13
ATOM     13  O   UNL     1       1.038   9.425  19.132  0.00  0.00    +0.000 OA
ATOM     14  H   UNL     1       0.297   9.640  18.524  0.00  0.00    +0.000 HD
ENDBRANCH  12  13
ENDBRANCH  10  12
ENDBRANCH   9  10
ENDBRANCH   3   9
ENDBRANCH   1   8
BRANCH   1  15
ATOM     15  C   UNL     1       5.481   5.360  17.684  0.00  0.00    +0.000 A 
ATOM     16  C   UNL     1       5.231   6.564  16.992  0.00  0.00    +0.000 A 
ATOM     17  N   UNL     1       5.598   6.510  15.710  0.00  0.00    +0.000 NA
ATOM     18  N   UNL     1       6.092   5.253  15.547  0.00  0.00    +0.000 N 
ATOM     19  C   UNL     1       6.147   4.592  16.753  0.00  0.00    +0.000 A 
BRANCH  18  20
ATOM     20  C   UNL     1       6.405   4.734  14.261  0.00  0.00    +0.000 A 
ATOM     21  C   UNL     1       7.486   5.262  13.543  0.00  0.00    +0.000 A 
ATOM     22  C   UNL     1       7.757   4.807  12.250  0.00  0.00    +0.000 A 
ATOM     23  C   UNL     1       6.952   3.827  11.670  0.00  0.00    +0.000 A 
ATOM     24  C   UNL     1       5.884   3.290  12.384  0.00  0.00    +0.000 A 
ATOM     25  C   UNL     1       5.608   3.738  13.677  0.00  0.00    +0.000 A 
ENDBRANCH  18  20
ENDBRANCH   1  15
TORSDOF 7
ENDMDL
MODEL 9
REMARK VINA RESULT:      -7.6      2.117      3.708
REMARK  Name = 
REMARK  7 active torsions:
REMARK  status: ('A' for Active; 'I' for Inactive)
REMARK    1  A    between atoms: C_2  and  O_3
REMARK    2  A    between atoms: C_2  and  C_4
REMARK    3  A    between atoms: C_4  and  O_5
REMARK    4  A    between atoms: O_5  and  C_6
REMARK    5  A    between atoms: C_11  and  C_12
REMARK    6  A    between atoms: C_12  and  C_14
REMARK    7  A    between atoms: N_17  and  C_18
REMARK                            x       y       z     vdW  Elec       q    Type
REMARK                         _______ _______ _______ _____ _____    ______ ____
ROOT
ATOM      1  C   UNL     1       3.547   5.749  19.127  0.00  0.00    +0.000 C 
ATOM      2  O   UNL     1       3.677   5.037  20.118  0.00  0.00    +0.000 OA
ENDROOT
BRANCH   1   8
ATOM      3  C   UNL     1       4.016   4.403  17.014  0.00  0.00    +0.000 A 
ATOM      4  C   UNL     1       4.921   4.087  15.986  0.00  0.00    +0.000 A 
ATOM      5  C   UNL     1       6.102   4.810  15.806  0.00  0.00    +0.000 A 
ATOM      6  C   UNL     1       6.415   5.844  16.677  0.00  0.00    +0.000 A 
ATOM      7  C   UNL     1       5.554   6.140  17.732  0.00  0.00    +0.000 A 
ATOM      8  C   UNL     1       4.342   5.440  17.907  0.00  0.00    +0.000 A 
BRANCH   3   9
ATOM      9  O   UNL     1       2.923   3.579  17.005  0.00  0.00    +0.000 OA
BRANCH   9  10
ATOM     10  C   UNL     1       2.953   2.379  17.785  0.00  0.00    +0.000 C 
BRANCH  10  12
ATOM     11  O   UNL     1       0.611   2.286  18.405  0.00  0.00    +0.000 OA
ATOM     12  C   UNL     1       1.779   2.371  18.751  0.00  0.00    +0.000 C 
BRANCH  12  13
ATOM     13  O   UNL     1       2.152   2.447  20.052  0.00  0.00    +0.000 OA
ATOM     14  H   UNL     1       2.250   3.390  20.309  0.00  0.00    +0.000 HD
ENDBRANCH  12  13
ENDBRANCH  10  12
ENDBRANCH   9  10
ENDBRANCH   3   9
ENDBRANCH   1   8
BRANCH   1  15
ATOM     15  C   UNL     1       2.688   6.922  19.148  0.00  0.00    +0.000 A 
ATOM     16  C   UNL     1       2.441   7.941  18.203  0.00  0.00    +0.000 A 
ATOM     17  N   UNL     1       1.657   8.909  18.680  0.00  0.00    +0.000 NA
ATOM     18  N   UNL     1       1.384   8.531  19.958  0.00  0.00    +0.000 N 
ATOM     19  C   UNL     1       1.890   7.278  20.214  0.00  0.00    +0.000 A 
BRANCH  18  20
ATOM     20  C   UNL     1       0.734   9.405  20.874  0.00  0.00    +0.000 A 
ATOM     21  C   UNL     1       0.392   8.942  22.151  0.00  0.00    +0.000 A 
ATOM     22  C   UNL     1      -0.309   9.771  23.031  0.00  0.00    +0.000 A 
ATOM     23  C   UNL     1      -0.674  11.059  22.640  0.00  0.00    +0.000 A 
ATOM     24  C   UNL     1      -0.326  11.527  21.375  0.00  0.00    +0.000 A 
ATOM     25  C   UNL     1       0.377  10.706  20.491  0.00  0.00    +0.000 A 
ENDBRANCH  18  20
ENDBRANCH   1  15
TORSDOF 7
ENDMDL
