MODEL 1
REMARK VINA RESULT:      -7.8      0.000      0.000
REMARK  Name = 
REMARK  9 active torsions:
REMARK  status: ('A' for Active; 'I' for Inactive)
REMARK    1  A    between atoms: C_1  and  O_2
REMARK    2  A    between atoms: O_2  and  C_3
REMARK    3  A    between atoms: C_8  and  C_9
REMARK    4  A    between atoms: C_9  and  N_10
REMARK    5  A    between atoms: C_11  and  C_14
REMARK    6  A    between atoms: N_12  and  O_13
REMARK    7  A    between atoms: C_17  and  C_18
REMARK    8  A    between atoms: C_20  and  O_21
REMARK    9  A    between atoms: O_21  and  C_22
REMARK                            x       y       z     vdW  Elec       q    Type
REMARK                         _______ _______ _______ _____ _____    ______ ____
ROOT
ATOM      1  N   UNL     1       5.207   3.702  18.254  0.00  0.00    +0.000 N 
ATOM      2  C   UNL     1       5.887   4.401  17.263  0.00  0.00    +0.000 C 
ATOM      3  N   UNL     1       6.100   4.017  16.030  0.00  0.00    +0.000 NA
ATOM      4  H   UNL     1       5.034   4.220  19.111  0.00  0.00    +0.000 HD
ENDROOT
BRANCH   2   5
ATOM      5  C   UNL     1       6.445   5.792  17.562  0.00  0.00    +0.000 A 
ATOM      6  C   UNL     1       7.749   5.875  18.089  0.00  0.00    +0.000 A 
ATOM      7  C   UNL     1       8.389   7.103  18.252  0.00  0.00    +0.000 A 
ATOM      8  C   UNL     1       7.718   8.250  17.871  0.00  0.00    +0.000 A 
ATOM      9  C   UNL     1       8.381   9.592  17.924  0.00  0.00    +0.000 C 
ATOM     10  N   UNL     1       6.448   8.216  17.411  0.00  0.00    +0.000 NA
ATOM     11  C   UNL     1       5.817   7.009  17.306  0.00  0.00    +0.000 A 
BRANCH  11  12
ATOM     12  O   UNL     1       4.493   7.030  16.886  0.00  0.00    +0.000 OA
BRANCH  12  13
ATOM     13  C   UNL     1       3.516   7.325  17.817  0.00  0.00    +0.000 A 
ATOM     14  C   UNL     1       2.788   8.501  17.606  0.00  0.00    +0.000 A 
ATOM     15  C   UNL     1       1.744   8.855  18.470  0.00  0.00    +0.000 A 
ATOM     16  C   UNL     1       1.423   8.032  19.545  0.00  0.00    +0.000 A 
ATOM     17  C   UNL     1       2.141   6.861  19.747  0.00  0.00    +0.000 A 
ATOM     18  F   UNL     1       1.833   6.070  20.785  0.00  0.00    +0.000 F 
ATOM     19  C   UNL     1       3.173   6.490  18.889  0.00  0.00    +0.000 A 
ENDBRANCH  12  13
ENDBRANCH  11  12
ENDBRANCH   2   5
BRANCH   3  20
ATOM     20  O   UNL     1       5.630   2.747  15.717  0.00  0.00    +0.000 OA
ATOM     21  H   UNL     1       4.674   2.832  15.882  0.00  0.00    +0.000 HD
ENDBRANCH   3  20
BRANCH   1  22
ATOM     22  C   UNL     1       4.110   2.776  17.971  0.00  0.00    +0.000 C 
BRANCH  22  28
ATOM     23  C   UNL     1       3.503   2.541  20.451  0.00  0.00    +0.000 A 
ATOM     24  C   UNL     1       2.532   2.559  21.461  0.00  0.00    +0.000 A 
ATOM     25  C   UNL     1       1.192   2.812  21.158  0.00  0.00    +0.000 A 
ATOM     26  C   UNL     1       0.809   3.045  19.842  0.00  0.00    +0.000 A 
ATOM     27  C   UNL     1       1.760   3.003  18.827  0.00  0.00    +0.000 A 
ATOM     28  C   UNL     1       3.114   2.731  19.112  0.00  0.00    +0.000 A 
BRANCH  23  30
ATOM     29  C   UNL     1       5.174   1.065  21.267  0.00  0.00    +0.000 C 
ATOM     30  O   UNL     1       4.835   2.322  20.690  0.00  0.00    +0.000 OA
ENDBRANCH  23  30
ENDBRANCH  22  28
ENDBRANCH   1  22
TORSDOF 7
ENDMDL
MODEL 2
REMARK VINA RESULT:      -7.6      0.864      1.254
REMARK  Name = 
REMARK  9 active torsions:
REMARK  status: ('A' for Active; 'I' for Inactive)
REMARK    1  A    between atoms: C_1  and  O_2
REMARK    2  A    between atoms: O_2  and  C_3
REMARK    3  A    between atoms: C_8  and  C_9
REMARK    4  A    between atoms: C_9  and  N_10
REMARK    5  A    between atoms: C_11  and  C_14
REMARK    6  A    between atoms: N_12  and  O_13
REMARK    7  A    between atoms: C_17  and  C_18
REMARK    8  A    between atoms: C_20  and  O_21
REMARK    9  A    between atoms: O_21  and  C_22
REMARK                            x       y       z     vdW  Elec       q    Type
REMARK                         _______ _______ _______ _____ _____    ______ ____
ROOT
ATOM      1  N   UNL     1       5.201   3.718  18.269  0.00  0.00    +0.000 N 
ATOM      2  C   UNL     1       5.891   4.405  17.277  0.00  0.00    +0.000 C 
ATOM      3  N   UNL     1       6.126   4.002  16.054  0.00  0.00    +0.000 NA
ATOM      4  H   UNL     1       5.011   4.248  19.114  0.00  0.00    +0.000 HD
ENDROOT
BRANCH   2   5
ATOM      5  C   UNL     1       6.435   5.805  17.562  0.00  0.00    +0.000 A 
ATOM      6  C   UNL     1       7.723   5.905  18.125  0.00  0.00    +0.000 A 
ATOM      7  C   UNL     1       8.353   7.138  18.280  0.00  0.00    +0.000 A 
ATOM      8  C   UNL     1       7.690   8.274  17.854  0.00  0.00    +0.000 A 
ATOM      9  C   UNL     1       8.346   9.619  17.897  0.00  0.00    +0.000 C 
ATOM     10  N   UNL     1       6.434   8.225  17.358  0.00  0.00    +0.000 NA
ATOM     11  C   UNL     1       5.810   7.013  17.261  0.00  0.00    +0.000 A 
BRANCH  11  12
ATOM     12  O   UNL     1       4.500   7.020  16.802  0.00  0.00    +0.000 OA
BRANCH  12  13
ATOM     13  C   UNL     1       3.497   7.359  17.689  0.00  0.00    +0.000 A 
ATOM     14  C   UNL     1       3.283   6.478  18.756  0.00  0.00    +0.000 A 
ATOM     15  C   UNL     1       2.322   6.766  19.732  0.00  0.00    +0.000 A 
ATOM     16  C   UNL     1       1.574   7.936  19.648  0.00  0.00    +0.000 A 
ATOM     17  C   UNL     1       1.794   8.813  18.594  0.00  0.00    +0.000 A 
ATOM     18  F   UNL     1       1.072   9.939  18.512  0.00  0.00    +0.000 F 
ATOM     19  C   UNL     1       2.755   8.546  17.623  0.00  0.00    +0.000 A 
ENDBRANCH  12  13
ENDBRANCH  11  12
ENDBRANCH   2   5
BRANCH   3  20
ATOM     20  O   UNL     1       5.669   2.724  15.754  0.00  0.00    +0.000 OA
ATOM     21  H   UNL     1       5.334   2.831  14.846  0.00  0.00    +0.000 HD
ENDBRANCH   3  20
BRANCH   1  22
ATOM     22  C   UNL     1       4.115   2.780  17.984  0.00  0.00    +0.000 C 
BRANCH  22  28
ATOM     23  C   UNL     1       3.489   2.535  20.459  0.00  0.00    +0.000 A 
ATOM     24  C   UNL     1       2.512   2.552  21.462  0.00  0.00    +0.000 A 
ATOM     25  C   UNL     1       1.175   2.811  21.151  0.00  0.00    +0.000 A 
ATOM     26  C   UNL     1       0.801   3.052  19.834  0.00  0.00    +0.000 A 
ATOM     27  C   UNL     1       1.760   3.011  18.825  0.00  0.00    +0.000 A 
ATOM     28  C   UNL     1       3.110   2.733  19.118  0.00  0.00    +0.000 A 
BRANCH  23  30
ATOM     29  C   UNL     1       5.145   1.066  21.318  0.00  0.00    +0.000 C 
ATOM     30  O   UNL     1       4.819   2.310  20.706  0.00  0.00    +0.000 OA
ENDBRANCH  23  30
ENDBRANCH  22  28
ENDBRANCH   1  22
TORSDOF 7
ENDMDL
MODEL 3
REMARK VINA RESULT:      -7.5      1.004      1.789
REMARK  Name = 
REMARK  9 active torsions:
REMARK  status: ('A' for Active; 'I' for Inactive)
REMARK    1  A    between atoms: C_1  and  O_2
REMARK    2  A    between atoms: O_2  and  C_3
REMARK    3  A    between atoms: C_8  and  C_9
REMARK    4  A    between atoms: C_9  and  N_10
REMARK    5  A    between atoms: C_11  and  C_14
REMARK    6  A    between atoms: N_12  and  O_13
REMARK    7  A    between atoms: C_17  and  C_18
REMARK    8  A    between atoms: C_20  and  O_21
REMARK    9  A    between atoms: O_21  and  C_22
REMARK                            x       y       z     vdW  Elec       q    Type
REMARK                         _______ _______ _______ _____ _____    ______ ____
ROOT
ATOM      1  N   UNL     1       5.227   3.671  18.463  0.00  0.00    +0.000 N 
ATOM      2  C   UNL     1       5.872   4.347  17.433  0.00  0.00    +0.000 C 
ATOM      3  N   UNL     1       6.055   3.928  16.207  0.00  0.00    +0.000 NA
ATOM      4  H   UNL     1       5.072   4.212  19.308  0.00  0.00    +0.000 HD
ENDROOT
BRANCH   2   5
ATOM      5  C   UNL     1       6.424   5.751  17.676  0.00  0.00    +0.000 A 
ATOM      6  C   UNL     1       7.731   5.862  18.191  0.00  0.00    +0.000 A 
ATOM      7  C   UNL     1       8.364   7.098  18.304  0.00  0.00    +0.000 A 
ATOM      8  C   UNL     1       7.684   8.226  17.884  0.00  0.00    +0.000 A 
ATOM      9  C   UNL     1       8.339   9.573  17.882  0.00  0.00    +0.000 C 
ATOM     10  N   UNL     1       6.411   8.168  17.434  0.00  0.00    +0.000 NA
ATOM     11  C   UNL     1       5.786   6.954  17.379  0.00  0.00    +0.000 A 
BRANCH  11  12
ATOM     12  O   UNL     1       4.460   6.952  16.966  0.00  0.00    +0.000 OA
BRANCH  12  13
ATOM     13  C   UNL     1       3.488   7.293  17.887  0.00  0.00    +0.000 A 
ATOM     14  C   UNL     1       2.769   8.466  17.629  0.00  0.00    +0.000 A 
ATOM     15  C   UNL     1       1.731   8.864  18.481  0.00  0.00    +0.000 A 
ATOM     16  C   UNL     1       1.407   8.090  19.591  0.00  0.00    +0.000 A 
ATOM     17  C   UNL     1       2.117   6.923  19.840  0.00  0.00    +0.000 A 
ATOM     18  F   UNL     1       1.806   6.179  20.911  0.00  0.00    +0.000 F 
ATOM     19  C   UNL     1       3.143   6.508  18.995  0.00  0.00    +0.000 A 
ENDBRANCH  12  13
ENDBRANCH  11  12
ENDBRANCH   2   5
BRANCH   3  20
ATOM     20  O   UNL     1       5.591   2.645  15.944  0.00  0.00    +0.000 OA
ATOM     21  H   UNL     1       5.978   2.459  15.070  0.00  0.00    +0.000 HD
ENDBRANCH   3  20
BRANCH   1  22
ATOM     22  C   UNL     1       4.132   2.727  18.236  0.00  0.00    +0.000 C 
BRANCH  22  28
ATOM     23  C   UNL     1       1.705   2.985  19.022  0.00  0.00    +0.000 A 
ATOM     24  C   UNL     1       0.776   3.031  20.069  0.00  0.00    +0.000 A 
ATOM     25  C   UNL     1       1.188   2.884  21.396  0.00  0.00    +0.000 A 
ATOM     26  C   UNL     1       2.534   2.692  21.689  0.00  0.00    +0.000 A 
ATOM     27  C   UNL     1       3.469   2.671  20.658  0.00  0.00    +0.000 A 
ATOM     28  C   UNL     1       3.073   2.837  19.315  0.00  0.00    +0.000 A 
BRANCH  23  30
ATOM     29  C   UNL     1       1.148   4.424  17.217  0.00  0.00    +0.000 C 
ATOM     30  O   UNL     1       1.358   3.100  17.701  0.00  0.00    +0.000 OA
ENDBRANCH  23  30
ENDBRANCH  22  28
ENDBRANCH   1  22
TORSDOF 7
ENDMDL
MODEL 4
REMARK VINA RESULT:      -7.5      1.319      2.181
REMARK  Name = 
REMARK  9 active torsions:
REMARK  status: ('A' for Active; 'I' for Inactive)
REMARK    1  A    between atoms: C_1  and  O_2
REMARK    2  A    between atoms: O_2  and  C_3
REMARK    3  A    between atoms: C_8  and  C_9
REMARK    4  A    between atoms: C_9  and  N_10
REMARK    5  A    between atoms: C_11  and  C_14
REMARK    6  A    between atoms: N_12  and  O_13
REMARK    7  A    between atoms: C_17  and  C_18
REMARK    8  A    between atoms: C_20  and  O_21
REMARK    9  A    between atoms: O_21  and  C_22
REMARK                            x       y       z     vdW  Elec       q    Type
REMARK                         _______ _______ _______ _____ _____    ______ ____
ROOT
ATOM      1  N   UNL     1       5.279   3.644  18.468  0.00  0.00    +0.000 N 
ATOM      2  C   UNL     1       5.899   4.343  17.437  0.00  0.00    +0.000 C 
ATOM      3  N   UNL     1       6.058   3.947  16.200  0.00  0.00    +0.000 NA
ATOM      4  H   UNL     1       5.139   4.170  19.326  0.00  0.00    +0.000 HD
ENDROOT
BRANCH   2   5
ATOM      5  C   UNL     1       6.448   5.745  17.694  0.00  0.00    +0.000 A 
ATOM      6  C   UNL     1       7.725   5.852  18.279  0.00  0.00    +0.000 A 
ATOM      7  C   UNL     1       8.362   7.085  18.412  0.00  0.00    +0.000 A 
ATOM      8  C   UNL     1       7.716   8.213  17.942  0.00  0.00    +0.000 A 
ATOM      9  C   UNL     1       8.381   9.554  17.960  0.00  0.00    +0.000 C 
ATOM     10  N   UNL     1       6.469   8.159  17.422  0.00  0.00    +0.000 NA
ATOM     11  C   UNL     1       5.839   6.950  17.347  0.00  0.00    +0.000 A 
BRANCH  11  12
ATOM     12  O   UNL     1       4.537   6.952  16.862  0.00  0.00    +0.000 OA
BRANCH  12  13
ATOM     13  C   UNL     1       3.520   7.321  17.721  0.00  0.00    +0.000 A 
ATOM     14  C   UNL     1       3.332   6.513  18.848  0.00  0.00    +0.000 A 
ATOM     15  C   UNL     1       2.357   6.838  19.800  0.00  0.00    +0.000 A 
ATOM     16  C   UNL     1       1.570   7.972  19.629  0.00  0.00    +0.000 A 
ATOM     17  C   UNL     1       1.763   8.776  18.514  0.00  0.00    +0.000 A 
ATOM     18  F   UNL     1       1.003   9.867  18.348  0.00  0.00    +0.000 F 
ATOM     19  C   UNL     1       2.737   8.473  17.566  0.00  0.00    +0.000 A 
ENDBRANCH  12  13
ENDBRANCH  11  12
ENDBRANCH   2   5
BRANCH   3  20
ATOM     20  O   UNL     1       5.595   2.666  15.923  0.00  0.00    +0.000 OA
ATOM     21  H   UNL     1       4.926   2.831  15.235  0.00  0.00    +0.000 HD
ENDBRANCH   3  20
BRANCH   1  22
ATOM     22  C   UNL     1       4.185   2.698  18.248  0.00  0.00    +0.000 C 
BRANCH  22  28
ATOM     23  C   UNL     1       1.757   2.981  19.025  0.00  0.00    +0.000 A 
ATOM     24  C   UNL     1       0.825   3.037  20.068  0.00  0.00    +0.000 A 
ATOM     25  C   UNL     1       1.231   2.884  21.397  0.00  0.00    +0.000 A 
ATOM     26  C   UNL     1       2.573   2.679  21.694  0.00  0.00    +0.000 A 
ATOM     27  C   UNL     1       3.513   2.648  20.666  0.00  0.00    +0.000 A 
ATOM     28  C   UNL     1       3.123   2.819  19.323  0.00  0.00    +0.000 A 
BRANCH  23  30
ATOM     29  C   UNL     1       1.182   4.423  17.228  0.00  0.00    +0.000 C 
ATOM     30  O   UNL     1       1.416   3.100  17.702  0.00  0.00    +0.000 OA
ENDBRANCH  23  30
ENDBRANCH  22  28
ENDBRANCH   1  22
TORSDOF 7
ENDMDL
MODEL 5
REMARK VINA RESULT:      -7.2      1.176      1.341
REMARK  Name = 
REMARK  9 active torsions:
REMARK  status: ('A' for Active; 'I' for Inactive)
REMARK    1  A    between atoms: C_1  and  O_2
REMARK    2  A    between atoms: O_2  and  C_3
REMARK    3  A    between atoms: C_8  and  C_9
REMARK    4  A    between atoms: C_9  and  N_10
REMARK    5  A    between atoms: C_11  and  C_14
REMARK    6  A    between atoms: N_12  and  O_13
REMARK    7  A    between atoms: C_17  and  C_18
REMARK    8  A    between atoms: C_20  and  O_21
REMARK    9  A    between atoms: O_21  and  C_22
REMARK                            x       y       z     vdW  Elec       q    Type
REMARK                         _______ _______ _______ _____ _____    ______ ____
ROOT
ATOM      1  N   UNL     1       4.560   2.595  17.682  0.00  0.00    +0.000 N 
ATOM      2  C   UNL     1       4.220   3.878  17.268  0.00  0.00    +0.000 C 
ATOM      3  N   UNL     1       3.114   4.249  16.675  0.00  0.00    +0.000 NA
ATOM      4  H   UNL     1       5.406   2.528  18.240  0.00  0.00    +0.000 HD
ENDROOT
BRANCH   2   5
ATOM      5  C   UNL     1       5.178   5.039  17.531  0.00  0.00    +0.000 A 
ATOM      6  C   UNL     1       6.489   4.726  17.942  0.00  0.00    +0.000 A 
ATOM      7  C   UNL     1       7.467   5.713  18.060  0.00  0.00    +0.000 A 
ATOM      8  C   UNL     1       7.127   7.016  17.750  0.00  0.00    +0.000 A 
ATOM      9  C   UNL     1       8.151   8.109  17.758  0.00  0.00    +0.000 C 
ATOM     10  N   UNL     1       5.868   7.365  17.404  0.00  0.00    +0.000 NA
ATOM     11  C   UNL     1       4.909   6.393  17.343  0.00  0.00    +0.000 A 
BRANCH  11  12
ATOM     12  O   UNL     1       3.619   6.808  17.040  0.00  0.00    +0.000 OA
BRANCH  12  13
ATOM     13  C   UNL     1       2.883   7.432  18.030  0.00  0.00    +0.000 A 
ATOM     14  C   UNL     1       2.357   8.690  17.716  0.00  0.00    +0.000 A 
ATOM     15  C   UNL     1       1.556   9.375  18.639  0.00  0.00    +0.000 A 
ATOM     16  C   UNL     1       1.278   8.803  19.876  0.00  0.00    +0.000 A 
ATOM     17  C   UNL     1       1.795   7.551  20.182  0.00  0.00    +0.000 A 
ATOM     18  F   UNL     1       1.528   7.002  21.375  0.00  0.00    +0.000 F 
ATOM     19  C   UNL     1       2.581   6.853  19.270  0.00  0.00    +0.000 A 
ENDBRANCH  12  13
ENDBRANCH  11  12
ENDBRANCH   2   5
BRANCH   3  20
ATOM     20  O   UNL     1       2.220   3.223  16.393  0.00  0.00    +0.000 OA
ATOM     21  H   UNL     1       1.853   3.019  17.272  0.00  0.00    +0.000 HD
ENDBRANCH   3  20
BRANCH   1  22
ATOM     22  C   UNL     1       3.571   1.605  18.110  0.00  0.00    +0.000 C 
BRANCH  22  28
ATOM     23  C   UNL     1       3.506   2.362  20.559  0.00  0.00    +0.000 A 
ATOM     24  C   UNL     1       2.771   2.820  21.660  0.00  0.00    +0.000 A 
ATOM     25  C   UNL     1       1.391   3.022  21.562  0.00  0.00    +0.000 A 
ATOM     26  C   UNL     1       0.734   2.763  20.365  0.00  0.00    +0.000 A 
ATOM     27  C   UNL     1       1.451   2.283  19.272  0.00  0.00    +0.000 A 
ATOM     28  C   UNL     1       2.839   2.056  19.359  0.00  0.00    +0.000 A 
BRANCH  23  30
ATOM     29  C   UNL     1       5.321   1.023  21.301  0.00  0.00    +0.000 C 
ATOM     30  O   UNL     1       4.863   2.168  20.588  0.00  0.00    +0.000 OA
ENDBRANCH  23  30
ENDBRANCH  22  28
ENDBRANCH   1  22
TORSDOF 7
ENDMDL
MODEL 6
REMARK VINA RESULT:      -7.2      1.394      1.777
REMARK  Name = 
REMARK  9 active torsions:
REMARK  status: ('A' for Active; 'I' for Inactive)
REMARK    1  A    between atoms: C_1  and  O_2
REMARK    2  A    between atoms: O_2  and  C_3
REMARK    3  A    between atoms: C_8  and  C_9
REMARK    4  A    between atoms: C_9  and  N_10
REMARK    5  A    between atoms: C_11  and  C_14
REMARK    6  A    between atoms: N_12  and  O_13
REMARK    7  A    between atoms: C_17  and  C_18
REMARK    8  A    between atoms: C_20  and  O_21
REMARK    9  A    between atoms: O_21  and  C_22
REMARK                            x       y       z     vdW  Elec       q    Type
REMARK                         _______ _______ _______ _____ _____    ______ ____
ROOT
ATOM      1  N   UNL     1       4.582   2.580  17.727  0.00  0.00    +0.000 N 
ATOM      2  C   UNL     1       4.281   3.823  17.180  0.00  0.00    +0.000 C 
ATOM      3  N   UNL     1       3.240   4.133  16.451  0.00  0.00    +0.000 NA
ATOM      4  H   UNL     1       5.368   2.567  18.370  0.00  0.00    +0.000 HD
ENDROOT
BRANCH   2   5
ATOM      5  C   UNL     1       5.202   5.013  17.447  0.00  0.00    +0.000 A 
ATOM      6  C   UNL     1       6.551   4.742  17.752  0.00  0.00    +0.000 A 
ATOM      7  C   UNL     1       7.489   5.766  17.863  0.00  0.00    +0.000 A 
ATOM      8  C   UNL     1       7.071   7.067  17.653  0.00  0.00    +0.000 A 
ATOM      9  C   UNL     1       8.044   8.206  17.657  0.00  0.00    +0.000 C 
ATOM     10  N   UNL     1       5.778   7.373  17.410  0.00  0.00    +0.000 NA
ATOM     11  C   UNL     1       4.861   6.361  17.356  0.00  0.00    +0.000 A 
BRANCH  11  12
ATOM     12  O   UNL     1       3.535   6.728  17.164  0.00  0.00    +0.000 OA
BRANCH  12  13
ATOM     13  C   UNL     1       2.809   7.153  18.260  0.00  0.00    +0.000 A 
ATOM     14  C   UNL     1       2.707   6.254  19.328  0.00  0.00    +0.000 A 
ATOM     15  C   UNL     1       2.033   6.618  20.500  0.00  0.00    +0.000 A 
ATOM     16  C   UNL     1       1.461   7.882  20.610  0.00  0.00    +0.000 A 
ATOM     17  C   UNL     1       1.571   8.775  19.552  0.00  0.00    +0.000 A 
ATOM     18  F   UNL     1       1.019   9.991  19.658  0.00  0.00    +0.000 F 
ATOM     19  C   UNL     1       2.250   8.432  18.386  0.00  0.00    +0.000 A 
ENDBRANCH  12  13
ENDBRANCH  11  12
ENDBRANCH   2   5
BRANCH   3  20
ATOM     20  O   UNL     1       2.384   3.077  16.162  0.00  0.00    +0.000 OA
ATOM     21  H   UNL     1       1.714   3.153  16.865  0.00  0.00    +0.000 HD
ENDBRANCH   3  20
BRANCH   1  22
ATOM     22  C   UNL     1       3.560   1.614  18.128  0.00  0.00    +0.000 C 
BRANCH  22  28
ATOM     23  C   UNL     1       3.444   2.401  20.566  0.00  0.00    +0.000 A 
ATOM     24  C   UNL     1       2.687   2.878  21.644  0.00  0.00    +0.000 A 
ATOM     25  C   UNL     1       1.312   3.089  21.512  0.00  0.00    +0.000 A 
ATOM     26  C   UNL     1       0.681   2.822  20.303  0.00  0.00    +0.000 A 
ATOM     27  C   UNL     1       1.419   2.322  19.233  0.00  0.00    +0.000 A 
ATOM     28  C   UNL     1       2.803   2.086  19.354  0.00  0.00    +0.000 A 
BRANCH  23  30
ATOM     29  C   UNL     1       5.230   1.044  21.346  0.00  0.00    +0.000 C 
ATOM     30  O   UNL     1       4.799   2.197  20.629  0.00  0.00    +0.000 OA
ENDBRANCH  23  30
ENDBRANCH  22  28
ENDBRANCH   1  22
TORSDOF 7
ENDMDL
MODEL 7
REMARK VINA RESULT:      -7.1      4.233      6.483
REMARK  Name = 
REMARK  9 active torsions:
REMARK  status: ('A' for Active; 'I' for Inactive)
REMARK    1  A    between atoms: C_1  and  O_2
REMARK    2  A    between atoms: O_2  and  C_3
REMARK    3  A    between atoms: C_8  and  C_9
REMARK    4  A    between atoms: C_9  and  N_10
REMARK    5  A    between atoms: C_11  and  C_14
REMARK    6  A    between atoms: N_12  and  O_13
REMARK    7  A    between atoms: C_17  and  C_18
REMARK    8  A    between atoms: C_20  and  O_21
REMARK    9  A    between atoms: O_21  and  C_22
REMARK                            x       y       z     vdW  Elec       q    Type
REMARK                         _______ _______ _______ _____ _____    ______ ____
ROOT
ATOM      1  N   UNL     1       2.226   7.409  19.661  0.00  0.00    +0.000 N 
ATOM      2  C   UNL     1       1.623   8.614  19.320  0.00  0.00    +0.000 C 
ATOM      3  N   UNL     1       1.747   9.268  18.194  0.00  0.00    +0.000 NA
ATOM      4  H   UNL     1       1.907   6.993  20.531  0.00  0.00    +0.000 HD
ENDROOT
BRANCH   2   5
ATOM      5  C   UNL     1       0.671   9.292  20.305  0.00  0.00    +0.000 A 
ATOM      6  C   UNL     1       0.642   8.806  21.628  0.00  0.00    +0.000 A 
ATOM      7  C   UNL     1      -0.084   9.457  22.623  0.00  0.00    +0.000 A 
ATOM      8  C   UNL     1      -0.773  10.608  22.290  0.00  0.00    +0.000 A 
ATOM      9  C   UNL     1      -1.491  11.413  23.329  0.00  0.00    +0.000 C 
ATOM     10  N   UNL     1      -0.813  11.076  21.023  0.00  0.00    +0.000 NA
ATOM     11  C   UNL     1      -0.137  10.397  20.048  0.00  0.00    +0.000 A 
BRANCH  11  12
ATOM     12  O   UNL     1      -0.256  10.882  18.752  0.00  0.00    +0.000 OA
BRANCH  12  13
ATOM     13  C   UNL     1      -1.485  10.785  18.127  0.00  0.00    +0.000 A 
ATOM     14  C   UNL     1      -2.498  11.620  18.612  0.00  0.00    +0.000 A 
ATOM     15  C   UNL     1      -3.762  11.627  18.008  0.00  0.00    +0.000 A 
ATOM     16  C   UNL     1      -4.015  10.801  16.917  0.00  0.00    +0.000 A 
ATOM     17  C   UNL     1      -3.005   9.980  16.433  0.00  0.00    +0.000 A 
ATOM     18  F   UNL     1      -3.250   9.184  15.383  0.00  0.00    +0.000 F 
ATOM     19  C   UNL     1      -1.741   9.973  17.015  0.00  0.00    +0.000 A 
ENDBRANCH  12  13
ENDBRANCH  11  12
ENDBRANCH   2   5
BRANCH   3  20
ATOM     20  O   UNL     1       2.622   8.702  17.274  0.00  0.00    +0.000 OA
ATOM     21  H   UNL     1       3.489   9.001  17.600  0.00  0.00    +0.000 HD
ENDBRANCH   3  20
BRANCH   1  22
ATOM     22  C   UNL     1       2.561   6.376  18.680  0.00  0.00    +0.000 C 
BRANCH  22  28
ATOM     23  C   UNL     1       2.440   3.826  18.439  0.00  0.00    +0.000 A 
ATOM     24  C   UNL     1       2.089   2.580  18.975  0.00  0.00    +0.000 A 
ATOM     25  C   UNL     1       1.515   2.487  20.246  0.00  0.00    +0.000 A 
ATOM     26  C   UNL     1       1.283   3.637  20.990  0.00  0.00    +0.000 A 
ATOM     27  C   UNL     1       1.603   4.883  20.457  0.00  0.00    +0.000 A 
ATOM     28  C   UNL     1       2.166   4.997  19.169  0.00  0.00    +0.000 A 
BRANCH  23  30
ATOM     29  C   UNL     1       4.393   3.584  17.109  0.00  0.00    +0.000 C 
ATOM     30  O   UNL     1       3.027   3.979  17.209  0.00  0.00    +0.000 OA
ENDBRANCH  23  30
ENDBRANCH  22  28
ENDBRANCH   1  22
TORSDOF 7
ENDMDL
MODEL 8
REMARK VINA RESULT:      -7.0      4.391      6.625
REMARK  Name = 
REMARK  9 active torsions:
REMARK  status: ('A' for Active; 'I' for Inactive)
REMARK    1  A    between atoms: C_1  and  O_2
REMARK    2  A    between atoms: O_2  and  C_3
REMARK    3  A    between atoms: C_8  and  C_9
REMARK    4  A    between atoms: C_9  and  N_10
REMARK    5  A    between atoms: C_11  and  C_14
REMARK    6  A    between atoms: N_12  and  O_13
REMARK    7  A    between atoms: C_17  and  C_18
REMARK    8  A    between atoms: C_20  and  O_21
REMARK    9  A    between atoms: O_21  and  C_22
REMARK                            x       y       z     vdW  Elec       q    Type
REMARK                         _______ _______ _______ _____ _____    ______ ____
ROOT
ATOM      1  N   UNL     1       2.187   7.549  19.745  0.00  0.00    +0.000 N 
ATOM      2  C   UNL     1       1.536   8.714  19.355  0.00  0.00    +0.000 C 
ATOM      3  N   UNL     1       1.616   9.312  18.194  0.00  0.00    +0.000 NA
ATOM      4  H   UNL     1       1.898   7.169  20.642  0.00  0.00    +0.000 HD
ENDROOT
BRANCH   2   5
ATOM      5  C   UNL     1       0.580   9.410  20.324  0.00  0.00    +0.000 A 
ATOM      6  C   UNL     1       0.536   8.940  21.652  0.00  0.00    +0.000 A 
ATOM      7  C   UNL     1      -0.194   9.608  22.633  0.00  0.00    +0.000 A 
ATOM      8  C   UNL     1      -0.872  10.760  22.279  0.00  0.00    +0.000 A 
ATOM      9  C   UNL     1      -1.593  11.582  23.302  0.00  0.00    +0.000 C 
ATOM     10  N   UNL     1      -0.898  11.213  21.006  0.00  0.00    +0.000 NA
ATOM     11  C   UNL     1      -0.219  10.517  20.046  0.00  0.00    +0.000 A 
BRANCH  11  12
ATOM     12  O   UNL     1      -0.323  10.987  18.743  0.00  0.00    +0.000 OA
BRANCH  12  13
ATOM     13  C   UNL     1      -1.556  10.925  18.122  0.00  0.00    +0.000 A 
ATOM     14  C   UNL     1      -1.706   9.952  17.128  0.00  0.00    +0.000 A 
ATOM     15  C   UNL     1      -2.936   9.784  16.479  0.00  0.00    +0.000 A 
ATOM     16  C   UNL     1      -4.020  10.585  16.825  0.00  0.00    +0.000 A 
ATOM     17  C   UNL     1      -3.870  11.544  17.818  0.00  0.00    +0.000 A 
ATOM     18  F   UNL     1      -4.914  12.316  18.150  0.00  0.00    +0.000 F 
ATOM     19  C   UNL     1      -2.658  11.714  18.481  0.00  0.00    +0.000 A 
ENDBRANCH  12  13
ENDBRANCH  11  12
ENDBRANCH   2   5
BRANCH   3  20
ATOM     20  O   UNL     1       2.492   8.728  17.287  0.00  0.00    +0.000 OA
ATOM     21  H   UNL     1       2.133   9.023  16.431  0.00  0.00    +0.000 HD
ENDBRANCH   3  20
BRANCH   1  22
ATOM     22  C   UNL     1       2.538   6.478  18.812  0.00  0.00    +0.000 C 
BRANCH  22  28
ATOM     23  C   UNL     1       3.567   4.167  19.230  0.00  0.00    +0.000 A 
ATOM     24  C   UNL     1       3.573   2.961  19.943  0.00  0.00    +0.000 A 
ATOM     25  C   UNL     1       2.639   2.727  20.956  0.00  0.00    +0.000 A 
ATOM     26  C   UNL     1       1.688   3.694  21.262  0.00  0.00    +0.000 A 
ATOM     27  C   UNL     1       1.657   4.886  20.542  0.00  0.00    +0.000 A 
ATOM     28  C   UNL     1       2.579   5.130  19.504  0.00  0.00    +0.000 A 
BRANCH  23  30
ATOM     29  C   UNL     1       4.337   3.734  17.025  0.00  0.00    +0.000 C 
ATOM     30  O   UNL     1       4.472   4.462  18.242  0.00  0.00    +0.000 OA
ENDBRANCH  23  30
ENDBRANCH  22  28
ENDBRANCH   1  22
TORSDOF 7
ENDMDL
MODEL 9
REMARK VINA RESULT:      -6.9      3.415      6.937
REMARK  Name = 
REMARK  9 active torsions:
REMARK  status: ('A' for Active; 'I' for Inactive)
REMARK    1  A    between atoms: C_1  and  O_2
REMARK    2  A    between atoms: O_2  and  C_3
REMARK    3  A    between atoms: C_8  and  C_9
REMARK    4  A    between atoms: C_9  and  N_10
REMARK    5  A    between atoms: C_11  and  C_14
REMARK    6  A    between atoms: N_12  and  O_13
REMARK    7  A    between atoms: C_17  and  C_18
REMARK    8  A    between atoms: C_20  and  O_21
REMARK    9  A    between atoms: O_21  and  C_22
REMARK                            x       y       z     vdW  Elec       q    Type
REMARK                         _______ _______ _______ _____ _____    ______ ____
ROOT
ATOM      1  N   UNL     1       1.257   8.618  18.713  0.00  0.00    +0.000 N 
ATOM      2  C   UNL     1       2.408   8.732  17.941  0.00  0.00    +0.000 C 
ATOM      3  N   UNL     1       2.869   9.814  17.366  0.00  0.00    +0.000 NA
ATOM      4  H   UNL     1       1.133   7.725  19.180  0.00  0.00    +0.000 HD
ENDROOT
BRANCH   2   5
ATOM      5  C   UNL     1       3.301   7.511  17.726  0.00  0.00    +0.000 A 
ATOM      6  C   UNL     1       4.163   7.518  16.611  0.00  0.00    +0.000 A 
ATOM      7  C   UNL     1       5.113   6.516  16.422  0.00  0.00    +0.000 A 
ATOM      8  C   UNL     1       5.204   5.510  17.366  0.00  0.00    +0.000 A 
ATOM      9  C   UNL     1       6.267   4.458  17.280  0.00  0.00    +0.000 C 
ATOM     10  N   UNL     1       4.362   5.439  18.421  0.00  0.00    +0.000 NA
ATOM     11  C   UNL     1       3.403   6.402  18.563  0.00  0.00    +0.000 A 
BRANCH  11  12
ATOM     12  O   UNL     1       2.523   6.255  19.627  0.00  0.00    +0.000 OA
BRANCH  12  13
ATOM     13  C   UNL     1       2.090   4.982  19.947  0.00  0.00    +0.000 A 
ATOM     14  C   UNL     1       2.346   4.546  21.252  0.00  0.00    +0.000 A 
ATOM     15  C   UNL     1       1.899   3.290  21.681  0.00  0.00    +0.000 A 
ATOM     16  C   UNL     1       1.194   2.468  20.808  0.00  0.00    +0.000 A 
ATOM     17  C   UNL     1       0.935   2.906  19.517  0.00  0.00    +0.000 A 
ATOM     18  F   UNL     1       0.257   2.112  18.676  0.00  0.00    +0.000 F 
ATOM     19  C   UNL     1       1.360   4.157  19.080  0.00  0.00    +0.000 A 
ENDBRANCH  12  13
ENDBRANCH  11  12
ENDBRANCH   2   5
BRANCH   3  20
ATOM     20  O   UNL     1       2.077  10.947  17.514  0.00  0.00    +0.000 OA
ATOM     21  H   UNL     1       2.486  11.570  16.888  0.00  0.00    +0.000 HD
ENDBRANCH   3  20
BRANCH   1  22
ATOM     22  C   UNL     1       0.728   9.713  19.526  0.00  0.00    +0.000 C 
BRANCH  22  28
ATOM     23  C   UNL     1      -1.293  11.292  19.566  0.00  0.00    +0.000 A 
ATOM     24  C   UNL     1      -2.471  11.757  18.969  0.00  0.00    +0.000 A 
ATOM     25  C   UNL     1      -2.920  11.215  17.761  0.00  0.00    +0.000 A 
ATOM     26  C   UNL     1      -2.197  10.202  17.143  0.00  0.00    +0.000 A 
ATOM     27  C   UNL     1      -1.039   9.714  17.741  0.00  0.00    +0.000 A 
ATOM     28  C   UNL     1      -0.582  10.236  18.968  0.00  0.00    +0.000 A 
BRANCH  23  30
ATOM     29  C   UNL     1      -1.743  12.104  21.752  0.00  0.00    +0.000 C 
ATOM     30  O   UNL     1      -0.790  11.800  20.737  0.00  0.00    +0.000 OA
ENDBRANCH  23  30
ENDBRANCH  22  28
ENDBRANCH   1  22
TORSDOF 7
ENDMDL
