MODEL 1
REMARK VINA RESULT:      -6.2      0.000      0.000
REMARK  Name = 
REMARK  4 active torsions:
REMARK  status: ('A' for Active; 'I' for Inactive)
REMARK    1  A    between atoms: C_1  and  N_2
REMARK    2  A    between atoms: C_3  and  S_4
REMARK    3  A    between atoms: N_5  and  C_6
REMARK    4  A    between atoms: C_11  and  C_12
REMARK                            x       y       z     vdW  Elec       q    Type
REMARK                         _______ _______ _______ _____ _____    ______ ____
ROOT
ATOM      1  C   UNL     1       5.074   4.566  18.318  0.00  0.00    +0.000 A 
ATOM      2  C   UNL     1       6.331   5.167  18.522  0.00  0.00    +0.000 A 
ATOM      3  C   UNL     1       7.248   5.381  17.478  0.00  0.00    +0.000 A 
ATOM      4  C   UNL     1       6.885   4.967  16.197  0.00  0.00    +0.000 A 
ATOM      5  N   UNL     1       7.552   5.047  15.004  0.00  0.00    +0.000 NA
ATOM      6  C   UNL     1       6.714   4.499  14.146  0.00  0.00    +0.000 A 
ATOM      7  C   UNL     1       6.877   4.322  12.691  0.00  0.00    +0.000 C 
ATOM      8  O   UNL     1       5.537   4.051  14.689  0.00  0.00    +0.000 OA
ATOM      9  C   UNL     1       5.653   4.364  16.015  0.00  0.00    +0.000 A 
ATOM     10  C   UNL     1       4.722   4.136  17.023  0.00  0.00    +0.000 A 
ENDROOT
BRANCH   1  14
ATOM     11  C   UNL     1       1.980   7.199  20.103  0.00  0.00    +0.000 C 
ATOM     12  N   UNL     1       2.998   6.341  19.540  0.00  0.00    +0.000 NA
ATOM     13  C   UNL     1       3.178   5.114  19.861  0.00  0.00    +0.000 C 
ATOM     14  N   UNL     1       4.177   4.310  19.373  0.00  0.00    +0.000 N 
ATOM     15  H   UNL     1       4.262   3.405  19.816  0.00  0.00    +0.000 HD
BRANCH  13  16
ATOM     16  S   UNL     1       2.177   4.242  21.019  0.00  0.00    +0.000 S 
ATOM     17  H   UNL     1       2.723   3.034  20.844  0.00  0.00    +0.000 HD
ENDBRANCH  13  16
ENDBRANCH   1  14
TORSDOF 2
ENDMDL
MODEL 2
REMARK VINA RESULT:      -6.0      1.774      2.133
REMARK  Name = 
REMARK  4 active torsions:
REMARK  status: ('A' for Active; 'I' for Inactive)
REMARK    1  A    between atoms: C_1  and  N_2
REMARK    2  A    between atoms: C_3  and  S_4
REMARK    3  A    between atoms: N_5  and  C_6
REMARK    4  A    between atoms: C_11  and  C_12
REMARK                            x       y       z     vdW  Elec       q    Type
REMARK                         _______ _______ _______ _____ _____    ______ ____
ROOT
ATOM      1  C   UNL     1       4.085   4.840  18.399  0.00  0.00    +0.000 A 
ATOM      2  C   UNL     1       4.190   6.209  18.087  0.00  0.00    +0.000 A 
ATOM      3  C   UNL     1       4.813   6.676  16.917  0.00  0.00    +0.000 A 
ATOM      4  C   UNL     1       5.350   5.731  16.043  0.00  0.00    +0.000 A 
ATOM      5  N   UNL     1       5.996   5.878  14.845  0.00  0.00    +0.000 NA
ATOM      6  C   UNL     1       6.265   4.639  14.486  0.00  0.00    +0.000 A 
ATOM      7  C   UNL     1       6.937   4.165  13.261  0.00  0.00    +0.000 C 
ATOM      8  O   UNL     1       5.849   3.675  15.369  0.00  0.00    +0.000 OA
ATOM      9  C   UNL     1       5.252   4.389  16.369  0.00  0.00    +0.000 A 
ATOM     10  C   UNL     1       4.645   3.892  17.519  0.00  0.00    +0.000 A 
ENDROOT
BRANCH   1  14
ATOM     11  C   UNL     1       0.510   2.282  19.002  0.00  0.00    +0.000 C 
ATOM     12  N   UNL     1       1.665   3.131  18.816  0.00  0.00    +0.000 NA
ATOM     13  C   UNL     1       2.439   3.526  19.756  0.00  0.00    +0.000 C 
ATOM     14  N   UNL     1       3.504   4.377  19.595  0.00  0.00    +0.000 N 
ATOM     15  H   UNL     1       3.940   4.693  20.450  0.00  0.00    +0.000 HD
BRANCH  13  16
ATOM     16  S   UNL     1       2.255   3.062  21.445  0.00  0.00    +0.000 S 
ATOM     17  H   UNL     1       2.535   1.762  21.299  0.00  0.00    +0.000 HD
ENDBRANCH  13  16
ENDBRANCH   1  14
TORSDOF 2
ENDMDL
MODEL 3
REMARK VINA RESULT:      -6.0      1.300      1.907
REMARK  Name = 
REMARK  4 active torsions:
REMARK  status: ('A' for Active; 'I' for Inactive)
REMARK    1  A    between atoms: C_1  and  N_2
REMARK    2  A    between atoms: C_3  and  S_4
REMARK    3  A    between atoms: N_5  and  C_6
REMARK    4  A    between atoms: C_11  and  C_12
REMARK                            x       y       z     vdW  Elec       q    Type
REMARK                         _______ _______ _______ _____ _____    ______ ____
ROOT
ATOM      1  C   UNL     1       4.744   5.138  17.560  0.00  0.00    +0.000 A 
ATOM      2  C   UNL     1       5.938   5.856  17.773  0.00  0.00    +0.000 A 
ATOM      3  C   UNL     1       6.944   5.963  16.798  0.00  0.00    +0.000 A 
ATOM      4  C   UNL     1       6.740   5.319  15.578  0.00  0.00    +0.000 A 
ATOM      5  N   UNL     1       7.521   5.252  14.456  0.00  0.00    +0.000 NA
ATOM      6  C   UNL     1       6.809   4.511  13.630  0.00  0.00    +0.000 A 
ATOM      7  C   UNL     1       7.133   4.110  12.247  0.00  0.00    +0.000 C 
ATOM      8  O   UNL     1       5.610   4.073  14.130  0.00  0.00    +0.000 OA
ATOM      9  C   UNL     1       5.570   4.606  15.388  0.00  0.00    +0.000 A 
ATOM     10  C   UNL     1       4.554   4.478  16.330  0.00  0.00    +0.000 A 
ENDROOT
BRANCH   1  14
ATOM     11  C   UNL     1       4.323   2.025  20.693  0.00  0.00    +0.000 C 
ATOM     12  N   UNL     1       4.442   3.033  19.664  0.00  0.00    +0.000 NA
ATOM     13  C   UNL     1       3.688   4.062  19.560  0.00  0.00    +0.000 C 
ATOM     14  N   UNL     1       3.759   4.993  18.554  0.00  0.00    +0.000 N 
ATOM     15  H   UNL     1       3.016   5.678  18.544  0.00  0.00    +0.000 HD
BRANCH  13  16
ATOM     16  S   UNL     1       2.396   4.455  20.691  0.00  0.00    +0.000 S 
ATOM     17  H   UNL     1       1.591   5.080  19.825  0.00  0.00    +0.000 HD
ENDBRANCH  13  16
ENDBRANCH   1  14
TORSDOF 2
ENDMDL
MODEL 4
REMARK VINA RESULT:      -5.9      1.245      1.719
REMARK  Name = 
REMARK  4 active torsions:
REMARK  status: ('A' for Active; 'I' for Inactive)
REMARK    1  A    between atoms: C_1  and  N_2
REMARK    2  A    between atoms: C_3  and  S_4
REMARK    3  A    between atoms: N_5  and  C_6
REMARK    4  A    between atoms: C_11  and  C_12
REMARK                            x       y       z     vdW  Elec       q    Type
REMARK                         _______ _______ _______ _____ _____    ______ ____
ROOT
ATOM      1  C   UNL     1       4.671   5.227  18.278  0.00  0.00    +0.000 A 
ATOM      2  C   UNL     1       5.972   4.979  18.756  0.00  0.00    +0.000 A 
ATOM      3  C   UNL     1       7.071   4.789  17.901  0.00  0.00    +0.000 A 
ATOM      4  C   UNL     1       6.846   4.845  16.526  0.00  0.00    +0.000 A 
ATOM      5  N   UNL     1       7.703   4.710  15.468  0.00  0.00    +0.000 NA
ATOM      6  C   UNL     1       6.921   4.861  14.417  0.00  0.00    +0.000 A 
ATOM      7  C   UNL     1       7.291   4.839  12.989  0.00  0.00    +0.000 C 
ATOM      8  O   UNL     1       5.598   5.079  14.705  0.00  0.00    +0.000 OA
ATOM      9  C   UNL     1       5.559   5.075  16.071  0.00  0.00    +0.000 A 
ATOM     10  C   UNL     1       4.448   5.265  16.887  0.00  0.00    +0.000 A 
ENDROOT
BRANCH   1  14
ATOM     11  C   UNL     1       1.678   2.211  19.558  0.00  0.00    +0.000 C 
ATOM     12  N   UNL     1       2.638   3.204  19.131  0.00  0.00    +0.000 NA
ATOM     13  C   UNL     1       2.691   4.404  19.574  0.00  0.00    +0.000 C 
ATOM     14  N   UNL     1       3.563   5.369  19.134  0.00  0.00    +0.000 N 
ATOM     15  H   UNL     1       3.398   6.299  19.493  0.00  0.00    +0.000 HD
BRANCH  13  16
ATOM     16  S   UNL     1       1.626   5.042  20.825  0.00  0.00    +0.000 S 
ATOM     17  H   UNL     1       1.150   6.082  20.133  0.00  0.00    +0.000 HD
ENDBRANCH  13  16
ENDBRANCH   1  14
TORSDOF 2
ENDMDL
MODEL 5
REMARK VINA RESULT:      -5.9      2.433      3.309
REMARK  Name = 
REMARK  4 active torsions:
REMARK  status: ('A' for Active; 'I' for Inactive)
REMARK    1  A    between atoms: C_1  and  N_2
REMARK    2  A    between atoms: C_3  and  S_4
REMARK    3  A    between atoms: N_5  and  C_6
REMARK    4  A    between atoms: C_11  and  C_12
REMARK                            x       y       z     vdW  Elec       q    Type
REMARK                         _______ _______ _______ _____ _____    ______ ____
ROOT
ATOM      1  C   UNL     1       4.104   4.141  17.326  0.00  0.00    +0.000 A 
ATOM      2  C   UNL     1       4.998   3.633  16.363  0.00  0.00    +0.000 A 
ATOM      3  C   UNL     1       6.179   4.301  15.998  0.00  0.00    +0.000 A 
ATOM      4  C   UNL     1       6.458   5.519  16.617  0.00  0.00    +0.000 A 
ATOM      5  N   UNL     1       7.514   6.379  16.477  0.00  0.00    +0.000 NA
ATOM      6  C   UNL     1       7.231   7.354  17.319  0.00  0.00    +0.000 A 
ATOM      7  C   UNL     1       8.022   8.562  17.620  0.00  0.00    +0.000 C 
ATOM      8  O   UNL     1       6.053   7.205  18.004  0.00  0.00    +0.000 OA
ATOM      9  C   UNL     1       5.562   6.013  17.550  0.00  0.00    +0.000 A 
ATOM     10  C   UNL     1       4.384   5.380  17.935  0.00  0.00    +0.000 A 
ENDROOT
BRANCH   1  14
ATOM     11  C   UNL     1       2.668   2.661  21.255  0.00  0.00    +0.000 C 
ATOM     12  N   UNL     1       3.136   3.123  19.967  0.00  0.00    +0.000 NA
ATOM     13  C   UNL     1       2.443   3.109  18.891  0.00  0.00    +0.000 C 
ATOM     14  N   UNL     1       2.898   3.494  17.655  0.00  0.00    +0.000 N 
ATOM     15  H   UNL     1       2.271   3.307  16.884  0.00  0.00    +0.000 HD
BRANCH  13  16
ATOM     16  S   UNL     1       0.770   2.563  18.804  0.00  0.00    +0.000 S 
ATOM     17  H   UNL     1       0.516   2.573  20.116  0.00  0.00    +0.000 HD
ENDBRANCH  13  16
ENDBRANCH   1  14
TORSDOF 2
ENDMDL
MODEL 6
REMARK VINA RESULT:      -5.9      1.542      1.545
REMARK  Name = 
REMARK  4 active torsions:
REMARK  status: ('A' for Active; 'I' for Inactive)
REMARK    1  A    between atoms: C_1  and  N_2
REMARK    2  A    between atoms: C_3  and  S_4
REMARK    3  A    between atoms: N_5  and  C_6
REMARK    4  A    between atoms: C_11  and  C_12
REMARK                            x       y       z     vdW  Elec       q    Type
REMARK                         _______ _______ _______ _____ _____    ______ ____
ROOT
ATOM      1  C   UNL     1       5.470   4.335  17.866  0.00  0.00    +0.000 A 
ATOM      2  C   UNL     1       6.386   5.402  17.942  0.00  0.00    +0.000 A 
ATOM      3  C   UNL     1       7.124   5.849  16.832  0.00  0.00    +0.000 A 
ATOM      4  C   UNL     1       6.934   5.194  15.616  0.00  0.00    +0.000 A 
ATOM      5  N   UNL     1       7.493   5.405  14.384  0.00  0.00    +0.000 NA
ATOM      6  C   UNL     1       6.928   4.484  13.629  0.00  0.00    +0.000 A 
ATOM      7  C   UNL     1       7.124   4.234  12.188  0.00  0.00    +0.000 C 
ATOM      8  O   UNL     1       6.037   3.667  14.277  0.00  0.00    +0.000 OA
ATOM      9  C   UNL     1       6.042   4.138  15.560  0.00  0.00    +0.000 A 
ATOM     10  C   UNL     1       5.296   3.667  16.637  0.00  0.00    +0.000 A 
ENDROOT
BRANCH   1  14
ATOM     11  C   UNL     1       1.120   3.635  18.397  0.00  0.00    +0.000 C 
ATOM     12  N   UNL     1       2.537   3.878  18.239  0.00  0.00    +0.000 NA
ATOM     13  C   UNL     1       3.429   3.580  19.107  0.00  0.00    +0.000 C 
ATOM     14  N   UNL     1       4.768   3.858  18.989  0.00  0.00    +0.000 N 
ATOM     15  H   UNL     1       5.324   3.672  19.812  0.00  0.00    +0.000 HD
BRANCH  13  16
ATOM     16  S   UNL     1       3.086   2.774  20.636  0.00  0.00    +0.000 S 
ATOM     17  H   UNL     1       2.238   3.684  21.125  0.00  0.00    +0.000 HD
ENDBRANCH  13  16
ENDBRANCH   1  14
TORSDOF 2
ENDMDL
MODEL 7
REMARK VINA RESULT:      -5.7      1.742      2.472
REMARK  Name = 
REMARK  4 active torsions:
REMARK  status: ('A' for Active; 'I' for Inactive)
REMARK    1  A    between atoms: C_1  and  N_2
REMARK    2  A    between atoms: C_3  and  S_4
REMARK    3  A    between atoms: N_5  and  C_6
REMARK    4  A    between atoms: C_11  and  C_12
REMARK                            x       y       z     vdW  Elec       q    Type
REMARK                         _______ _______ _______ _____ _____    ______ ____
ROOT
ATOM      1  C   UNL     1       3.824   4.525  18.113  0.00  0.00    +0.000 A 
ATOM      2  C   UNL     1       4.114   5.903  18.081  0.00  0.00    +0.000 A 
ATOM      3  C   UNL     1       4.893   6.491  17.070  0.00  0.00    +0.000 A 
ATOM      4  C   UNL     1       5.399   5.661  16.070  0.00  0.00    +0.000 A 
ATOM      5  N   UNL     1       6.167   5.940  14.972  0.00  0.00    +0.000 NA
ATOM      6  C   UNL     1       6.325   4.763  14.399  0.00  0.00    +0.000 A 
ATOM      7  C   UNL     1       7.051   4.439  13.157  0.00  0.00    +0.000 C 
ATOM      8  O   UNL     1       5.721   3.717  15.048  0.00  0.00    +0.000 OA
ATOM      9  C   UNL     1       5.118   4.307  16.123  0.00  0.00    +0.000 A 
ATOM     10  C   UNL     1       4.352   3.691  17.108  0.00  0.00    +0.000 A 
ENDROOT
BRANCH   1  14
ATOM     11  C   UNL     1       5.028   1.387  21.010  0.00  0.00    +0.000 C 
ATOM     12  N   UNL     1       4.621   2.396  20.058  0.00  0.00    +0.000 NA
ATOM     13  C   UNL     1       3.500   3.013  20.084  0.00  0.00    +0.000 C 
ATOM     14  N   UNL     1       3.084   3.931  19.153  0.00  0.00    +0.000 N 
ATOM     15  H   UNL     1       2.124   4.236  19.242  0.00  0.00    +0.000 HD
BRANCH  13  16
ATOM     16  S   UNL     1       2.269   2.768  21.320  0.00  0.00    +0.000 S 
ATOM     17  H   UNL     1       3.009   3.126  22.374  0.00  0.00    +0.000 HD
ENDBRANCH  13  16
ENDBRANCH   1  14
TORSDOF 2
ENDMDL
MODEL 8
REMARK VINA RESULT:      -5.6      3.107      5.938
REMARK  Name = 
REMARK  4 active torsions:
REMARK  status: ('A' for Active; 'I' for Inactive)
REMARK    1  A    between atoms: C_1  and  N_2
REMARK    2  A    between atoms: C_3  and  S_4
REMARK    3  A    between atoms: N_5  and  C_6
REMARK    4  A    between atoms: C_11  and  C_12
REMARK                            x       y       z     vdW  Elec       q    Type
REMARK                         _______ _______ _______ _____ _____    ______ ____
ROOT
ATOM      1  C   UNL     1       6.711   5.328  16.222  0.00  0.00    +0.000 A 
ATOM      2  C   UNL     1       7.338   4.812  17.373  0.00  0.00    +0.000 A 
ATOM      3  C   UNL     1       6.700   4.755  18.623  0.00  0.00    +0.000 A 
ATOM      4  C   UNL     1       5.395   5.240  18.713  0.00  0.00    +0.000 A 
ATOM      5  N   UNL     1       4.531   5.308  19.772  0.00  0.00    +0.000 NA
ATOM      6  C   UNL     1       3.450   5.855  19.253  0.00  0.00    +0.000 A 
ATOM      7  C   UNL     1       2.168   6.159  19.917  0.00  0.00    +0.000 C 
ATOM      8  O   UNL     1       3.539   6.165  17.920  0.00  0.00    +0.000 OA
ATOM      9  C   UNL     1       4.797   5.757  17.577  0.00  0.00    +0.000 A 
ATOM     10  C   UNL     1       5.399   5.831  16.324  0.00  0.00    +0.000 A 
ENDROOT
BRANCH   1  14
ATOM     11  C   UNL     1       5.854   3.263  12.389  0.00  0.00    +0.000 C 
ATOM     12  N   UNL     1       6.152   3.926  13.638  0.00  0.00    +0.000 NA
ATOM     13  C   UNL     1       7.042   4.835  13.788  0.00  0.00    +0.000 C 
ATOM     14  N   UNL     1       7.369   5.428  14.981  0.00  0.00    +0.000 N 
ATOM     15  H   UNL     1       8.176   6.036  14.957  0.00  0.00    +0.000 HD
BRANCH  13  16
ATOM     16  S   UNL     1       8.031   5.470  12.476  0.00  0.00    +0.000 S 
ATOM     17  H   UNL     1       7.492   4.749  11.488  0.00  0.00    +0.000 HD
ENDBRANCH  13  16
ENDBRANCH   1  14
TORSDOF 2
ENDMDL
MODEL 9
REMARK VINA RESULT:      -5.6      3.203      5.996
REMARK  Name = 
REMARK  4 active torsions:
REMARK  status: ('A' for Active; 'I' for Inactive)
REMARK    1  A    between atoms: C_1  and  N_2
REMARK    2  A    between atoms: C_3  and  S_4
REMARK    3  A    between atoms: N_5  and  C_6
REMARK    4  A    between atoms: C_11  and  C_12
REMARK                            x       y       z     vdW  Elec       q    Type
REMARK                         _______ _______ _______ _____ _____    ______ ____
ROOT
ATOM      1  C   UNL     1       5.866   5.449  16.246  0.00  0.00    +0.000 A 
ATOM      2  C   UNL     1       4.998   6.534  16.478  0.00  0.00    +0.000 A 
ATOM      3  C   UNL     1       4.011   6.514  17.479  0.00  0.00    +0.000 A 
ATOM      4  C   UNL     1       3.894   5.364  18.258  0.00  0.00    +0.000 A 
ATOM      5  N   UNL     1       3.051   5.060  19.292  0.00  0.00    +0.000 NA
ATOM      6  C   UNL     1       3.411   3.838  19.634  0.00  0.00    +0.000 A 
ATOM      7  C   UNL     1       2.867   2.990  20.711  0.00  0.00    +0.000 C 
ATOM      8  O   UNL     1       4.432   3.305  18.891  0.00  0.00    +0.000 OA
ATOM      9  C   UNL     1       4.744   4.300  18.008  0.00  0.00    +0.000 A 
ATOM     10  C   UNL     1       5.731   4.284  17.027  0.00  0.00    +0.000 A 
ENDROOT
BRANCH   1  14
ATOM     11  C   UNL     1       5.861   3.271  12.380  0.00  0.00    +0.000 C 
ATOM     12  N   UNL     1       5.880   3.970  13.645  0.00  0.00    +0.000 NA
ATOM     13  C   UNL     1       6.766   4.826  13.992  0.00  0.00    +0.000 C 
ATOM     14  N   UNL     1       6.822   5.452  15.212  0.00  0.00    +0.000 N 
ATOM     15  H   UNL     1       7.651   6.006  15.378  0.00  0.00    +0.000 HD
BRANCH  13  16
ATOM     16  S   UNL     1       8.098   5.339  12.960  0.00  0.00    +0.000 S 
ATOM     17  H   UNL     1       7.398   6.157  12.167  0.00  0.00    +0.000 HD
ENDBRANCH  13  16
ENDBRANCH   1  14
TORSDOF 2
ENDMDL
