MODEL 1
REMARK VINA RESULT:      -8.6      0.000      0.000
REMARK  Name = 
REMARK  4 active torsions:
REMARK  status: ('A' for Active; 'I' for Inactive)
REMARK    1  A    between atoms: N_1  and  C_2
REMARK    2  A    between atoms: C_5  and  S_6
REMARK    3  A    between atoms: S_6  and  C_9
REMARK    4  A    between atoms: C_12  and  N_13
REMARK                            x       y       z     vdW  Elec       q    Type
REMARK                         _______ _______ _______ _____ _____    ______ ____
ROOT
ATOM      1  C   UNL     1       1.626   8.277  19.492  0.00  0.00    +0.000 A 
ATOM      2  C   UNL     1       2.288   8.732  18.359  0.00  0.00    +0.000 A 
ATOM      3  C   UNL     1       3.254   8.018  17.597  0.00  0.00    +0.000 A 
ATOM      4  C   UNL     1       3.576   6.627  17.997  0.00  0.00    +0.000 A 
ATOM      5  C   UNL     1       3.057   6.217  19.112  0.00  0.00    +0.000 A 
ATOM      6  C   UNL     1       3.737   5.195  19.557  0.00  0.00    +0.000 A 
ATOM      7  C   UNL     1       3.108   4.194  20.091  0.00  0.00    +0.000 A 
ATOM      8  C   UNL     1       2.085   4.491  21.001  0.00  0.00    +0.000 A 
ATOM      9  C   UNL     1       1.515   5.932  20.929  0.00  0.00    +0.000 A 
ATOM     10  C   UNL     1       1.973   6.863  19.922  0.00  0.00    +0.000 A 
ENDROOT
BRANCH   4  11
ATOM     11  N   UNL     1       4.632   5.843  17.122  0.00  0.00    +0.000 N 
ATOM     12  C   UNL     1       5.765   6.619  17.170  0.00  0.00    +0.000 C 
ATOM     13  C   UNL     1       6.822   5.914  16.530  0.00  0.00    +0.000 C 
ATOM     14  N   UNL     1       7.287   5.043  15.636  0.00  0.00    +0.000 NA
ATOM     15  C   UNL     1       6.270   4.001  15.475  0.00  0.00    +0.000 C 
ATOM     16  C   UNL     1       4.648   4.507  16.305  0.00  0.00    +0.000 C 
ATOM     17  H   UNL     1       8.221   4.819  16.160  0.00  0.00    +0.000 HD
ENDBRANCH   4  11
BRANCH   1  18
ATOM     18  S   UNL     1       0.514   9.683  20.000  0.00  0.00    +0.000 S 
ATOM     19  O   UNL     1       1.367  10.963  20.286  0.00  0.00    +0.000 OA
ATOM     20  O   UNL     1      -0.151   9.520  21.373  0.00  0.00    +0.000 OA
BRANCH  18  24
ATOM     21  C   UNL     1      -3.007  11.283  17.292  0.00  0.00    +0.000 A 
ATOM     22  C   UNL     1      -2.198  10.180  16.778  0.00  0.00    +0.000 A 
ATOM     23  C   UNL     1      -1.117   9.735  17.529  0.00  0.00    +0.000 A 
ATOM     24  C   UNL     1      -0.792  10.294  18.803  0.00  0.00    +0.000 A 
ATOM     25  C   UNL     1      -1.564  11.364  19.256  0.00  0.00    +0.000 A 
ATOM     26  C   UNL     1      -2.650  11.854  18.520  0.00  0.00    +0.000 A 
BRANCH  21  27
ATOM     27  N   UNL     1      -4.143  11.788  16.600  0.00  0.00    +0.000 N 
ATOM     28  H   UNL     1      -5.082  11.373  16.703  0.00  0.00    +0.000 HD
ATOM     29  H   UNL     1      -4.054  12.620  15.993  0.00  0.00    +0.000 HD
ENDBRANCH  21  27
ENDBRANCH  18  24
ENDBRANCH   1  18
TORSDOF 4
ENDMDL
MODEL 2
REMARK VINA RESULT:      -8.5      1.423      1.899
REMARK  Name = 
REMARK  4 active torsions:
REMARK  status: ('A' for Active; 'I' for Inactive)
REMARK    1  A    between atoms: N_1  and  C_2
REMARK    2  A    between atoms: C_5  and  S_6
REMARK    3  A    between atoms: S_6  and  C_9
REMARK    4  A    between atoms: C_12  and  N_13
REMARK                            x       y       z     vdW  Elec       q    Type
REMARK                         _______ _______ _______ _____ _____    ______ ____
ROOT
ATOM      1  C   UNL     1       1.827   7.220  20.154  0.00  0.00    +0.000 A 
ATOM      2  C   UNL     1       2.366   7.921  19.084  0.00  0.00    +0.000 A 
ATOM      3  C   UNL     1       3.288   7.424  18.122  0.00  0.00    +0.000 A 
ATOM      4  C   UNL     1       3.702   6.003  18.214  0.00  0.00    +0.000 A 
ATOM      5  C   UNL     1       3.302   5.357  19.265  0.00  0.00    +0.000 A 
ATOM      6  C   UNL     1       4.061   4.310  19.445  0.00  0.00    +0.000 A 
ATOM      7  C   UNL     1       3.524   3.190  19.820  0.00  0.00    +0.000 A 
ATOM      8  C   UNL     1       2.574   3.247  20.848  0.00  0.00    +0.000 A 
ATOM      9  C   UNL     1       1.941   4.639  21.107  0.00  0.00    +0.000 A 
ATOM     10  C   UNL     1       2.268   5.771  20.269  0.00  0.00    +0.000 A 
ENDROOT
BRANCH   4  11
ATOM     11  N   UNL     1       4.707   5.464  17.121  0.00  0.00    +0.000 N 
ATOM     12  C   UNL     1       5.759   6.346  17.154  0.00  0.00    +0.000 C 
ATOM     13  C   UNL     1       6.788   5.854  16.304  0.00  0.00    +0.000 C 
ATOM     14  N   UNL     1       7.215   5.167  15.246  0.00  0.00    +0.000 NA
ATOM     15  C   UNL     1       6.288   4.051  15.049  0.00  0.00    +0.000 C 
ATOM     16  C   UNL     1       4.743   4.260  16.121  0.00  0.00    +0.000 C 
ATOM     17  H   UNL     1       8.225   4.979  15.623  0.00  0.00    +0.000 HD
ENDBRANCH   4  11
BRANCH   1  18
ATOM     18  S   UNL     1       0.708   8.434  21.015  0.00  0.00    +0.000 S 
ATOM     19  O   UNL     1       1.360   8.903  22.359  0.00  0.00    +0.000 OA
ATOM     20  O   UNL     1      -0.593   7.839  21.569  0.00  0.00    +0.000 OA
BRANCH  18  24
ATOM     21  C   UNL     1      -0.452  12.284  18.540  0.00  0.00    +0.000 A 
ATOM     22  C   UNL     1       0.648  12.393  19.495  0.00  0.00    +0.000 A 
ATOM     23  C   UNL     1       0.965  11.292  20.281  0.00  0.00    +0.000 A 
ATOM     24  C   UNL     1       0.277  10.045  20.160  0.00  0.00    +0.000 A 
ATOM     25  C   UNL     1      -0.786   9.978  19.259  0.00  0.00    +0.000 A 
ATOM     26  C   UNL     1      -1.150  11.072  18.463  0.00  0.00    +0.000 A 
BRANCH  21  27
ATOM     27  N   UNL     1      -0.831  13.354  17.682  0.00  0.00    +0.000 N 
ATOM     28  H   UNL     1      -0.919  13.239  16.661  0.00  0.00    +0.000 HD
ATOM     29  H   UNL     1      -1.064  14.280  18.079  0.00  0.00    +0.000 HD
ENDBRANCH  21  27
ENDBRANCH  18  24
ENDBRANCH   1  18
TORSDOF 4
ENDMDL
MODEL 3
REMARK VINA RESULT:      -8.1      0.387      1.013
REMARK  Name = 
REMARK  4 active torsions:
REMARK  status: ('A' for Active; 'I' for Inactive)
REMARK    1  A    between atoms: N_1  and  C_2
REMARK    2  A    between atoms: C_5  and  S_6
REMARK    3  A    between atoms: S_6  and  C_9
REMARK    4  A    between atoms: C_12  and  N_13
REMARK                            x       y       z     vdW  Elec       q    Type
REMARK                         _______ _______ _______ _____ _____    ______ ____
ROOT
ATOM      1  C   UNL     1       1.559   8.171  19.699  0.00  0.00    +0.000 A 
ATOM      2  C   UNL     1       2.200   8.710  18.592  0.00  0.00    +0.000 A 
ATOM      3  C   UNL     1       3.189   8.075  17.791  0.00  0.00    +0.000 A 
ATOM      4  C   UNL     1       3.564   6.678  18.116  0.00  0.00    +0.000 A 
ATOM      5  C   UNL     1       3.064   6.189  19.208  0.00  0.00    +0.000 A 
ATOM      6  C   UNL     1       3.784   5.171  19.596  0.00  0.00    +0.000 A 
ATOM      7  C   UNL     1       3.194   4.120  20.076  0.00  0.00    +0.000 A 
ATOM      8  C   UNL     1       2.163   4.329  21.002  0.00  0.00    +0.000 A 
ATOM      9  C   UNL     1       1.540   5.749  21.009  0.00  0.00    +0.000 A 
ATOM     10  C   UNL     1       1.960   6.749  20.052  0.00  0.00    +0.000 A 
ENDROOT
BRANCH   4  11
ATOM     11  N   UNL     1       4.645   5.981  17.198  0.00  0.00    +0.000 N 
ATOM     12  C   UNL     1       5.749   6.794  17.287  0.00  0.00    +0.000 C 
ATOM     13  C   UNL     1       6.829   6.164  16.609  0.00  0.00    +0.000 C 
ATOM     14  N   UNL     1       7.323   5.361  15.668  0.00  0.00    +0.000 NA
ATOM     15  C   UNL     1       6.344   4.293  15.451  0.00  0.00    +0.000 C 
ATOM     16  C   UNL     1       4.707   4.693  16.309  0.00  0.00    +0.000 C 
ATOM     17  H   UNL     1       8.266   5.142  16.178  0.00  0.00    +0.000 HD
ENDBRANCH   4  11
BRANCH   1  18
ATOM     18  S   UNL     1       0.397   9.505  20.284  0.00  0.00    +0.000 S 
ATOM     19  O   UNL     1       1.213  10.752  20.764  0.00  0.00    +0.000 OA
ATOM     20  O   UNL     1      -0.353   9.188  21.584  0.00  0.00    +0.000 OA
BRANCH  18  24
ATOM     21  C   UNL     1      -2.497  11.191  16.956  0.00  0.00    +0.000 A 
ATOM     22  C   UNL     1      -2.250  12.024  18.131  0.00  0.00    +0.000 A 
ATOM     23  C   UNL     1      -1.453  11.521  19.153  0.00  0.00    +0.000 A 
ATOM     24  C   UNL     1      -0.837  10.235  19.077  0.00  0.00    +0.000 A 
ATOM     25  C   UNL     1      -1.112   9.451  17.956  0.00  0.00    +0.000 A 
ATOM     26  C   UNL     1      -1.926   9.913  16.914  0.00  0.00    +0.000 A 
BRANCH  21  27
ATOM     27  N   UNL     1      -3.283  11.633  15.855  0.00  0.00    +0.000 N 
ATOM     28  H   UNL     1      -2.900  11.714  14.901  0.00  0.00    +0.000 HD
ATOM     29  H   UNL     1      -4.284  11.854  15.988  0.00  0.00    +0.000 HD
ENDBRANCH  21  27
ENDBRANCH  18  24
ENDBRANCH   1  18
TORSDOF 4
ENDMDL
MODEL 4
REMARK VINA RESULT:      -7.7      0.637      1.043
REMARK  Name = 
REMARK  4 active torsions:
REMARK  status: ('A' for Active; 'I' for Inactive)
REMARK    1  A    between atoms: N_1  and  C_2
REMARK    2  A    between atoms: C_5  and  S_6
REMARK    3  A    between atoms: S_6  and  C_9
REMARK    4  A    between atoms: C_12  and  N_13
REMARK                            x       y       z     vdW  Elec       q    Type
REMARK                         _______ _______ _______ _____ _____    ______ ____
ROOT
ATOM      1  C   UNL     1       1.602   8.527  19.285  0.00  0.00    +0.000 A 
ATOM      2  C   UNL     1       2.322   8.890  18.155  0.00  0.00    +0.000 A 
ATOM      3  C   UNL     1       3.315   8.112  17.496  0.00  0.00    +0.000 A 
ATOM      4  C   UNL     1       3.601   6.753  18.014  0.00  0.00    +0.000 A 
ATOM      5  C   UNL     1       3.024   6.432  19.130  0.00  0.00    +0.000 A 
ATOM      6  C   UNL     1       3.671   5.441  19.682  0.00  0.00    +0.000 A 
ATOM      7  C   UNL     1       3.005   4.488  20.258  0.00  0.00    +0.000 A 
ATOM      8  C   UNL     1       1.943   4.861  21.093  0.00  0.00    +0.000 A 
ATOM      9  C   UNL     1       1.394   6.297  20.887  0.00  0.00    +0.000 A 
ATOM     10  C   UNL     1       1.911   7.146  19.836  0.00  0.00    +0.000 A 
ENDROOT
BRANCH   4  11
ATOM     11  N   UNL     1       4.688   5.896  17.251  0.00  0.00    +0.000 N 
ATOM     12  C   UNL     1       4.021   4.761  16.861  0.00  0.00    +0.000 C 
ATOM     13  C   UNL     1       4.885   3.993  16.031  0.00  0.00    +0.000 C 
ATOM     14  N   UNL     1       6.092   3.586  15.644  0.00  0.00    +0.000 NA
ATOM     15  C   UNL     1       7.016   4.701  15.860  0.00  0.00    +0.000 C 
ATOM     16  C   UNL     1       6.201   6.064  16.887  0.00  0.00    +0.000 C 
ATOM     17  H   UNL     1       5.803   3.305  14.626  0.00  0.00    +0.000 HD
ENDBRANCH   4  11
BRANCH   1  18
ATOM     18  S   UNL     1       0.484   9.976  19.633  0.00  0.00    +0.000 S 
ATOM     19  O   UNL     1       1.304  11.308  19.583  0.00  0.00    +0.000 OA
ATOM     20  O   UNL     1      -0.037  10.063  21.073  0.00  0.00    +0.000 OA
BRANCH  18  24
ATOM     21  C   UNL     1      -3.371  10.869  17.057  0.00  0.00    +0.000 A 
ATOM     22  C   UNL     1      -2.425   9.877  16.548  0.00  0.00    +0.000 A 
ATOM     23  C   UNL     1      -1.252   9.645  17.257  0.00  0.00    +0.000 A 
ATOM     24  C   UNL     1      -0.957  10.314  18.484  0.00  0.00    +0.000 A 
ATOM     25  C   UNL     1      -1.865  11.275  18.931  0.00  0.00    +0.000 A 
ATOM     26  C   UNL     1      -3.049  11.553  18.235  0.00  0.00    +0.000 A 
BRANCH  21  27
ATOM     27  N   UNL     1      -4.604  11.155  16.407  0.00  0.00    +0.000 N 
ATOM     28  H   UNL     1      -5.303  11.798  16.810  0.00  0.00    +0.000 HD
ATOM     29  H   UNL     1      -4.812  10.742  15.483  0.00  0.00    +0.000 HD
ENDBRANCH  21  27
ENDBRANCH  18  24
ENDBRANCH   1  18
TORSDOF 4
ENDMDL
MODEL 5
REMARK VINA RESULT:      -7.7      3.189      7.832
REMARK  Name = 
REMARK  4 active torsions:
REMARK  status: ('A' for Active; 'I' for Inactive)
REMARK    1  A    between atoms: N_1  and  C_2
REMARK    2  A    between atoms: C_5  and  S_6
REMARK    3  A    between atoms: S_6  and  C_9
REMARK    4  A    between atoms: C_12  and  N_13
REMARK                            x       y       z     vdW  Elec       q    Type
REMARK                         _______ _______ _______ _____ _____    ______ ____
ROOT
ATOM      1  C   UNL     1       2.026   7.767  19.185  0.00  0.00    +0.000 A 
ATOM      2  C   UNL     1       2.298   8.581  18.093  0.00  0.00    +0.000 A 
ATOM      3  C   UNL     1       1.961   9.957  17.957  0.00  0.00    +0.000 A 
ATOM      4  C   UNL     1       1.295  10.633  19.095  0.00  0.00    +0.000 A 
ATOM      5  C   UNL     1       0.932   9.874  20.081  0.00  0.00    +0.000 A 
ATOM      6  C   UNL     1       0.008  10.479  20.777  0.00  0.00    +0.000 A 
ATOM      7  C   UNL     1       0.028  10.395  22.072  0.00  0.00    +0.000 A 
ATOM      8  C   UNL     1       0.265   9.131  22.629  0.00  0.00    +0.000 A 
ATOM      9  C   UNL     1       0.916   8.087  21.684  0.00  0.00    +0.000 A 
ATOM     10  C   UNL     1       1.320   8.449  20.344  0.00  0.00    +0.000 A 
ENDROOT
BRANCH   4  11
ATOM     11  N   UNL     1       0.954  12.168  18.932  0.00  0.00    +0.000 N 
ATOM     12  C   UNL     1       2.176  12.794  18.925  0.00  0.00    +0.000 C 
ATOM     13  C   UNL     1       1.975  14.172  18.629  0.00  0.00    +0.000 C 
ATOM     14  N   UNL     1       1.248  15.286  18.644  0.00  0.00    +0.000 NA
ATOM     15  C   UNL     1      -0.159  14.888  18.545  0.00  0.00    +0.000 C 
ATOM     16  C   UNL     1      -0.350  13.022  18.789  0.00  0.00    +0.000 C 
ATOM     17  H   UNL     1       1.741  15.764  17.792  0.00  0.00    +0.000 HD
ENDBRANCH   4  11
BRANCH   1  18
ATOM     18  S   UNL     1       2.718   6.099  18.729  0.00  0.00    +0.000 S 
ATOM     19  O   UNL     1       1.639   5.264  17.961  0.00  0.00    +0.000 OA
ATOM     20  O   UNL     1       2.964   5.153  19.911  0.00  0.00    +0.000 OA
BRANCH  18  24
ATOM     21  C   UNL     1       6.507   5.485  15.979  0.00  0.00    +0.000 A 
ATOM     22  C   UNL     1       6.412   6.727  16.742  0.00  0.00    +0.000 A 
ATOM     23  C   UNL     1       5.275   6.958  17.508  0.00  0.00    +0.000 A 
ATOM     24  C   UNL     1       4.215   6.006  17.605  0.00  0.00    +0.000 A 
ATOM     25  C   UNL     1       4.319   4.842  16.844  0.00  0.00    +0.000 A 
ATOM     26  C   UNL     1       5.439   4.580  16.044  0.00  0.00    +0.000 A 
BRANCH  21  27
ATOM     27  N   UNL     1       7.641   5.157  15.185  0.00  0.00    +0.000 N 
ATOM     28  H   UNL     1       7.713   4.270  14.664  0.00  0.00    +0.000 HD
ATOM     29  H   UNL     1       8.419   5.832  15.087  0.00  0.00    +0.000 HD
ENDBRANCH  21  27
ENDBRANCH  18  24
ENDBRANCH   1  18
TORSDOF 4
ENDMDL
MODEL 6
REMARK VINA RESULT:      -7.7      2.690      3.174
REMARK  Name = 
REMARK  4 active torsions:
REMARK  status: ('A' for Active; 'I' for Inactive)
REMARK    1  A    between atoms: N_1  and  C_2
REMARK    2  A    between atoms: C_5  and  S_6
REMARK    3  A    between atoms: S_6  and  C_9
REMARK    4  A    between atoms: C_12  and  N_13
REMARK                            x       y       z     vdW  Elec       q    Type
REMARK                         _______ _______ _______ _____ _____    ______ ____
ROOT
ATOM      1  C   UNL     1       1.703   8.456  19.102  0.00  0.00    +0.000 A 
ATOM      2  C   UNL     1       2.398   8.799  17.949  0.00  0.00    +0.000 A 
ATOM      3  C   UNL     1       3.374   8.010  17.280  0.00  0.00    +0.000 A 
ATOM      4  C   UNL     1       3.671   6.659  17.814  0.00  0.00    +0.000 A 
ATOM      5  C   UNL     1       3.120   6.357  18.948  0.00  0.00    +0.000 A 
ATOM      6  C   UNL     1       3.778   5.374  19.501  0.00  0.00    +0.000 A 
ATOM      7  C   UNL     1       3.125   4.432  20.108  0.00  0.00    +0.000 A 
ATOM      8  C   UNL     1       2.082   4.819  20.960  0.00  0.00    +0.000 A 
ATOM      9  C   UNL     1       1.530   6.253  20.744  0.00  0.00    +0.000 A 
ATOM     10  C   UNL     1       2.023   7.083  19.667  0.00  0.00    +0.000 A 
ENDROOT
BRANCH   4  11
ATOM     11  N   UNL     1       4.739   5.789  17.040  0.00  0.00    +0.000 N 
ATOM     12  C   UNL     1       5.882   6.550  17.057  0.00  0.00    +0.000 C 
ATOM     13  C   UNL     1       6.946   5.778  16.512  0.00  0.00    +0.000 C 
ATOM     14  N   UNL     1       7.423   4.829  15.710  0.00  0.00    +0.000 NA
ATOM     15  C   UNL     1       6.394   3.791  15.606  0.00  0.00    +0.000 C 
ATOM     16  C   UNL     1       4.756   4.388  16.340  0.00  0.00    +0.000 C 
ATOM     17  H   UNL     1       8.337   4.636  16.279  0.00  0.00    +0.000 HD
ENDBRANCH   4  11
BRANCH   1  18
ATOM     18  S   UNL     1       0.595   9.912  19.451  0.00  0.00    +0.000 S 
ATOM     19  O   UNL     1      -0.111   9.726  20.836  0.00  0.00    +0.000 OA
ATOM     20  O   UNL     1      -0.646  10.012  18.555  0.00  0.00    +0.000 OA
BRANCH  18  24
ATOM     21  C   UNL     1       2.782  14.095  19.543  0.00  0.00    +0.000 A 
ATOM     22  C   UNL     1       2.107  13.651  20.761  0.00  0.00    +0.000 A 
ATOM     23  C   UNL     1       1.402  12.454  20.738  0.00  0.00    +0.000 A 
ATOM     24  C   UNL     1       1.347  11.624  19.577  0.00  0.00    +0.000 A 
ATOM     25  C   UNL     1       1.977  12.086  18.421  0.00  0.00    +0.000 A 
ATOM     26  C   UNL     1       2.680  13.297  18.397  0.00  0.00    +0.000 A 
BRANCH  21  27
ATOM     27  N   UNL     1       3.541  15.297  19.483  0.00  0.00    +0.000 N 
ATOM     28  H   UNL     1       4.311  15.430  18.809  0.00  0.00    +0.000 HD
ATOM     29  H   UNL     1       3.309  16.090  20.104  0.00  0.00    +0.000 HD
ENDBRANCH  21  27
ENDBRANCH  18  24
ENDBRANCH   1  18
TORSDOF 4
ENDMDL
MODEL 7
REMARK VINA RESULT:      -7.5      1.501      2.009
REMARK  Name = 
REMARK  4 active torsions:
REMARK  status: ('A' for Active; 'I' for Inactive)
REMARK    1  A    between atoms: N_1  and  C_2
REMARK    2  A    between atoms: C_5  and  S_6
REMARK    3  A    between atoms: S_6  and  C_9
REMARK    4  A    between atoms: C_12  and  N_13
REMARK                            x       y       z     vdW  Elec       q    Type
REMARK                         _______ _______ _______ _____ _____    ______ ____
ROOT
ATOM      1  C   UNL     1       1.867   7.196  20.070  0.00  0.00    +0.000 A 
ATOM      2  C   UNL     1       2.447   7.860  18.998  0.00  0.00    +0.000 A 
ATOM      3  C   UNL     1       3.409   7.332  18.093  0.00  0.00    +0.000 A 
ATOM      4  C   UNL     1       3.822   5.917  18.254  0.00  0.00    +0.000 A 
ATOM      5  C   UNL     1       3.382   5.308  19.310  0.00  0.00    +0.000 A 
ATOM      6  C   UNL     1       4.135   4.272  19.559  0.00  0.00    +0.000 A 
ATOM      7  C   UNL     1       3.587   3.164  19.953  0.00  0.00    +0.000 A 
ATOM      8  C   UNL     1       2.596   3.254  20.939  0.00  0.00    +0.000 A 
ATOM      9  C   UNL     1       1.949   4.652  21.121  0.00  0.00    +0.000 A 
ATOM     10  C   UNL     1       2.307   5.754  20.256  0.00  0.00    +0.000 A 
ENDROOT
BRANCH   4  11
ATOM     11  N   UNL     1       4.873   5.343  17.222  0.00  0.00    +0.000 N 
ATOM     12  C   UNL     1       4.169   4.417  16.492  0.00  0.00    +0.000 C 
ATOM     13  C   UNL     1       4.997   3.953  15.433  0.00  0.00    +0.000 C 
ATOM     14  N   UNL     1       6.186   3.675  14.901  0.00  0.00    +0.000 NA
ATOM     15  C   UNL     1       7.144   4.635  15.454  0.00  0.00    +0.000 C 
ATOM     16  C   UNL     1       6.384   5.592  16.897  0.00  0.00    +0.000 C 
ATOM     17  H   UNL     1       5.873   3.755  13.856  0.00  0.00    +0.000 HD
ENDBRANCH   4  11
BRANCH   1  18
ATOM     18  S   UNL     1       0.710   8.437  20.840  0.00  0.00    +0.000 S 
ATOM     19  O   UNL     1       1.357   9.042  22.131  0.00  0.00    +0.000 OA
ATOM     20  O   UNL     1      -0.560   7.842  21.460  0.00  0.00    +0.000 OA
BRANCH  18  24
ATOM     21  C   UNL     1      -0.502  12.462  18.691  0.00  0.00    +0.000 A 
ATOM     22  C   UNL     1      -1.216  11.245  18.312  0.00  0.00    +0.000 A 
ATOM     23  C   UNL     1      -0.833  10.038  18.884  0.00  0.00    +0.000 A 
ATOM     24  C   UNL     1       0.209   9.952  19.858  0.00  0.00    +0.000 A 
ATOM     25  C   UNL     1       0.893  11.125  20.179  0.00  0.00    +0.000 A 
ATOM     26  C   UNL     1       0.550  12.359  19.610  0.00  0.00    +0.000 A 
BRANCH  21  27
ATOM     27  N   UNL     1      -0.840  13.742  18.171  0.00  0.00    +0.000 N 
ATOM     28  H   UNL     1      -1.408  13.859  17.318  0.00  0.00    +0.000 HD
ATOM     29  H   UNL     1      -0.544  14.600  18.667  0.00  0.00    +0.000 HD
ENDBRANCH  21  27
ENDBRANCH  18  24
ENDBRANCH   1  18
TORSDOF 4
ENDMDL
MODEL 8
REMARK VINA RESULT:      -7.5      3.931      8.088
REMARK  Name = 
REMARK  4 active torsions:
REMARK  status: ('A' for Active; 'I' for Inactive)
REMARK    1  A    between atoms: N_1  and  C_2
REMARK    2  A    between atoms: C_5  and  S_6
REMARK    3  A    between atoms: S_6  and  C_9
REMARK    4  A    between atoms: C_12  and  N_13
REMARK                            x       y       z     vdW  Elec       q    Type
REMARK                         _______ _______ _______ _____ _____    ______ ____
ROOT
ATOM      1  C   UNL     1       5.292   5.745  17.465  0.00  0.00    +0.000 A 
ATOM      2  C   UNL     1       4.968   7.078  17.248  0.00  0.00    +0.000 A 
ATOM      3  C   UNL     1       3.913   7.806  17.864  0.00  0.00    +0.000 A 
ATOM      4  C   UNL     1       3.084   7.116  18.881  0.00  0.00    +0.000 A 
ATOM      5  C   UNL     1       3.292   5.844  19.023  0.00  0.00    +0.000 A 
ATOM      6  C   UNL     1       2.252   5.296  19.591  0.00  0.00    +0.000 A 
ATOM      7  C   UNL     1       2.427   4.377  20.490  0.00  0.00    +0.000 A 
ATOM      8  C   UNL     1       3.375   3.382  20.215  0.00  0.00    +0.000 A 
ATOM      9  C   UNL     1       4.412   3.723  19.114  0.00  0.00    +0.000 A 
ATOM     10  C   UNL     1       4.428   5.026  18.487  0.00  0.00    +0.000 A 
ENDROOT
BRANCH   4  11
ATOM     11  N   UNL     1       1.934   7.951  19.572  0.00  0.00    +0.000 N 
ATOM     12  C   UNL     1       1.601   8.911  18.648  0.00  0.00    +0.000 C 
ATOM     13  C   UNL     1       0.463   9.620  19.125  0.00  0.00    +0.000 C 
ATOM     14  N   UNL     1      -0.304  10.096  20.103  0.00  0.00    +0.000 NA
ATOM     15  C   UNL     1      -0.213   9.156  21.223  0.00  0.00    +0.000 C 
ATOM     16  C   UNL     1       1.179   7.907  20.943  0.00  0.00    +0.000 C 
ATOM     17  H   UNL     1      -1.225  10.157  19.515  0.00  0.00    +0.000 HD
ENDBRANCH   4  11
BRANCH   1  18
ATOM     18  S   UNL     1       6.753   5.415  16.358  0.00  0.00    +0.000 S 
ATOM     19  O   UNL     1       7.705   4.368  17.027  0.00  0.00    +0.000 OA
ATOM     20  O   UNL     1       7.736   6.583  16.215  0.00  0.00    +0.000 OA
BRANCH  18  24
ATOM     21  C   UNL     1       5.843   3.319  12.226  0.00  0.00    +0.000 A 
ATOM     22  C   UNL     1       7.115   4.022  12.368  0.00  0.00    +0.000 A 
ATOM     23  C   UNL     1       7.377   4.701  13.552  0.00  0.00    +0.000 A 
ATOM     24  C   UNL     1       6.462   4.703  14.649  0.00  0.00    +0.000 A 
ATOM     25  C   UNL     1       5.243   4.047  14.475  0.00  0.00    +0.000 A 
ATOM     26  C   UNL     1       4.932   3.368  13.289  0.00  0.00    +0.000 A 
BRANCH  21  27
ATOM     27  N   UNL     1       5.500   2.583  11.057  0.00  0.00    +0.000 N 
ATOM     28  H   UNL     1       5.411   1.555  11.058  0.00  0.00    +0.000 HD
ATOM     29  H   UNL     1       5.297   3.078  10.173  0.00  0.00    +0.000 HD
ENDBRANCH  21  27
ENDBRANCH  18  24
ENDBRANCH   1  18
TORSDOF 4
ENDMDL
MODEL 9
REMARK VINA RESULT:      -7.3      3.195      7.634
REMARK  Name = 
REMARK  4 active torsions:
REMARK  status: ('A' for Active; 'I' for Inactive)
REMARK    1  A    between atoms: N_1  and  C_2
REMARK    2  A    between atoms: C_5  and  S_6
REMARK    3  A    between atoms: S_6  and  C_9
REMARK    4  A    between atoms: C_12  and  N_13
REMARK                            x       y       z     vdW  Elec       q    Type
REMARK                         _______ _______ _______ _____ _____    ______ ____
ROOT
ATOM      1  C   UNL     1       2.012   7.371  19.155  0.00  0.00    +0.000 A 
ATOM      2  C   UNL     1       2.276   8.129  18.022  0.00  0.00    +0.000 A 
ATOM      3  C   UNL     1       1.983   9.509  17.838  0.00  0.00    +0.000 A 
ATOM      4  C   UNL     1       1.377  10.255  18.966  0.00  0.00    +0.000 A 
ATOM      5  C   UNL     1       1.020   9.550  19.994  0.00  0.00    +0.000 A 
ATOM      6  C   UNL     1       0.140  10.216  20.692  0.00  0.00    +0.000 A 
ATOM      7  C   UNL     1       0.199  10.185  21.987  0.00  0.00    +0.000 A 
ATOM      8  C   UNL     1       0.409   8.937  22.590  0.00  0.00    +0.000 A 
ATOM      9  C   UNL     1       0.994   7.833  21.671  0.00  0.00    +0.000 A 
ATOM     10  C   UNL     1       1.366   8.125  20.305  0.00  0.00    +0.000 A 
ENDROOT
BRANCH   4  11
ATOM     11  N   UNL     1       1.084  11.793  18.749  0.00  0.00    +0.000 N 
ATOM     12  C   UNL     1       2.325  12.380  18.720  0.00  0.00    +0.000 C 
ATOM     13  C   UNL     1       2.168  13.752  18.377  0.00  0.00    +0.000 C 
ATOM     14  N   UNL     1       1.475  14.888  18.351  0.00  0.00    +0.000 NA
ATOM     15  C   UNL     1       0.057  14.531  18.265  0.00  0.00    +0.000 C 
ATOM     16  C   UNL     1      -0.193  12.682  18.575  0.00  0.00    +0.000 C 
ATOM     17  H   UNL     1       1.983  15.320  17.484  0.00  0.00    +0.000 HD
ENDBRANCH   4  11
BRANCH   1  18
ATOM     18  S   UNL     1       2.631   5.662  18.749  0.00  0.00    +0.000 S 
ATOM     19  O   UNL     1       1.532   4.867  17.967  0.00  0.00    +0.000 OA
ATOM     20  O   UNL     1       2.796   4.728  19.955  0.00  0.00    +0.000 OA
BRANCH  18  24
ATOM     21  C   UNL     1       6.469   5.574  16.001  0.00  0.00    +0.000 A 
ATOM     22  C   UNL     1       5.472   4.522  15.814  0.00  0.00    +0.000 A 
ATOM     23  C   UNL     1       4.366   4.490  16.655  0.00  0.00    +0.000 A 
ATOM     24  C   UNL     1       4.151   5.472  17.670  0.00  0.00    +0.000 A 
ATOM     25  C   UNL     1       5.132   6.449  17.843  0.00  0.00    +0.000 A 
ATOM     26  C   UNL     1       6.271   6.503  17.030  0.00  0.00    +0.000 A 
BRANCH  21  27
ATOM     27  N   UNL     1       7.621   5.694  15.174  0.00  0.00    +0.000 N 
ATOM     28  H   UNL     1       7.556   5.855  14.157  0.00  0.00    +0.000 HD
ATOM     29  H   UNL     1       8.566   5.654  15.591  0.00  0.00    +0.000 HD
ENDBRANCH  21  27
ENDBRANCH  18  24
ENDBRANCH   1  18
TORSDOF 4
ENDMDL
