MODEL 1
REMARK VINA RESULT:      -8.0      0.000      0.000
REMARK  Name = 
REMARK  5 active torsions:
REMARK  status: ('A' for Active; 'I' for Inactive)
REMARK    1  A    between atoms: C_1  and  C_2
REMARK    2  A    between atoms: C_4  and  C_5
REMARK    3  A    between atoms: N_12  and  C_13
REMARK    4  A    between atoms: C_13  and  C_14
REMARK    5  A    between atoms: C_14  and  C_15
REMARK                            x       y       z     vdW  Elec       q    Type
REMARK                         _______ _______ _______ _____ _____    ______ ____
ROOT
ATOM      1  C   UNL     1       0.906   2.750  20.358  0.00  0.00    +0.000 C 
ATOM      2  C   UNL     1       1.273   4.119  19.819  0.00  0.00    +0.000 C 
ATOM      3  S   UNL     1       2.454   4.992  20.877  0.00  0.00    +0.000 S 
ATOM      4  C   UNL     1       3.101   5.925  19.469  0.00  0.00    +0.000 C 
ATOM      5  N   UNL     1       2.956   5.035  18.332  0.00  0.00    +0.000 N 
ATOM      6  C   UNL     1       1.935   4.084  18.438  0.00  0.00    +0.000 C 
ATOM      7  O   UNL     1       1.577   3.349  17.524  0.00  0.00    +0.000 OA
ENDROOT
BRANCH   4   8
ATOM      8  C   UNL     1       2.399   7.270  19.306  0.00  0.00    +0.000 A 
ATOM      9  C   UNL     1       2.499   7.957  18.085  0.00  0.00    +0.000 A 
ATOM     10  C   UNL     1       1.843   9.183  17.898  0.00  0.00    +0.000 A 
ATOM     11  C   UNL     1       1.120   9.737  18.943  0.00  0.00    +0.000 A 
ATOM     12  F   UNL     1       0.485  10.905  18.758  0.00  0.00    +0.000 F 
ATOM     13  C   UNL     1       1.037   9.102  20.173  0.00  0.00    +0.000 A 
ATOM     14  C   UNL     1       1.677   7.870  20.355  0.00  0.00    +0.000 A 
ENDBRANCH   4   8
BRANCH   5  15
ATOM     15  C   UNL     1       3.714   5.248  17.086  0.00  0.00    +0.000 C 
BRANCH  15  16
ATOM     16  C   UNL     1       5.113   4.608  17.108  0.00  0.00    +0.000 C 
BRANCH  16  17
ATOM     17  C   UNL     1       6.212   5.514  17.598  0.00  0.00    +0.000 A 
ATOM     18  C   UNL     1       6.955   5.145  18.729  0.00  0.00    +0.000 A 
ATOM     19  C   UNL     1       7.957   5.978  19.225  0.00  0.00    +0.000 A 
ATOM     20  C   UNL     1       8.234   7.186  18.590  0.00  0.00    +0.000 A 
ATOM     21  C   UNL     1       7.524   7.550  17.447  0.00  0.00    +0.000 A 
ATOM     22  C   UNL     1       6.518   6.718  16.948  0.00  0.00    +0.000 A 
ENDBRANCH  16  17
ENDBRANCH  15  16
ENDBRANCH   5  15
TORSDOF 4
ENDMDL
MODEL 2
REMARK VINA RESULT:      -7.9      0.473      1.129
REMARK  Name = 
REMARK  5 active torsions:
REMARK  status: ('A' for Active; 'I' for Inactive)
REMARK    1  A    between atoms: C_1  and  C_2
REMARK    2  A    between atoms: C_4  and  C_5
REMARK    3  A    between atoms: N_12  and  C_13
REMARK    4  A    between atoms: C_13  and  C_14
REMARK    5  A    between atoms: C_14  and  C_15
REMARK                            x       y       z     vdW  Elec       q    Type
REMARK                         _______ _______ _______ _____ _____    ______ ____
ROOT
ATOM      1  C   UNL     1       1.049   2.369  19.767  0.00  0.00    +0.000 C 
ATOM      2  C   UNL     1       1.458   3.768  19.350  0.00  0.00    +0.000 C 
ATOM      3  S   UNL     1       2.545   4.566  20.557  0.00  0.00    +0.000 S 
ATOM      4  C   UNL     1       3.307   5.585  19.270  0.00  0.00    +0.000 C 
ATOM      5  N   UNL     1       3.259   4.770  18.070  0.00  0.00    +0.000 N 
ATOM      6  C   UNL     1       2.233   3.819  18.029  0.00  0.00    +0.000 C 
ATOM      7  O   UNL     1       1.954   3.145  17.043  0.00  0.00    +0.000 OA
ENDROOT
BRANCH   4   8
ATOM      8  C   UNL     1       2.621   6.940  19.136  0.00  0.00    +0.000 A 
ATOM      9  C   UNL     1       2.702   7.638  17.920  0.00  0.00    +0.000 A 
ATOM     10  C   UNL     1       2.059   8.874  17.760  0.00  0.00    +0.000 A 
ATOM     11  C   UNL     1       1.367   9.428  18.826  0.00  0.00    +0.000 A 
ATOM     12  F   UNL     1       0.744  10.606  18.667  0.00  0.00    +0.000 F 
ATOM     13  C   UNL     1       1.302   8.782  20.051  0.00  0.00    +0.000 A 
ATOM     14  C   UNL     1       1.929   7.539  20.207  0.00  0.00    +0.000 A 
ENDBRANCH   4   8
BRANCH   5  15
ATOM     15  C   UNL     1       4.118   5.059  16.908  0.00  0.00    +0.000 C 
BRANCH  15  16
ATOM     16  C   UNL     1       5.572   4.590  17.095  0.00  0.00    +0.000 C 
BRANCH  16  17
ATOM     17  C   UNL     1       6.510   5.644  17.623  0.00  0.00    +0.000 A 
ATOM     18  C   UNL     1       6.588   6.884  16.971  0.00  0.00    +0.000 A 
ATOM     19  C   UNL     1       7.469   7.868  17.417  0.00  0.00    +0.000 A 
ATOM     20  C   UNL     1       8.277   7.627  18.525  0.00  0.00    +0.000 A 
ATOM     21  C   UNL     1       8.187   6.411  19.200  0.00  0.00    +0.000 A 
ATOM     22  C   UNL     1       7.305   5.422  18.755  0.00  0.00    +0.000 A 
ENDBRANCH  16  17
ENDBRANCH  15  16
ENDBRANCH   5  15
TORSDOF 4
ENDMDL
MODEL 3
REMARK VINA RESULT:      -7.8      2.890      5.857
REMARK  Name = 
REMARK  5 active torsions:
REMARK  status: ('A' for Active; 'I' for Inactive)
REMARK    1  A    between atoms: C_1  and  C_2
REMARK    2  A    between atoms: C_4  and  C_5
REMARK    3  A    between atoms: N_12  and  C_13
REMARK    4  A    between atoms: C_13  and  C_14
REMARK    5  A    between atoms: C_14  and  C_15
REMARK                            x       y       z     vdW  Elec       q    Type
REMARK                         _______ _______ _______ _____ _____    ______ ____
ROOT
ATOM      1  C   UNL     1       6.946   4.687  15.061  0.00  0.00    +0.000 C 
ATOM      2  C   UNL     1       5.785   4.820  16.028  0.00  0.00    +0.000 C 
ATOM      3  S   UNL     1       6.248   4.428  17.733  0.00  0.00    +0.000 S 
ATOM      4  C   UNL     1       4.956   5.513  18.385  0.00  0.00    +0.000 C 
ATOM      5  N   UNL     1       4.827   6.574  17.403  0.00  0.00    +0.000 N 
ATOM      6  C   UNL     1       5.193   6.232  16.096  0.00  0.00    +0.000 C 
ATOM      7  O   UNL     1       5.017   6.950  15.118  0.00  0.00    +0.000 OA
ENDROOT
BRANCH   4   8
ATOM      8  C   UNL     1       3.663   4.755  18.664  0.00  0.00    +0.000 A 
ATOM      9  C   UNL     1       3.236   4.582  19.991  0.00  0.00    +0.000 A 
ATOM     10  C   UNL     1       2.037   3.912  20.276  0.00  0.00    +0.000 A 
ATOM     11  C   UNL     1       1.286   3.384  19.237  0.00  0.00    +0.000 A 
ATOM     12  F   UNL     1       0.134   2.752  19.512  0.00  0.00    +0.000 F 
ATOM     13  C   UNL     1       1.702   3.503  17.919  0.00  0.00    +0.000 A 
ATOM     14  C   UNL     1       2.890   4.188  17.633  0.00  0.00    +0.000 A 
ENDBRANCH   4   8
BRANCH   5  15
ATOM     15  C   UNL     1       4.179   7.855  17.734  0.00  0.00    +0.000 C 
BRANCH  15  16
ATOM     16  C   UNL     1       2.655   7.839  17.522  0.00  0.00    +0.000 C 
BRANCH  16  17
ATOM     17  C   UNL     1       1.856   8.408  18.665  0.00  0.00    +0.000 A 
ATOM     18  C   UNL     1       1.033   9.522  18.441  0.00  0.00    +0.000 A 
ATOM     19  C   UNL     1       0.305  10.091  19.485  0.00  0.00    +0.000 A 
ATOM     20  C   UNL     1       0.385   9.547  20.765  0.00  0.00    +0.000 A 
ATOM     21  C   UNL     1       1.174   8.422  20.994  0.00  0.00    +0.000 A 
ATOM     22  C   UNL     1       1.906   7.850  19.949  0.00  0.00    +0.000 A 
ENDBRANCH  16  17
ENDBRANCH  15  16
ENDBRANCH   5  15
TORSDOF 4
ENDMDL
MODEL 4
REMARK VINA RESULT:      -7.7      2.899      5.832
REMARK  Name = 
REMARK  5 active torsions:
REMARK  status: ('A' for Active; 'I' for Inactive)
REMARK    1  A    between atoms: C_1  and  C_2
REMARK    2  A    between atoms: C_4  and  C_5
REMARK    3  A    between atoms: N_12  and  C_13
REMARK    4  A    between atoms: C_13  and  C_14
REMARK    5  A    between atoms: C_14  and  C_15
REMARK                            x       y       z     vdW  Elec       q    Type
REMARK                         _______ _______ _______ _____ _____    ______ ____
ROOT
ATOM      1  C   UNL     1       7.055   4.745  15.254  0.00  0.00    +0.000 C 
ATOM      2  C   UNL     1       5.848   4.845  16.166  0.00  0.00    +0.000 C 
ATOM      3  S   UNL     1       6.249   4.495  17.896  0.00  0.00    +0.000 S 
ATOM      4  C   UNL     1       4.888   5.538  18.473  0.00  0.00    +0.000 C 
ATOM      5  N   UNL     1       4.762   6.579  17.470  0.00  0.00    +0.000 N 
ATOM      6  C   UNL     1       5.200   6.234  16.186  0.00  0.00    +0.000 C 
ATOM      7  O   UNL     1       5.040   6.931  15.190  0.00  0.00    +0.000 OA
ENDROOT
BRANCH   4   8
ATOM      8  C   UNL     1       3.613   4.734  18.706  0.00  0.00    +0.000 A 
ATOM      9  C   UNL     1       2.982   4.788  19.959  0.00  0.00    +0.000 A 
ATOM     10  C   UNL     1       1.794   4.080  20.193  0.00  0.00    +0.000 A 
ATOM     11  C   UNL     1       1.260   3.289  19.187  0.00  0.00    +0.000 A 
ATOM     12  F   UNL     1       0.118   2.621  19.411  0.00  0.00    +0.000 F 
ATOM     13  C   UNL     1       1.882   3.184  17.952  0.00  0.00    +0.000 A 
ATOM     14  C   UNL     1       3.059   3.905  17.712  0.00  0.00    +0.000 A 
ENDBRANCH   4   8
BRANCH   5  15
ATOM     15  C   UNL     1       4.052   7.839  17.752  0.00  0.00    +0.000 C 
BRANCH  15  16
ATOM     16  C   UNL     1       2.526   7.727  17.587  0.00  0.00    +0.000 C 
BRANCH  16  17
ATOM     17  C   UNL     1       1.725   8.511  18.594  0.00  0.00    +0.000 A 
ATOM     18  C   UNL     1       1.756   8.131  19.944  0.00  0.00    +0.000 A 
ATOM     19  C   UNL     1       1.002   8.817  20.894  0.00  0.00    +0.000 A 
ATOM     20  C   UNL     1       0.213   9.897  20.507  0.00  0.00    +0.000 A 
ATOM     21  C   UNL     1       0.197  10.304  19.174  0.00  0.00    +0.000 A 
ATOM     22  C   UNL     1       0.952   9.617  18.218  0.00  0.00    +0.000 A 
ENDBRANCH  16  17
ENDBRANCH  15  16
ENDBRANCH   5  15
TORSDOF 4
ENDMDL
MODEL 5
REMARK VINA RESULT:      -7.6      2.998      5.949
REMARK  Name = 
REMARK  5 active torsions:
REMARK  status: ('A' for Active; 'I' for Inactive)
REMARK    1  A    between atoms: C_1  and  C_2
REMARK    2  A    between atoms: C_4  and  C_5
REMARK    3  A    between atoms: N_12  and  C_13
REMARK    4  A    between atoms: C_13  and  C_14
REMARK    5  A    between atoms: C_14  and  C_15
REMARK                            x       y       z     vdW  Elec       q    Type
REMARK                         _______ _______ _______ _____ _____    ______ ____
ROOT
ATOM      1  C   UNL     1       6.998   4.828  14.803  0.00  0.00    +0.000 C 
ATOM      2  C   UNL     1       5.834   4.837  15.775  0.00  0.00    +0.000 C 
ATOM      3  S   UNL     1       6.299   4.261  17.427  0.00  0.00    +0.000 S 
ATOM      4  C   UNL     1       4.993   5.250  18.193  0.00  0.00    +0.000 C 
ATOM      5  N   UNL     1       4.852   6.413  17.336  0.00  0.00    +0.000 N 
ATOM      6  C   UNL     1       5.226   6.225  16.000  0.00  0.00    +0.000 C 
ATOM      7  O   UNL     1       5.042   7.046  15.109  0.00  0.00    +0.000 OA
ENDROOT
BRANCH   4   8
ATOM      8  C   UNL     1       3.708   4.451  18.381  0.00  0.00    +0.000 A 
ATOM      9  C   UNL     1       3.340   3.499  17.416  0.00  0.00    +0.000 A 
ATOM     10  C   UNL     1       2.177   2.731  17.576  0.00  0.00    +0.000 A 
ATOM     11  C   UNL     1       1.366   2.941  18.680  0.00  0.00    +0.000 A 
ATOM     12  F   UNL     1       0.259   2.197  18.836  0.00  0.00    +0.000 F 
ATOM     13  C   UNL     1       1.682   3.901  19.629  0.00  0.00    +0.000 A 
ATOM     14  C   UNL     1       2.852   4.657  19.479  0.00  0.00    +0.000 A 
ENDBRANCH   4   8
BRANCH   5  15
ATOM     15  C   UNL     1       4.189   7.641  17.807  0.00  0.00    +0.000 C 
BRANCH  15  16
ATOM     16  C   UNL     1       2.681   7.673  17.504  0.00  0.00    +0.000 C 
BRANCH  16  17
ATOM     17  C   UNL     1       1.853   8.429  18.509  0.00  0.00    +0.000 A 
ATOM     18  C   UNL     1       1.095   9.532  18.086  0.00  0.00    +0.000 A 
ATOM     19  C   UNL     1       0.343  10.270  18.999  0.00  0.00    +0.000 A 
ATOM     20  C   UNL     1       0.334   9.911  20.344  0.00  0.00    +0.000 A 
ATOM     21  C   UNL     1       1.057   8.799  20.772  0.00  0.00    +0.000 A 
ATOM     22  C   UNL     1       1.813   8.056  19.859  0.00  0.00    +0.000 A 
ENDBRANCH  16  17
ENDBRANCH  15  16
ENDBRANCH   5  15
TORSDOF 4
ENDMDL
MODEL 6
REMARK VINA RESULT:      -7.4      1.820      2.795
REMARK  Name = 
REMARK  5 active torsions:
REMARK  status: ('A' for Active; 'I' for Inactive)
REMARK    1  A    between atoms: C_1  and  C_2
REMARK    2  A    between atoms: C_4  and  C_5
REMARK    3  A    between atoms: N_12  and  C_13
REMARK    4  A    between atoms: C_13  and  C_14
REMARK    5  A    between atoms: C_14  and  C_15
REMARK                            x       y       z     vdW  Elec       q    Type
REMARK                         _______ _______ _______ _____ _____    ______ ____
ROOT
ATOM      1  C   UNL     1       0.904   2.526  19.320  0.00  0.00    +0.000 C 
ATOM      2  C   UNL     1       1.325   3.960  19.065  0.00  0.00    +0.000 C 
ATOM      3  S   UNL     1       2.187   4.696  20.477  0.00  0.00    +0.000 S 
ATOM      4  C   UNL     1       3.102   5.820  19.395  0.00  0.00    +0.000 C 
ATOM      5  N   UNL     1       3.267   5.091  18.151  0.00  0.00    +0.000 N 
ATOM      6  C   UNL     1       2.292   4.122  17.887  0.00  0.00    +0.000 C 
ATOM      7  O   UNL     1       2.191   3.514  16.827  0.00  0.00    +0.000 OA
ENDROOT
BRANCH   4   8
ATOM      8  C   UNL     1       2.400   7.165  19.245  0.00  0.00    +0.000 A 
ATOM      9  C   UNL     1       1.771   7.744  20.360  0.00  0.00    +0.000 A 
ATOM     10  C   UNL     1       1.140   8.992  20.257  0.00  0.00    +0.000 A 
ATOM     11  C   UNL     1       1.106   9.643  19.033  0.00  0.00    +0.000 A 
ATOM     12  F   UNL     1       0.510  10.842  18.941  0.00  0.00    +0.000 F 
ATOM     13  C   UNL     1       1.682   9.078  17.906  0.00  0.00    +0.000 A 
ATOM     14  C   UNL     1       2.328   7.839  18.011  0.00  0.00    +0.000 A 
ENDBRANCH   4   8
BRANCH   5  15
ATOM     15  C   UNL     1       4.284   5.481  17.158  0.00  0.00    +0.000 C 
BRANCH  15  16
ATOM     16  C   UNL     1       5.326   4.381  16.891  0.00  0.00    +0.000 C 
BRANCH  16  17
ATOM     17  C   UNL     1       5.862   4.351  15.484  0.00  0.00    +0.000 A 
ATOM     18  C   UNL     1       7.052   5.032  15.186  0.00  0.00    +0.000 A 
ATOM     19  C   UNL     1       7.557   5.048  13.887  0.00  0.00    +0.000 A 
ATOM     20  C   UNL     1       6.882   4.378  12.871  0.00  0.00    +0.000 A 
ATOM     21  C   UNL     1       5.715   3.672  13.159  0.00  0.00    +0.000 A 
ATOM     22  C   UNL     1       5.206   3.653  14.461  0.00  0.00    +0.000 A 
ENDBRANCH  16  17
ENDBRANCH  15  16
ENDBRANCH   5  15
TORSDOF 4
ENDMDL
MODEL 7
REMARK VINA RESULT:      -7.4      1.532      2.462
REMARK  Name = 
REMARK  5 active torsions:
REMARK  status: ('A' for Active; 'I' for Inactive)
REMARK    1  A    between atoms: C_1  and  C_2
REMARK    2  A    between atoms: C_4  and  C_5
REMARK    3  A    between atoms: N_12  and  C_13
REMARK    4  A    between atoms: C_13  and  C_14
REMARK    5  A    between atoms: C_14  and  C_15
REMARK                            x       y       z     vdW  Elec       q    Type
REMARK                         _______ _______ _______ _____ _____    ______ ____
ROOT
ATOM      1  C   UNL     1       1.002   2.193  18.680  0.00  0.00    +0.000 C 
ATOM      2  C   UNL     1       1.519   3.614  18.791  0.00  0.00    +0.000 C 
ATOM      3  S   UNL     1       1.162   4.364  20.400  0.00  0.00    +0.000 S 
ATOM      4  C   UNL     1       2.603   5.449  20.269  0.00  0.00    +0.000 C 
ATOM      5  N   UNL     1       3.574   4.692  19.500  0.00  0.00    +0.000 N 
ATOM      6  C   UNL     1       3.038   3.735  18.630  0.00  0.00    +0.000 C 
ATOM      7  O   UNL     1       3.693   3.107  17.805  0.00  0.00    +0.000 OA
ENDROOT
BRANCH   4   8
ATOM      8  C   UNL     1       2.244   6.803  19.666  0.00  0.00    +0.000 A 
ATOM      9  C   UNL     1       1.684   7.797  20.485  0.00  0.00    +0.000 A 
ATOM     10  C   UNL     1       1.368   9.060  19.964  0.00  0.00    +0.000 A 
ATOM     11  C   UNL     1       1.577   9.315  18.617  0.00  0.00    +0.000 A 
ATOM     12  F   UNL     1       1.283  10.528  18.123  0.00  0.00    +0.000 F 
ATOM     13  C   UNL     1       2.090   8.341  17.775  0.00  0.00    +0.000 A 
ATOM     14  C   UNL     1       2.423   7.085  18.299  0.00  0.00    +0.000 A 
ENDBRANCH   4   8
BRANCH   5  15
ATOM     15  C   UNL     1       5.004   5.044  19.506  0.00  0.00    +0.000 C 
BRANCH  15  16
ATOM     16  C   UNL     1       5.364   6.146  18.493  0.00  0.00    +0.000 C 
BRANCH  16  17
ATOM     17  C   UNL     1       5.822   5.640  17.150  0.00  0.00    +0.000 A 
ATOM     18  C   UNL     1       5.099   5.990  16.001  0.00  0.00    +0.000 A 
ATOM     19  C   UNL     1       5.479   5.512  14.747  0.00  0.00    +0.000 A 
ATOM     20  C   UNL     1       6.592   4.685  14.628  0.00  0.00    +0.000 A 
ATOM     21  C   UNL     1       7.338   4.355  15.758  0.00  0.00    +0.000 A 
ATOM     22  C   UNL     1       6.959   4.832  17.016  0.00  0.00    +0.000 A 
ENDBRANCH  16  17
ENDBRANCH  15  16
ENDBRANCH   5  15
TORSDOF 4
ENDMDL
MODEL 8
REMARK VINA RESULT:      -7.4      4.279      6.410
REMARK  Name = 
REMARK  5 active torsions:
REMARK  status: ('A' for Active; 'I' for Inactive)
REMARK    1  A    between atoms: C_1  and  C_2
REMARK    2  A    between atoms: C_4  and  C_5
REMARK    3  A    between atoms: N_12  and  C_13
REMARK    4  A    between atoms: C_13  and  C_14
REMARK    5  A    between atoms: C_14  and  C_15
REMARK                            x       y       z     vdW  Elec       q    Type
REMARK                         _______ _______ _______ _____ _____    ______ ____
ROOT
ATOM      1  C   UNL     1       7.940   6.313  19.192  0.00  0.00    +0.000 C 
ATOM      2  C   UNL     1       6.801   5.509  18.595  0.00  0.00    +0.000 C 
ATOM      3  S   UNL     1       5.456   6.553  17.982  0.00  0.00    +0.000 S 
ATOM      4  C   UNL     1       4.980   5.306  16.761  0.00  0.00    +0.000 C 
ATOM      5  N   UNL     1       6.217   4.634  16.409  0.00  0.00    +0.000 N 
ATOM      6  C   UNL     1       7.212   4.652  17.393  0.00  0.00    +0.000 C 
ATOM      7  O   UNL     1       8.260   4.018  17.328  0.00  0.00    +0.000 OA
ENDROOT
BRANCH   4   8
ATOM      8  C   UNL     1       3.891   4.378  17.289  0.00  0.00    +0.000 A 
ATOM      9  C   UNL     1       4.157   3.006  17.421  0.00  0.00    +0.000 A 
ATOM     10  C   UNL     1       3.183   2.133  17.928  0.00  0.00    +0.000 A 
ATOM     11  C   UNL     1       1.933   2.627  18.267  0.00  0.00    +0.000 A 
ATOM     12  F   UNL     1       1.006   1.791  18.762  0.00  0.00    +0.000 F 
ATOM     13  C   UNL     1       1.626   3.970  18.110  0.00  0.00    +0.000 A 
ATOM     14  C   UNL     1       2.605   4.845  17.620  0.00  0.00    +0.000 A 
ENDBRANCH   4   8
BRANCH   5  15
ATOM     15  C   UNL     1       6.337   3.837  15.176  0.00  0.00    +0.000 C 
BRANCH  15  16
ATOM     16  C   UNL     1       5.824   4.571  13.924  0.00  0.00    +0.000 C 
BRANCH  16  17
ATOM     17  C   UNL     1       5.480   3.673  12.765  0.00  0.00    +0.000 A 
ATOM     18  C   UNL     1       4.278   3.875  12.070  0.00  0.00    +0.000 A 
ATOM     19  C   UNL     1       3.918   3.041  11.013  0.00  0.00    +0.000 A 
ATOM     20  C   UNL     1       4.759   1.998  10.633  0.00  0.00    +0.000 A 
ATOM     21  C   UNL     1       5.970   1.805  11.295  0.00  0.00    +0.000 A 
ATOM     22  C   UNL     1       6.334   2.640  12.356  0.00  0.00    +0.000 A 
ENDBRANCH  16  17
ENDBRANCH  15  16
ENDBRANCH   5  15
TORSDOF 4
ENDMDL
MODEL 9
REMARK VINA RESULT:      -7.4      2.863      6.255
REMARK  Name = 
REMARK  5 active torsions:
REMARK  status: ('A' for Active; 'I' for Inactive)
REMARK    1  A    between atoms: C_1  and  C_2
REMARK    2  A    between atoms: C_4  and  C_5
REMARK    3  A    between atoms: N_12  and  C_13
REMARK    4  A    between atoms: C_13  and  C_14
REMARK    5  A    between atoms: C_14  and  C_15
REMARK                            x       y       z     vdW  Elec       q    Type
REMARK                         _______ _______ _______ _____ _____    ______ ____
ROOT
ATOM      1  C   UNL     1       7.263   5.457  16.375  0.00  0.00    +0.000 C 
ATOM      2  C   UNL     1       5.865   5.237  16.918  0.00  0.00    +0.000 C 
ATOM      3  S   UNL     1       5.840   5.008  18.713  0.00  0.00    +0.000 S 
ATOM      4  C   UNL     1       4.155   5.656  18.822  0.00  0.00    +0.000 C 
ATOM      5  N   UNL     1       4.056   6.625  17.746  0.00  0.00    +0.000 N 
ATOM      6  C   UNL     1       4.908   6.405  16.657  0.00  0.00    +0.000 C 
ATOM      7  O   UNL     1       4.862   7.033  15.605  0.00  0.00    +0.000 OA
ENDROOT
BRANCH   4   8
ATOM      8  C   UNL     1       3.112   4.545  18.763  0.00  0.00    +0.000 A 
ATOM      9  C   UNL     1       2.033   4.562  19.661  0.00  0.00    +0.000 A 
ATOM     10  C   UNL     1       1.045   3.568  19.612  0.00  0.00    +0.000 A 
ATOM     11  C   UNL     1       1.158   2.537  18.692  0.00  0.00    +0.000 A 
ATOM     12  F   UNL     1       0.206   1.592  18.641  0.00  0.00    +0.000 F 
ATOM     13  C   UNL     1       2.233   2.471  17.819  0.00  0.00    +0.000 A 
ATOM     14  C   UNL     1       3.211   3.474  17.855  0.00  0.00    +0.000 A 
ENDBRANCH   4   8
BRANCH   5  15
ATOM     15  C   UNL     1       3.001   7.653  17.730  0.00  0.00    +0.000 C 
BRANCH  15  16
ATOM     16  C   UNL     1       2.498   8.031  19.134  0.00  0.00    +0.000 C 
BRANCH  16  17
ATOM     17  C   UNL     1       1.298   8.942  19.149  0.00  0.00    +0.000 A 
ATOM     18  C   UNL     1       0.739   9.324  20.377  0.00  0.00    +0.000 A 
ATOM     19  C   UNL     1      -0.390  10.140  20.422  0.00  0.00    +0.000 A 
ATOM     20  C   UNL     1      -0.970  10.591  19.240  0.00  0.00    +0.000 A 
ATOM     21  C   UNL     1      -0.406  10.244  18.013  0.00  0.00    +0.000 A 
ATOM     22  C   UNL     1       0.726   9.425  17.964  0.00  0.00    +0.000 A 
ENDBRANCH  16  17
ENDBRANCH  15  16
ENDBRANCH   5  15
TORSDOF 4
ENDMDL
