MODEL 1
REMARK VINA RESULT:      -7.9      0.000      0.000
REMARK  Name = 
REMARK  2 active torsions:
REMARK  status: ('A' for Active; 'I' for Inactive)
REMARK    1  A    between atoms: C_2  and  C_4
REMARK    2  A    between atoms: C_14  and  C_15
REMARK                            x       y       z     vdW  Elec       q    Type
REMARK                         _______ _______ _______ _____ _____    ______ ____
ROOT
ATOM      1  C   UNL     1       0.215  12.494  20.182  0.00  0.00    +0.000 C 
ATOM      2  C   UNL     1       1.597  12.364  19.526  0.00  0.00    +0.000 C 
ATOM      3  C   UNL     1       1.672  11.216  18.515  0.00  0.00    +0.000 C 
ATOM      4  N   UNL     1       1.132   9.981  19.088  0.00  0.00    +0.000 N 
ATOM      5  C   UNL     1       1.759   8.757  19.064  0.00  0.00    +0.000 A 
ATOM      6  N   UNL     1       1.418   7.787  19.850  0.00  0.00    +0.000 NA
ATOM      7  C   UNL     1       2.122   6.576  19.799  0.00  0.00    +0.000 A 
ATOM      8  N   UNL     1       1.715   5.679  20.724  0.00  0.00    +0.000 NA
ATOM      9  C   UNL     1       2.369   4.505  20.757  0.00  0.00    +0.000 A 
ATOM     10  C   UNL     1       3.450   4.200  19.941  0.00  0.00    +0.000 A 
ATOM     11  C   UNL     1       3.892   5.127  18.979  0.00  0.00    +0.000 A 
ATOM     12  C   UNL     1       3.152   6.327  18.894  0.00  0.00    +0.000 A 
ATOM     13  C   UNL     1       3.317   7.370  17.867  0.00  0.00    +0.000 A 
ATOM     14  O   UNL     1       3.847   7.197  16.777  0.00  0.00    +0.000 OA
ATOM     15  N   UNL     1       2.761   8.584  18.151  0.00  0.00    +0.000 N 
ATOM     16  C   UNL     1      -0.219  10.091  19.639  0.00  0.00    +0.000 C 
ATOM     17  C   UNL     1      -0.209  11.134  20.748  0.00  0.00    +0.000 C 
ATOM     18  H   UNL     1       2.856   9.258  17.412  0.00  0.00    +0.000 HD
ENDROOT
BRANCH  11  19
ATOM     19  C   UNL     1       5.076   4.809  18.135  0.00  0.00    +0.000 A 
ATOM     20  C   UNL     1       4.943   4.173  16.887  0.00  0.00    +0.000 A 
ATOM     21  C   UNL     1       6.043   3.982  16.043  0.00  0.00    +0.000 A 
ATOM     22  C   UNL     1       7.300   4.443  16.415  0.00  0.00    +0.000 A 
ATOM     23  C   UNL     1       7.472   5.023  17.665  0.00  0.00    +0.000 A 
ATOM     24  C   UNL     1       6.382   5.152  18.531  0.00  0.00    +0.000 A 
ENDBRANCH  11  19
BRANCH   1  26
ATOM     25  N   UNL     1      -2.095  13.099  19.670  0.00  0.00    +0.000 N 
ATOM     26  C   UNL     1      -0.817  13.039  19.202  0.00  0.00    +0.000 C 
ATOM     27  O   UNL     1      -0.557  13.415  18.065  0.00  0.00    +0.000 OA
ATOM     28  H   UNL     1      -2.812  13.429  19.037  0.00  0.00    +0.000 HD
ATOM     29  H   UNL     1      -2.379  12.766  20.581  0.00  0.00    +0.000 HD
ENDBRANCH   1  26
TORSDOF 2
ENDMDL
MODEL 2
REMARK VINA RESULT:      -7.9      1.631      1.821
REMARK  Name = 
REMARK  2 active torsions:
REMARK  status: ('A' for Active; 'I' for Inactive)
REMARK    1  A    between atoms: C_2  and  C_4
REMARK    2  A    between atoms: C_14  and  C_15
REMARK                            x       y       z     vdW  Elec       q    Type
REMARK                         _______ _______ _______ _____ _____    ______ ____
ROOT
ATOM      1  C   UNL     1      -0.146  10.844  22.411  0.00  0.00    +0.000 C 
ATOM      2  C   UNL     1       1.117  11.003  21.552  0.00  0.00    +0.000 C 
ATOM      3  C   UNL     1       1.121  10.089  20.323  0.00  0.00    +0.000 C 
ATOM      4  N   UNL     1       0.784   8.712  20.694  0.00  0.00    +0.000 N 
ATOM      5  C   UNL     1       1.499   7.597  20.325  0.00  0.00    +0.000 A 
ATOM      6  N   UNL     1       1.371   6.460  20.930  0.00  0.00    +0.000 NA
ATOM      7  C   UNL     1       2.154   5.370  20.527  0.00  0.00    +0.000 A 
ATOM      8  N   UNL     1       1.979   4.269  21.291  0.00  0.00    +0.000 NA
ATOM      9  C   UNL     1       2.724   3.194  20.985  0.00  0.00    +0.000 A 
ATOM     10  C   UNL     1       3.680   3.179  19.977  0.00  0.00    +0.000 A 
ATOM     11  C   UNL     1       3.882   4.319  19.178  0.00  0.00    +0.000 A 
ATOM     12  C   UNL     1       3.041   5.421  19.453  0.00  0.00    +0.000 A 
ATOM     13  C   UNL     1       2.950   6.655  18.655  0.00  0.00    +0.000 A 
ATOM     14  O   UNL     1       3.309   6.760  17.489  0.00  0.00    +0.000 OA
ATOM     15  N   UNL     1       2.349   7.720  19.264  0.00  0.00    +0.000 N 
ATOM     16  C   UNL     1      -0.463   8.559  21.443  0.00  0.00    +0.000 C 
ATOM     17  C   UNL     1      -0.359   9.361  22.733  0.00  0.00    +0.000 C 
ATOM     18  H   UNL     1       2.268   8.531  18.677  0.00  0.00    +0.000 HD
ENDROOT
BRANCH  11  19
ATOM     19  C   UNL     1       4.935   4.309  18.127  0.00  0.00    +0.000 A 
ATOM     20  C   UNL     1       4.680   3.819  16.833  0.00  0.00    +0.000 A 
ATOM     21  C   UNL     1       5.633   3.917  15.813  0.00  0.00    +0.000 A 
ATOM     22  C   UNL     1       6.856   4.532  16.055  0.00  0.00    +0.000 A 
ATOM     23  C   UNL     1       7.158   4.973  17.336  0.00  0.00    +0.000 A 
ATOM     24  C   UNL     1       6.227   4.812  18.367  0.00  0.00    +0.000 A 
ENDBRANCH  11  19
BRANCH   1  26
ATOM     25  N   UNL     1      -2.354  11.878  22.557  0.00  0.00    +0.000 N 
ATOM     26  C   UNL     1      -1.365  11.448  21.724  0.00  0.00    +0.000 C 
ATOM     27  O   UNL     1      -1.485  11.566  20.510  0.00  0.00    +0.000 OA
ATOM     28  H   UNL     1      -3.191  12.258  22.134  0.00  0.00    +0.000 HD
ATOM     29  H   UNL     1      -2.333  11.771  23.561  0.00  0.00    +0.000 HD
ENDBRANCH   1  26
TORSDOF 2
ENDMDL
MODEL 3
REMARK VINA RESULT:      -7.9      2.304      7.977
REMARK  Name = 
REMARK  2 active torsions:
REMARK  status: ('A' for Active; 'I' for Inactive)
REMARK    1  A    between atoms: C_2  and  C_4
REMARK    2  A    between atoms: C_14  and  C_15
REMARK                            x       y       z     vdW  Elec       q    Type
REMARK                         _______ _______ _______ _____ _____    ______ ____
ROOT
ATOM      1  C   UNL     1       5.815   4.153  16.300  0.00  0.00    +0.000 C 
ATOM      2  C   UNL     1       4.952   5.124  15.481  0.00  0.00    +0.000 C 
ATOM      3  C   UNL     1       4.865   6.519  16.110  0.00  0.00    +0.000 C 
ATOM      4  N   UNL     1       4.530   6.429  17.533  0.00  0.00    +0.000 N 
ATOM      5  C   UNL     1       3.535   7.144  18.157  0.00  0.00    +0.000 A 
ATOM      6  N   UNL     1       3.057   6.805  19.311  0.00  0.00    +0.000 NA
ATOM      7  C   UNL     1       2.018   7.557  19.878  0.00  0.00    +0.000 A 
ATOM      8  N   UNL     1       1.561   7.049  21.044  0.00  0.00    +0.000 NA
ATOM      9  C   UNL     1       0.540   7.699  21.628  0.00  0.00    +0.000 A 
ATOM     10  C   UNL     1      -0.085   8.810  21.076  0.00  0.00    +0.000 A 
ATOM     11  C   UNL     1       0.373   9.345  19.859  0.00  0.00    +0.000 A 
ATOM     12  C   UNL     1       1.496   8.706  19.288  0.00  0.00    +0.000 A 
ATOM     13  C   UNL     1       2.251   9.178  18.114  0.00  0.00    +0.000 A 
ATOM     14  O   UNL     1       2.240  10.327  17.694  0.00  0.00    +0.000 OA
ATOM     15  N   UNL     1       3.071   8.260  17.521  0.00  0.00    +0.000 N 
ATOM     16  C   UNL     1       5.406   5.564  18.324  0.00  0.00    +0.000 C 
ATOM     17  C   UNL     1       5.339   4.153  17.757  0.00  0.00    +0.000 C 
ATOM     18  H   UNL     1       3.601   8.627  16.751  0.00  0.00    +0.000 HD
ENDROOT
BRANCH  11  19
ATOM     19  C   UNL     1      -0.326  10.512  19.254  0.00  0.00    +0.000 A 
ATOM     20  C   UNL     1      -1.236  10.356  18.192  0.00  0.00    +0.000 A 
ATOM     21  C   UNL     1      -1.981  11.437  17.703  0.00  0.00    +0.000 A 
ATOM     22  C   UNL     1      -1.851  12.694  18.281  0.00  0.00    +0.000 A 
ATOM     23  C   UNL     1      -0.920  12.890  19.292  0.00  0.00    +0.000 A 
ATOM     24  C   UNL     1      -0.132  11.821  19.731  0.00  0.00    +0.000 A 
ENDBRANCH  11  19
BRANCH   1  26
ATOM     25  N   UNL     1       7.670   5.126  15.043  0.00  0.00    +0.000 N 
ATOM     26  C   UNL     1       7.296   4.500  16.194  0.00  0.00    +0.000 C 
ATOM     27  O   UNL     1       8.125   4.257  17.063  0.00  0.00    +0.000 OA
ATOM     28  H   UNL     1       8.651   5.345  14.926  0.00  0.00    +0.000 HD
ATOM     29  H   UNL     1       7.043   5.316  14.274  0.00  0.00    +0.000 HD
ENDBRANCH   1  26
TORSDOF 2
ENDMDL
MODEL 4
REMARK VINA RESULT:      -7.8      0.896      1.288
REMARK  Name = 
REMARK  2 active torsions:
REMARK  status: ('A' for Active; 'I' for Inactive)
REMARK    1  A    between atoms: C_2  and  C_4
REMARK    2  A    between atoms: C_14  and  C_15
REMARK                            x       y       z     vdW  Elec       q    Type
REMARK                         _______ _______ _______ _____ _____    ______ ____
ROOT
ATOM      1  C   UNL     1      -0.105  12.573  20.909  0.00  0.00    +0.000 C 
ATOM      2  C   UNL     1       1.189  12.570  20.083  0.00  0.00    +0.000 C 
ATOM      3  C   UNL     1       1.196  11.496  18.990  0.00  0.00    +0.000 C 
ATOM      4  N   UNL     1       0.796  10.196  19.533  0.00  0.00    +0.000 N 
ATOM      5  C   UNL     1       1.478   9.017  19.345  0.00  0.00    +0.000 A 
ATOM      6  N   UNL     1       1.288   7.979  20.094  0.00  0.00    +0.000 NA
ATOM      7  C   UNL     1       2.042   6.818  19.871  0.00  0.00    +0.000 A 
ATOM      8  N   UNL     1       1.801   5.839  20.772  0.00  0.00    +0.000 NA
ATOM      9  C   UNL     1       2.513   4.708  20.641  0.00  0.00    +0.000 A 
ATOM     10  C   UNL     1       3.499   4.522  19.680  0.00  0.00    +0.000 A 
ATOM     11  C   UNL     1       3.768   5.534  18.741  0.00  0.00    +0.000 A 
ATOM     12  C   UNL     1       2.962   6.691  18.833  0.00  0.00    +0.000 A 
ATOM     13  C   UNL     1       2.943   7.807  17.871  0.00  0.00    +0.000 A 
ATOM     14  O   UNL     1       3.341   7.737  16.715  0.00  0.00    +0.000 OA
ATOM     15  N   UNL     1       2.364   8.964  18.308  0.00  0.00    +0.000 N 
ATOM     16  C   UNL     1      -0.479  10.189  20.251  0.00  0.00    +0.000 C 
ATOM     17  C   UNL     1      -0.384  11.156  21.423  0.00  0.00    +0.000 C 
ATOM     18  H   UNL     1       2.332   9.689  17.613  0.00  0.00    +0.000 HD
ENDROOT
BRANCH  11  19
ATOM     19  C   UNL     1       4.852   5.344  17.738  0.00  0.00    +0.000 A 
ATOM     20  C   UNL     1       6.104   5.969  17.879  0.00  0.00    +0.000 A 
ATOM     21  C   UNL     1       7.160   5.697  17.000  0.00  0.00    +0.000 A 
ATOM     22  C   UNL     1       6.996   4.774  15.974  0.00  0.00    +0.000 A 
ATOM     23  C   UNL     1       5.754   4.185  15.776  0.00  0.00    +0.000 A 
ATOM     24  C   UNL     1       4.685   4.511  16.616  0.00  0.00    +0.000 A 
ENDBRANCH  11  19
BRANCH   1  26
ATOM     25  N   UNL     1      -0.973  14.113  19.224  0.00  0.00    +0.000 N 
ATOM     26  C   UNL     1      -1.279  13.118  20.103  0.00  0.00    +0.000 C 
ATOM     27  O   UNL     1      -2.431  12.713  20.203  0.00  0.00    +0.000 OA
ATOM     28  H   UNL     1      -1.733  14.518  18.693  0.00  0.00    +0.000 HD
ATOM     29  H   UNL     1      -0.053  14.517  19.126  0.00  0.00    +0.000 HD
ENDBRANCH   1  26
TORSDOF 2
ENDMDL
MODEL 5
REMARK VINA RESULT:      -7.4      2.732      8.071
REMARK  Name = 
REMARK  2 active torsions:
REMARK  status: ('A' for Active; 'I' for Inactive)
REMARK    1  A    between atoms: C_2  and  C_4
REMARK    2  A    between atoms: C_14  and  C_15
REMARK                            x       y       z     vdW  Elec       q    Type
REMARK                         _______ _______ _______ _____ _____    ______ ____
ROOT
ATOM      1  C   UNL     1       2.041   3.044  19.033  0.00  0.00    +0.000 C 
ATOM      2  C   UNL     1       1.757   4.099  17.955  0.00  0.00    +0.000 C 
ATOM      3  C   UNL     1       2.429   5.445  18.246  0.00  0.00    +0.000 C 
ATOM      4  N   UNL     1       2.170   5.870  19.624  0.00  0.00    +0.000 N 
ATOM      5  C   UNL     1       1.716   7.114  19.994  0.00  0.00    +0.000 A 
ATOM      6  N   UNL     1       1.193   7.343  21.156  0.00  0.00    +0.000 NA
ATOM      7  C   UNL     1       0.717   8.626  21.459  0.00  0.00    +0.000 A 
ATOM      8  N   UNL     1       0.126   8.708  22.672  0.00  0.00    +0.000 NA
ATOM      9  C   UNL     1      -0.386   9.902  23.017  0.00  0.00    +0.000 A 
ATOM     10  C   UNL     1      -0.381  11.013  22.184  0.00  0.00    +0.000 A 
ATOM     11  C   UNL     1       0.222  10.942  20.915  0.00  0.00    +0.000 A 
ATOM     12  C   UNL     1       0.827   9.709  20.589  0.00  0.00    +0.000 A 
ATOM     13  C   UNL     1       1.655   9.443  19.399  0.00  0.00    +0.000 A 
ATOM     14  O   UNL     1       2.213  10.305  18.732  0.00  0.00    +0.000 OA
ATOM     15  N   UNL     1       1.857   8.128  19.091  0.00  0.00    +0.000 N 
ATOM     16  C   UNL     1       2.519   4.890  20.652  0.00  0.00    +0.000 C 
ATOM     17  C   UNL     1       1.709   3.623  20.413  0.00  0.00    +0.000 C 
ATOM     18  H   UNL     1       2.459   7.984  18.300  0.00  0.00    +0.000 HD
ENDROOT
BRANCH  11  19
ATOM     19  C   UNL     1       0.189  12.126  20.013  0.00  0.00    +0.000 A 
ATOM     20  C   UNL     1      -0.667  12.178  18.897  0.00  0.00    +0.000 A 
ATOM     21  C   UNL     1      -0.783  13.336  18.119  0.00  0.00    +0.000 A 
ATOM     22  C   UNL     1      -0.065  14.478  18.452  0.00  0.00    +0.000 A 
ATOM     23  C   UNL     1       0.829  14.438  19.513  0.00  0.00    +0.000 A 
ATOM     24  C   UNL     1       0.990  13.259  20.246  0.00  0.00    +0.000 A 
ENDBRANCH  11  19
BRANCH   1  26
ATOM     25  N   UNL     1       4.023   2.498  17.715  0.00  0.00    +0.000 N 
ATOM     26  C   UNL     1       3.483   2.552  18.964  0.00  0.00    +0.000 C 
ATOM     27  O   UNL     1       4.147   2.226  19.940  0.00  0.00    +0.000 OA
ATOM     28  H   UNL     1       4.969   2.149  17.628  0.00  0.00    +0.000 HD
ATOM     29  H   UNL     1       3.515   2.713  16.869  0.00  0.00    +0.000 HD
ENDBRANCH   1  26
TORSDOF 2
ENDMDL
MODEL 6
REMARK VINA RESULT:      -7.3      2.515      8.116
REMARK  Name = 
REMARK  2 active torsions:
REMARK  status: ('A' for Active; 'I' for Inactive)
REMARK    1  A    between atoms: C_2  and  C_4
REMARK    2  A    between atoms: C_14  and  C_15
REMARK                            x       y       z     vdW  Elec       q    Type
REMARK                         _______ _______ _______ _____ _____    ______ ____
ROOT
ATOM      1  C   UNL     1       2.322   3.384  18.677  0.00  0.00    +0.000 C 
ATOM      2  C   UNL     1       1.929   4.478  17.673  0.00  0.00    +0.000 C 
ATOM      3  C   UNL     1       2.524   5.846  18.018  0.00  0.00    +0.000 C 
ATOM      4  N   UNL     1       2.293   6.176  19.427  0.00  0.00    +0.000 N 
ATOM      5  C   UNL     1       1.775   7.364  19.885  0.00  0.00    +0.000 A 
ATOM      6  N   UNL     1       1.284   7.492  21.076  0.00  0.00    +0.000 NA
ATOM      7  C   UNL     1       0.739   8.722  21.471  0.00  0.00    +0.000 A 
ATOM      8  N   UNL     1       0.191   8.697  22.706  0.00  0.00    +0.000 NA
ATOM      9  C   UNL     1      -0.381   9.832  23.138  0.00  0.00    +0.000 A 
ATOM     10  C   UNL     1      -0.481  10.987  22.372  0.00  0.00    +0.000 A 
ATOM     11  C   UNL     1       0.076  11.028  21.081  0.00  0.00    +0.000 A 
ATOM     12  C   UNL     1       0.746   9.857  20.662  0.00  0.00    +0.000 A 
ATOM     13  C   UNL     1       1.542   9.714  19.430  0.00  0.00    +0.000 A 
ATOM     14  O   UNL     1       2.017  10.646  18.795  0.00  0.00    +0.000 OA
ATOM     15  N   UNL     1       1.815   8.434  19.039  0.00  0.00    +0.000 N 
ATOM     16  C   UNL     1       2.743   5.164  20.383  0.00  0.00    +0.000 C 
ATOM     17  C   UNL     1       2.008   3.862  20.099  0.00  0.00    +0.000 C 
ATOM     18  H   UNL     1       2.394   8.375  18.219  0.00  0.00    +0.000 HD
ENDROOT
BRANCH  11  19
ATOM     19  C   UNL     1      -0.069  12.255  20.251  0.00  0.00    +0.000 A 
ATOM     20  C   UNL     1       0.566  13.460  20.602  0.00  0.00    +0.000 A 
ATOM     21  C   UNL     1       0.526  14.579  19.761  0.00  0.00    +0.000 A 
ATOM     22  C   UNL     1      -0.129  14.511  18.537  0.00  0.00    +0.000 A 
ATOM     23  C   UNL     1      -0.812  13.353  18.190  0.00  0.00    +0.000 A 
ATOM     24  C   UNL     1      -0.824  12.262  19.064  0.00  0.00    +0.000 A 
ENDBRANCH  11  19
BRANCH   1  26
ATOM     25  N   UNL     1       4.218   2.006  19.362  0.00  0.00    +0.000 N 
ATOM     26  C   UNL     1       3.788   2.994  18.528  0.00  0.00    +0.000 C 
ATOM     27  O   UNL     1       4.559   3.502  17.722  0.00  0.00    +0.000 OA
ATOM     28  H   UNL     1       5.193   1.741  19.311  0.00  0.00    +0.000 HD
ATOM     29  H   UNL     1       3.644   1.578  20.074  0.00  0.00    +0.000 HD
ENDBRANCH   1  26
TORSDOF 2
ENDMDL
MODEL 7
REMARK VINA RESULT:      -6.8      5.897      7.799
REMARK  Name = 
REMARK  2 active torsions:
REMARK  status: ('A' for Active; 'I' for Inactive)
REMARK    1  A    between atoms: C_2  and  C_4
REMARK    2  A    between atoms: C_14  and  C_15
REMARK                            x       y       z     vdW  Elec       q    Type
REMARK                         _______ _______ _______ _____ _____    ______ ____
ROOT
ATOM      1  C   UNL     1       6.098  15.532  19.666  0.00  0.00    +0.000 C 
ATOM      2  C   UNL     1       5.336  15.213  18.372  0.00  0.00    +0.000 C 
ATOM      3  C   UNL     1       3.817  15.332  18.530  0.00  0.00    +0.000 C 
ATOM      4  N   UNL     1       3.358  14.614  19.721  0.00  0.00    +0.000 N 
ATOM      5  C   UNL     1       2.318  13.714  19.750  0.00  0.00    +0.000 A 
ATOM      6  N   UNL     1       2.159  12.870  20.718  0.00  0.00    +0.000 NA
ATOM      7  C   UNL     1       1.098  11.955  20.669  0.00  0.00    +0.000 A 
ATOM      8  N   UNL     1       1.093  11.081  21.701  0.00  0.00    +0.000 NA
ATOM      9  C   UNL     1       0.124  10.151  21.703  0.00  0.00    +0.000 A 
ATOM     10  C   UNL     1      -0.819  10.016  20.691  0.00  0.00    +0.000 A 
ATOM     11  C   UNL     1      -0.822  10.911  19.606  0.00  0.00    +0.000 A 
ATOM     12  C   UNL     1       0.150  11.935  19.648  0.00  0.00    +0.000 A 
ATOM     13  C   UNL     1       0.240  13.077  18.721  0.00  0.00    +0.000 A 
ATOM     14  O   UNL     1      -0.682  13.485  18.027  0.00  0.00    +0.000 OA
ATOM     15  N   UNL     1       1.427  13.752  18.716  0.00  0.00    +0.000 N 
ATOM     16  C   UNL     1       4.033  14.981  20.966  0.00  0.00    +0.000 C 
ATOM     17  C   UNL     1       5.521  14.698  20.816  0.00  0.00    +0.000 C 
ATOM     18  H   UNL     1       1.439  14.548  18.103  0.00  0.00    +0.000 HD
ENDROOT
BRANCH  11  19
ATOM     19  C   UNL     1      -1.810  10.737  18.506  0.00  0.00    +0.000 A 
ATOM     20  C   UNL     1      -3.069  11.364  18.540  0.00  0.00    +0.000 A 
ATOM     21  C   UNL     1      -3.949  11.295  17.454  0.00  0.00    +0.000 A 
ATOM     22  C   UNL     1      -3.582  10.618  16.297  0.00  0.00    +0.000 A 
ATOM     23  C   UNL     1      -2.371   9.941  16.257  0.00  0.00    +0.000 A 
ATOM     24  C   UNL     1      -1.524   9.959  17.369  0.00  0.00    +0.000 A 
ENDBRANCH  11  19
BRANCH   1  26
ATOM     25  N   UNL     1       6.565  17.379  21.196  0.00  0.00    +0.000 N 
ATOM     26  C   UNL     1       6.058  17.023  19.982  0.00  0.00    +0.000 C 
ATOM     27  O   UNL     1       5.617  17.877  19.222  0.00  0.00    +0.000 OA
ATOM     28  H   UNL     1       6.528  18.357  21.451  0.00  0.00    +0.000 HD
ATOM     29  H   UNL     1       6.903  16.719  21.882  0.00  0.00    +0.000 HD
ENDBRANCH   1  26
TORSDOF 2
ENDMDL
MODEL 8
REMARK VINA RESULT:      -6.8      2.272      3.857
REMARK  Name = 
REMARK  2 active torsions:
REMARK  status: ('A' for Active; 'I' for Inactive)
REMARK    1  A    between atoms: C_2  and  C_4
REMARK    2  A    between atoms: C_14  and  C_15
REMARK                            x       y       z     vdW  Elec       q    Type
REMARK                         _______ _______ _______ _____ _____    ______ ____
ROOT
ATOM      1  C   UNL     1      -0.896  13.493  18.964  0.00  0.00    +0.000 C 
ATOM      2  C   UNL     1      -1.567  12.252  19.570  0.00  0.00    +0.000 C 
ATOM      3  C   UNL     1      -0.594  11.377  20.366  0.00  0.00    +0.000 C 
ATOM      4  N   UNL     1       0.624  11.117  19.595  0.00  0.00    +0.000 N 
ATOM      5  C   UNL     1       1.187   9.878  19.399  0.00  0.00    +0.000 A 
ATOM      6  N   UNL     1       2.049   9.648  18.462  0.00  0.00    +0.000 NA
ATOM      7  C   UNL     1       2.558   8.353  18.293  0.00  0.00    +0.000 A 
ATOM      8  N   UNL     1       3.387   8.235  17.232  0.00  0.00    +0.000 NA
ATOM      9  C   UNL     1       3.887   7.012  16.987  0.00  0.00    +0.000 A 
ATOM     10  C   UNL     1       3.558   5.882  17.725  0.00  0.00    +0.000 A 
ATOM     11  C   UNL     1       2.690   5.986  18.827  0.00  0.00    +0.000 A 
ATOM     12  C   UNL     1       2.229   7.286  19.128  0.00  0.00    +0.000 A 
ATOM     13  C   UNL     1       1.451   7.671  20.318  0.00  0.00    +0.000 A 
ATOM     14  O   UNL     1       1.397   7.022  21.355  0.00  0.00    +0.000 OA
ATOM     15  N   UNL     1       0.818   8.880  20.255  0.00  0.00    +0.000 N 
ATOM     16  C   UNL     1       1.304  12.309  19.088  0.00  0.00    +0.000 C 
ATOM     17  C   UNL     1       0.347  13.065  18.177  0.00  0.00    +0.000 C 
ATOM     18  H   UNL     1       0.332   9.128  21.099  0.00  0.00    +0.000 HD
ENDROOT
BRANCH  11  19
ATOM     19  C   UNL     1       2.312   4.764  19.588  0.00  0.00    +0.000 A 
ATOM     20  C   UNL     1       3.069   4.315  20.686  0.00  0.00    +0.000 A 
ATOM     21  C   UNL     1       2.648   3.237  21.473  0.00  0.00    +0.000 A 
ATOM     22  C   UNL     1       1.446   2.596  21.196  0.00  0.00    +0.000 A 
ATOM     23  C   UNL     1       0.707   2.980  20.086  0.00  0.00    +0.000 A 
ATOM     24  C   UNL     1       1.165   4.015  19.265  0.00  0.00    +0.000 A 
ENDBRANCH  11  19
BRANCH   1  26
ATOM     25  N   UNL     1      -1.413  14.572  21.093  0.00  0.00    +0.000 N 
ATOM     26  C   UNL     1      -0.554  14.520  20.037  0.00  0.00    +0.000 C 
ATOM     27  O   UNL     1       0.420  15.263  19.995  0.00  0.00    +0.000 OA
ATOM     28  H   UNL     1      -1.233  15.262  21.811  0.00  0.00    +0.000 HD
ATOM     29  H   UNL     1      -2.254  14.017  21.166  0.00  0.00    +0.000 HD
ENDBRANCH   1  26
TORSDOF 2
ENDMDL
MODEL 9
REMARK VINA RESULT:      -6.7      2.177      8.604
REMARK  Name = 
REMARK  2 active torsions:
REMARK  status: ('A' for Active; 'I' for Inactive)
REMARK    1  A    between atoms: C_2  and  C_4
REMARK    2  A    between atoms: C_14  and  C_15
REMARK                            x       y       z     vdW  Elec       q    Type
REMARK                         _______ _______ _______ _____ _____    ______ ____
ROOT
ATOM      1  C   UNL     1       4.796   5.477  18.205  0.00  0.00    +0.000 C 
ATOM      2  C   UNL     1       3.934   5.634  19.465  0.00  0.00    +0.000 C 
ATOM      3  C   UNL     1       2.568   6.265  19.178  0.00  0.00    +0.000 C 
ATOM      4  N   UNL     1       2.712   7.473  18.362  0.00  0.00    +0.000 N 
ATOM      5  C   UNL     1       2.134   8.689  18.642  0.00  0.00    +0.000 A 
ATOM      6  N   UNL     1       2.542   9.791  18.099  0.00  0.00    +0.000 NA
ATOM      7  C   UNL     1       1.933  11.003  18.454  0.00  0.00    +0.000 A 
ATOM      8  N   UNL     1       2.505  12.082  17.875  0.00  0.00    +0.000 NA
ATOM      9  C   UNL     1       1.995  13.283  18.196  0.00  0.00    +0.000 A 
ATOM     10  C   UNL     1       0.967  13.465  19.112  0.00  0.00    +0.000 A 
ATOM     11  C   UNL     1       0.366  12.353  19.730  0.00  0.00    +0.000 A 
ATOM     12  C   UNL     1       0.853  11.089  19.330  0.00  0.00    +0.000 A 
ATOM     13  C   UNL     1       0.279   9.786  19.709  0.00  0.00    +0.000 A 
ATOM     14  O   UNL     1      -0.864   9.619  20.114  0.00  0.00    +0.000 OA
ATOM     15  N   UNL     1       1.080   8.698  19.510  0.00  0.00    +0.000 N 
ATOM     16  C   UNL     1       3.467   7.298  17.121  0.00  0.00    +0.000 C 
ATOM     17  C   UNL     1       4.870   6.819  17.468  0.00  0.00    +0.000 C 
ATOM     18  H   UNL     1       0.642   7.823  19.740  0.00  0.00    +0.000 HD
ENDROOT
BRANCH  11  19
ATOM     19  C   UNL     1      -0.708  12.558  20.739  0.00  0.00    +0.000 A 
ATOM     20  C   UNL     1      -2.031  12.848  20.359  0.00  0.00    +0.000 A 
ATOM     21  C   UNL     1      -3.063  12.923  21.303  0.00  0.00    +0.000 A 
ATOM     22  C   UNL     1      -2.801  12.687  22.647  0.00  0.00    +0.000 A 
ATOM     23  C   UNL     1      -1.495  12.457  23.059  0.00  0.00    +0.000 A 
ATOM     24  C   UNL     1      -0.459  12.447  22.120  0.00  0.00    +0.000 A 
ENDBRANCH  11  19
BRANCH   1  26
ATOM     25  N   UNL     1       4.977   4.152  16.161  0.00  0.00    +0.000 N 
ATOM     26  C   UNL     1       4.265   4.370  17.302  0.00  0.00    +0.000 C 
ATOM     27  O   UNL     1       3.273   3.694  17.550  0.00  0.00    +0.000 OA
ATOM     28  H   UNL     1       4.637   3.444  15.523  0.00  0.00    +0.000 HD
ATOM     29  H   UNL     1       5.777   4.702  15.881  0.00  0.00    +0.000 HD
ENDBRANCH   1  26
TORSDOF 2
ENDMDL
