MODEL 1
REMARK VINA RESULT:      -6.7      0.000      0.000
REMARK  Name = 
REMARK  5 active torsions:
REMARK  status: ('A' for Active; 'I' for Inactive)
REMARK    1  A    between atoms: C_2  and  C_10
REMARK    2  A    between atoms: N_3  and  C_4
REMARK    3  A    between atoms: C_10  and  C_11
REMARK    4  A    between atoms: C_10  and  N_14
REMARK    5  A    between atoms: C_17  and  C_18
REMARK                            x       y       z     vdW  Elec       q    Type
REMARK                         _______ _______ _______ _____ _____    ______ ____
ROOT
ATOM      1  N   UNL     1      -1.745  12.211  20.406  0.00  0.00    +0.000 N 
ATOM      2  C   UNL     1      -2.699  13.001  21.050  0.00  0.00    +0.000 A 
ATOM      3  O   UNL     1      -3.217  13.999  20.580  0.00  0.00    +0.000 OA
ATOM      4  C   UNL     1      -3.122  12.528  22.447  0.00  0.00    +0.000 A 
ATOM      5  N   UNL     1      -2.418  11.690  23.155  0.00  0.00    +0.000 NA
ATOM      6  C   UNL     1      -1.307  11.093  22.545  0.00  0.00    +0.000 A 
ATOM      7  C   UNL     1      -0.594  10.163  23.312  0.00  0.00    +0.000 A 
ATOM      8  C   UNL     1       0.461   9.437  22.761  0.00  0.00    +0.000 A 
ATOM      9  C   UNL     1       0.840   9.678  21.444  0.00  0.00    +0.000 A 
ATOM     10  C   UNL     1       0.145  10.614  20.672  0.00  0.00    +0.000 A 
ATOM     11  C   UNL     1      -0.964  11.295  21.193  0.00  0.00    +0.000 A 
ENDROOT
BRANCH   4  12
ATOM     12  C   UNL     1      -4.396  12.977  22.937  0.00  0.00    +0.000 A 
ATOM     13  C   UNL     1      -4.759  13.955  23.847  0.00  0.00    +0.000 A 
ATOM     14  C   UNL     1      -6.164  13.862  24.008  0.00  0.00    +0.000 A 
ATOM     15  C   UNL     1      -6.573  12.818  23.216  0.00  0.00    +0.000 A 
ATOM     16  O   UNL     1      -5.516  12.280  22.563  0.00  0.00    +0.000 OA
ENDBRANCH   4  12
BRANCH   1  17
ATOM     17  C   UNL     1      -1.492  12.421  18.971  0.00  0.00    +0.000 C 
BRANCH  17  19
ATOM     18  O   UNL     1       0.735  13.180  18.223  0.00  0.00    +0.000 OA
ATOM     19  C   UNL     1      -0.381  13.478  18.648  0.00  0.00    +0.000 C 
ATOM     20  N   UNL     1      -0.768  14.799  18.810  0.00  0.00    +0.000 N 
ATOM     21  H   UNL     1      -1.708  15.004  19.126  0.00  0.00    +0.000 HD
BRANCH  20  22
ATOM     22  C   UNL     1       0.205  15.887  18.716  0.00  0.00    +0.000 C 
ATOM     23  C   UNL     1      -0.351  17.060  17.900  0.00  0.00    +0.000 C 
ATOM     24  C   UNL     1      -1.443  17.829  18.642  0.00  0.00    +0.000 C 
ATOM     25  C   UNL     1      -0.972  18.288  20.017  0.00  0.00    +0.000 C 
ATOM     26  C   UNL     1      -0.436  17.126  20.846  0.00  0.00    +0.000 C 
ATOM     27  C   UNL     1       0.657  16.355  20.107  0.00  0.00    +0.000 C 
ENDBRANCH  20  22
ENDBRANCH  17  19
BRANCH  17  28
ATOM     28  C   UNL     1      -1.382  11.182  18.103  0.00  0.00    +0.000 C 
ATOM     29  C   UNL     1      -2.502  10.171  17.998  0.00  0.00    +0.000 C 
ATOM     30  C   UNL     1      -2.087  10.954  16.785  0.00  0.00    +0.000 C 
ENDBRANCH  17  28
ENDBRANCH   1  17
TORSDOF 5
ENDMDL
MODEL 2
REMARK VINA RESULT:      -6.6      2.592      6.235
REMARK  Name = 
REMARK  5 active torsions:
REMARK  status: ('A' for Active; 'I' for Inactive)
REMARK    1  A    between atoms: C_2  and  C_10
REMARK    2  A    between atoms: N_3  and  C_4
REMARK    3  A    between atoms: C_10  and  C_11
REMARK    4  A    between atoms: C_10  and  N_14
REMARK    5  A    between atoms: C_17  and  C_18
REMARK                            x       y       z     vdW  Elec       q    Type
REMARK                         _______ _______ _______ _____ _____    ______ ____
ROOT
ATOM      1  N   UNL     1      -3.840  12.659  20.844  0.00  0.00    +0.000 N 
ATOM      2  C   UNL     1      -3.454  12.432  19.521  0.00  0.00    +0.000 A 
ATOM      3  O   UNL     1      -2.412  12.815  19.019  0.00  0.00    +0.000 OA
ATOM      4  C   UNL     1      -4.433  11.610  18.673  0.00  0.00    +0.000 A 
ATOM      5  N   UNL     1      -5.682  11.435  19.002  0.00  0.00    +0.000 NA
ATOM      6  C   UNL     1      -6.098  11.901  20.256  0.00  0.00    +0.000 A 
ATOM      7  C   UNL     1      -7.434  11.662  20.603  0.00  0.00    +0.000 A 
ATOM      8  C   UNL     1      -7.916  11.992  21.870  0.00  0.00    +0.000 A 
ATOM      9  C   UNL     1      -7.068  12.612  22.782  0.00  0.00    +0.000 A 
ATOM     10  C   UNL     1      -5.737  12.869  22.442  0.00  0.00    +0.000 A 
ATOM     11  C   UNL     1      -5.222  12.474  21.199  0.00  0.00    +0.000 A 
ENDROOT
BRANCH   4  12
ATOM     12  C   UNL     1      -3.903  10.942  17.517  0.00  0.00    +0.000 A 
ATOM     13  C   UNL     1      -3.093   9.829  17.366  0.00  0.00    +0.000 A 
ATOM     14  C   UNL     1      -2.810   9.712  15.983  0.00  0.00    +0.000 A 
ATOM     15  C   UNL     1      -3.434  10.773  15.373  0.00  0.00    +0.000 A 
ATOM     16  O   UNL     1      -4.098  11.518  16.289  0.00  0.00    +0.000 OA
ENDBRANCH   4  12
BRANCH   1  17
ATOM     17  C   UNL     1      -2.851  13.184  21.798  0.00  0.00    +0.000 C 
BRANCH  17  19
ATOM     18  O   UNL     1      -1.493  11.560  23.068  0.00  0.00    +0.000 OA
ATOM     19  C   UNL     1      -1.622  12.245  22.054  0.00  0.00    +0.000 C 
ATOM     20  N   UNL     1      -0.709  12.184  21.013  0.00  0.00    +0.000 N 
ATOM     21  H   UNL     1      -0.871  12.734  20.179  0.00  0.00    +0.000 HD
BRANCH  20  22
ATOM     22  C   UNL     1       0.569  11.491  21.171  0.00  0.00    +0.000 C 
ATOM     23  C   UNL     1       0.474  10.035  20.698  0.00  0.00    +0.000 C 
ATOM     24  C   UNL     1       0.366   9.915  19.179  0.00  0.00    +0.000 C 
ATOM     25  C   UNL     1       1.500  10.651  18.475  0.00  0.00    +0.000 C 
ATOM     26  C   UNL     1       1.591  12.105  18.923  0.00  0.00    +0.000 C 
ATOM     27  C   UNL     1       1.701  12.229  20.442  0.00  0.00    +0.000 C 
ENDBRANCH  20  22
ENDBRANCH  17  19
BRANCH  17  28
ATOM     28  C   UNL     1      -2.445  14.637  21.638  0.00  0.00    +0.000 C 
ATOM     29  C   UNL     1      -3.016  15.734  22.509  0.00  0.00    +0.000 C 
ATOM     30  C   UNL     1      -1.549  15.419  22.572  0.00  0.00    +0.000 C 
ENDBRANCH  17  28
ENDBRANCH   1  17
TORSDOF 5
ENDMDL
MODEL 3
REMARK VINA RESULT:      -6.6      2.130      6.349
REMARK  Name = 
REMARK  5 active torsions:
REMARK  status: ('A' for Active; 'I' for Inactive)
REMARK    1  A    between atoms: C_2  and  C_10
REMARK    2  A    between atoms: N_3  and  C_4
REMARK    3  A    between atoms: C_10  and  C_11
REMARK    4  A    between atoms: C_10  and  N_14
REMARK    5  A    between atoms: C_17  and  C_18
REMARK                            x       y       z     vdW  Elec       q    Type
REMARK                         _______ _______ _______ _____ _____    ______ ____
ROOT
ATOM      1  N   UNL     1      -1.424  13.486  20.412  0.00  0.00    +0.000 N 
ATOM      2  C   UNL     1      -0.962  12.344  21.068  0.00  0.00    +0.000 A 
ATOM      3  O   UNL     1      -1.616  11.664  21.840  0.00  0.00    +0.000 OA
ATOM      4  C   UNL     1       0.479  11.927  20.744  0.00  0.00    +0.000 A 
ATOM      5  N   UNL     1       1.346  12.736  20.204  0.00  0.00    +0.000 NA
ATOM      6  C   UNL     1       0.890  13.989  19.774  0.00  0.00    +0.000 A 
ATOM      7  C   UNL     1       1.832  14.823  19.158  0.00  0.00    +0.000 A 
ATOM      8  C   UNL     1       1.454  16.044  18.600  0.00  0.00    +0.000 A 
ATOM      9  C   UNL     1       0.131  16.460  18.704  0.00  0.00    +0.000 A 
ATOM     10  C   UNL     1      -0.816  15.643  19.330  0.00  0.00    +0.000 A 
ATOM     11  C   UNL     1      -0.462  14.381  19.826  0.00  0.00    +0.000 A 
ENDROOT
BRANCH   4  12
ATOM     12  C   UNL     1       0.836  10.555  20.977  0.00  0.00    +0.000 A 
ATOM     13  C   UNL     1       0.743   9.417  20.194  0.00  0.00    +0.000 A 
ATOM     14  C   UNL     1       1.151   8.328  21.004  0.00  0.00    +0.000 A 
ATOM     15  C   UNL     1       1.438   8.855  22.239  0.00  0.00    +0.000 A 
ATOM     16  O   UNL     1       1.255  10.197  22.232  0.00  0.00    +0.000 OA
ENDBRANCH   4  12
BRANCH   1  17
ATOM     17  C   UNL     1      -2.864  13.794  20.440  0.00  0.00    +0.000 C 
BRANCH  17  19
ATOM     18  O   UNL     1      -4.798  12.260  20.464  0.00  0.00    +0.000 OA
ATOM     19  C   UNL     1      -3.789  12.658  19.883  0.00  0.00    +0.000 C 
ATOM     20  N   UNL     1      -3.426  12.170  18.637  0.00  0.00    +0.000 N 
ATOM     21  H   UNL     1      -2.610  12.550  18.175  0.00  0.00    +0.000 HD
BRANCH  20  22
ATOM     22  C   UNL     1      -4.085  10.995  18.067  0.00  0.00    +0.000 C 
ATOM     23  C   UNL     1      -4.600  11.279  16.652  0.00  0.00    +0.000 C 
ATOM     24  C   UNL     1      -3.472  11.396  15.626  0.00  0.00    +0.000 C 
ATOM     25  C   UNL     1      -2.565  10.171  15.648  0.00  0.00    +0.000 C 
ATOM     26  C   UNL     1      -2.030   9.891  17.047  0.00  0.00    +0.000 C 
ATOM     27  C   UNL     1      -3.154   9.773  18.075  0.00  0.00    +0.000 C 
ENDBRANCH  20  22
ENDBRANCH  17  19
BRANCH  17  28
ATOM     28  C   UNL     1      -3.410  14.414  21.711  0.00  0.00    +0.000 C 
ATOM     29  C   UNL     1      -3.318  15.899  21.987  0.00  0.00    +0.000 C 
ATOM     30  C   UNL     1      -4.664  15.252  21.825  0.00  0.00    +0.000 C 
ENDBRANCH  17  28
ENDBRANCH   1  17
TORSDOF 5
ENDMDL
MODEL 4
REMARK VINA RESULT:      -6.5      3.411      7.084
REMARK  Name = 
REMARK  5 active torsions:
REMARK  status: ('A' for Active; 'I' for Inactive)
REMARK    1  A    between atoms: C_2  and  C_10
REMARK    2  A    between atoms: N_3  and  C_4
REMARK    3  A    between atoms: C_10  and  C_11
REMARK    4  A    between atoms: C_10  and  N_14
REMARK    5  A    between atoms: C_17  and  C_18
REMARK                            x       y       z     vdW  Elec       q    Type
REMARK                         _______ _______ _______ _____ _____    ______ ____
ROOT
ATOM      1  N   UNL     1       1.068  10.631  19.342  0.00  0.00    +0.000 N 
ATOM      2  C   UNL     1       1.565   9.530  18.643  0.00  0.00    +0.000 A 
ATOM      3  O   UNL     1       1.813   9.510  17.450  0.00  0.00    +0.000 OA
ATOM      4  C   UNL     1       1.834   8.274  19.482  0.00  0.00    +0.000 A 
ATOM      5  N   UNL     1       1.316   8.086  20.663  0.00  0.00    +0.000 NA
ATOM      6  C   UNL     1       0.604   9.146  21.240  0.00  0.00    +0.000 A 
ATOM      7  C   UNL     1       0.095   8.935  22.527  0.00  0.00    +0.000 A 
ATOM      8  C   UNL     1      -0.535   9.963  23.228  0.00  0.00    +0.000 A 
ATOM      9  C   UNL     1      -0.703  11.201  22.616  0.00  0.00    +0.000 A 
ATOM     10  C   UNL     1      -0.213  11.420  21.325  0.00  0.00    +0.000 A 
ATOM     11  C   UNL     1       0.489  10.417  20.641  0.00  0.00    +0.000 A 
ENDROOT
BRANCH   4  12
ATOM     12  C   UNL     1       2.769   7.318  18.956  0.00  0.00    +0.000 A 
ATOM     13  C   UNL     1       3.468   7.249  17.763  0.00  0.00    +0.000 A 
ATOM     14  C   UNL     1       4.157   6.011  17.763  0.00  0.00    +0.000 A 
ATOM     15  C   UNL     1       3.817   5.383  18.936  0.00  0.00    +0.000 A 
ATOM     16  O   UNL     1       2.984   6.164  19.664  0.00  0.00    +0.000 OA
ENDBRANCH   4  12
BRANCH   1  17
ATOM     17  C   UNL     1       1.050  11.948  18.685  0.00  0.00    +0.000 C 
BRANCH  17  19
ATOM     18  O   UNL     1      -0.785  13.584  18.458  0.00  0.00    +0.000 OA
ATOM     19  C   UNL     1      -0.372  12.445  18.249  0.00  0.00    +0.000 C 
ATOM     20  N   UNL     1      -1.119  11.518  17.538  0.00  0.00    +0.000 N 
ATOM     21  H   UNL     1      -0.728  10.603  17.354  0.00  0.00    +0.000 HD
BRANCH  20  22
ATOM     22  C   UNL     1      -2.523  11.771  17.215  0.00  0.00    +0.000 C 
ATOM     23  C   UNL     1      -2.811  11.494  15.735  0.00  0.00    +0.000 C 
ATOM     24  C   UNL     1      -2.792  10.003  15.400  0.00  0.00    +0.000 C 
ATOM     25  C   UNL     1      -3.732   9.212  16.303  0.00  0.00    +0.000 C 
ATOM     26  C   UNL     1      -3.441   9.464  17.777  0.00  0.00    +0.000 C 
ATOM     27  C   UNL     1      -3.460  10.954  18.116  0.00  0.00    +0.000 C 
ENDBRANCH  20  22
ENDBRANCH  17  19
BRANCH  17  28
ATOM     28  C   UNL     1       1.875  13.048  19.325  0.00  0.00    +0.000 C 
ATOM     29  C   UNL     1       3.148  13.569  18.696  0.00  0.00    +0.000 C 
ATOM     30  C   UNL     1       1.966  14.482  18.853  0.00  0.00    +0.000 C 
ENDBRANCH  17  28
ENDBRANCH   1  17
TORSDOF 5
ENDMDL
MODEL 5
REMARK VINA RESULT:      -6.4      2.003      4.047
REMARK  Name = 
REMARK  5 active torsions:
REMARK  status: ('A' for Active; 'I' for Inactive)
REMARK    1  A    between atoms: C_2  and  C_10
REMARK    2  A    between atoms: N_3  and  C_4
REMARK    3  A    between atoms: C_10  and  C_11
REMARK    4  A    between atoms: C_10  and  N_14
REMARK    5  A    between atoms: C_17  and  C_18
REMARK                            x       y       z     vdW  Elec       q    Type
REMARK                         _______ _______ _______ _____ _____    ______ ____
ROOT
ATOM      1  N   UNL     1      -1.664  12.040  20.367  0.00  0.00    +0.000 N 
ATOM      2  C   UNL     1      -2.549  12.937  20.966  0.00  0.00    +0.000 A 
ATOM      3  O   UNL     1      -3.006  13.935  20.433  0.00  0.00    +0.000 OA
ATOM      4  C   UNL     1      -2.980  12.594  22.398  0.00  0.00    +0.000 A 
ATOM      5  N   UNL     1      -2.324  11.759  23.154  0.00  0.00    +0.000 NA
ATOM      6  C   UNL     1      -1.268  11.044  22.573  0.00  0.00    +0.000 A 
ATOM      7  C   UNL     1      -0.607  10.122  23.395  0.00  0.00    +0.000 A 
ATOM      8  C   UNL     1       0.385   9.287  22.883  0.00  0.00    +0.000 A 
ATOM      9  C   UNL     1       0.757   9.409  21.548  0.00  0.00    +0.000 A 
ATOM     10  C   UNL     1       0.116  10.336  20.721  0.00  0.00    +0.000 A 
ATOM     11  C   UNL     1      -0.935  11.127  21.207  0.00  0.00    +0.000 A 
ENDROOT
BRANCH   4  12
ATOM     12  C   UNL     1      -4.212  13.163  22.870  0.00  0.00    +0.000 A 
ATOM     13  C   UNL     1      -4.527  14.399  23.409  0.00  0.00    +0.000 A 
ATOM     14  C   UNL     1      -5.890  14.342  23.793  0.00  0.00    +0.000 A 
ATOM     15  C   UNL     1      -6.319  13.072  23.497  0.00  0.00    +0.000 A 
ATOM     16  O   UNL     1      -5.316  12.355  22.937  0.00  0.00    +0.000 OA
ENDBRANCH   4  12
BRANCH   1  17
ATOM     17  C   UNL     1      -1.422  12.132  18.918  0.00  0.00    +0.000 C 
BRANCH  17  19
ATOM     18  O   UNL     1      -2.584  11.407  16.864  0.00  0.00    +0.000 OA
ATOM     19  C   UNL     1      -2.668  11.811  18.023  0.00  0.00    +0.000 C 
ATOM     20  N   UNL     1      -3.893  11.949  18.658  0.00  0.00    +0.000 N 
ATOM     21  H   UNL     1      -3.918  12.248  19.625  0.00  0.00    +0.000 HD
BRANCH  20  22
ATOM     22  C   UNL     1      -5.145  11.855  17.909  0.00  0.00    +0.000 C 
ATOM     23  C   UNL     1      -5.998  10.679  18.399  0.00  0.00    +0.000 C 
ATOM     24  C   UNL     1      -6.606  10.926  19.779  0.00  0.00    +0.000 C 
ATOM     25  C   UNL     1      -7.391  12.231  19.821  0.00  0.00    +0.000 C 
ATOM     26  C   UNL     1      -6.547  13.412  19.356  0.00  0.00    +0.000 C 
ATOM     27  C   UNL     1      -5.938  13.169  17.976  0.00  0.00    +0.000 C 
ENDBRANCH  20  22
ENDBRANCH  17  19
BRANCH  17  28
ATOM     28  C   UNL     1      -0.652  13.341  18.424  0.00  0.00    +0.000 C 
ATOM     29  C   UNL     1       0.175  14.204  19.353  0.00  0.00    +0.000 C 
ATOM     30  C   UNL     1       0.848  13.432  18.253  0.00  0.00    +0.000 C 
ENDBRANCH  17  28
ENDBRANCH   1  17
TORSDOF 5
ENDMDL
MODEL 6
REMARK VINA RESULT:      -6.3      8.781     11.801
REMARK  Name = 
REMARK  5 active torsions:
REMARK  status: ('A' for Active; 'I' for Inactive)
REMARK    1  A    between atoms: C_2  and  C_10
REMARK    2  A    between atoms: N_3  and  C_4
REMARK    3  A    between atoms: C_10  and  C_11
REMARK    4  A    between atoms: C_10  and  N_14
REMARK    5  A    between atoms: C_17  and  C_18
REMARK                            x       y       z     vdW  Elec       q    Type
REMARK                         _______ _______ _______ _____ _____    ______ ____
ROOT
ATOM      1  N   UNL     1       4.510   5.082  17.462  0.00  0.00    +0.000 N 
ATOM      2  C   UNL     1       4.173   6.369  17.885  0.00  0.00    +0.000 A 
ATOM      3  O   UNL     1       4.898   7.346  17.808  0.00  0.00    +0.000 OA
ATOM      4  C   UNL     1       2.760   6.532  18.460  0.00  0.00    +0.000 A 
ATOM      5  N   UNL     1       2.044   5.525  18.876  0.00  0.00    +0.000 NA
ATOM      6  C   UNL     1       2.538   4.234  18.649  0.00  0.00    +0.000 A 
ATOM      7  C   UNL     1       1.729   3.170  19.066  0.00  0.00    +0.000 A 
ATOM      8  C   UNL     1       2.083   1.849  18.790  0.00  0.00    +0.000 A 
ATOM      9  C   UNL     1       3.282   1.587  18.134  0.00  0.00    +0.000 A 
ATOM     10  C   UNL     1       4.105   2.641  17.726  0.00  0.00    +0.000 A 
ATOM     11  C   UNL     1       3.723   3.974  17.931  0.00  0.00    +0.000 A 
ENDROOT
BRANCH   4  12
ATOM     12  C   UNL     1       2.192   7.852  18.449  0.00  0.00    +0.000 A 
ATOM     13  C   UNL     1       2.159   8.850  17.490  0.00  0.00    +0.000 A 
ATOM     14  C   UNL     1       1.550   9.978  18.093  0.00  0.00    +0.000 A 
ATOM     15  C   UNL     1       1.275   9.618  19.390  0.00  0.00    +0.000 A 
ATOM     16  O   UNL     1       1.655   8.337  19.613  0.00  0.00    +0.000 OA
ENDBRANCH   4  12
BRANCH   1  17
ATOM     17  C   UNL     1       5.721   4.892  16.646  0.00  0.00    +0.000 C 
BRANCH  17  19
ATOM     18  O   UNL     1       5.232   6.479  14.820  0.00  0.00    +0.000 OA
ATOM     19  C   UNL     1       5.585   5.349  15.153  0.00  0.00    +0.000 C 
ATOM     20  N   UNL     1       5.962   4.399  14.216  0.00  0.00    +0.000 N 
ATOM     21  H   UNL     1       6.282   3.492  14.532  0.00  0.00    +0.000 HD
BRANCH  20  22
ATOM     22  C   UNL     1       5.728   4.613  12.789  0.00  0.00    +0.000 C 
ATOM     23  C   UNL     1       7.048   4.682  12.013  0.00  0.00    +0.000 C 
ATOM     24  C   UNL     1       7.738   3.322  11.903  0.00  0.00    +0.000 C 
ATOM     25  C   UNL     1       6.808   2.267  11.316  0.00  0.00    +0.000 C 
ATOM     26  C   UNL     1       5.499   2.176  12.092  0.00  0.00    +0.000 C 
ATOM     27  C   UNL     1       4.806   3.533  12.204  0.00  0.00    +0.000 C 
ENDBRANCH  20  22
ENDBRANCH  17  19
BRANCH  17  28
ATOM     28  C   UNL     1       7.040   5.316  17.262  0.00  0.00    +0.000 C 
ATOM     29  C   UNL     1       7.277   5.285  18.756  0.00  0.00    +0.000 C 
ATOM     30  C   UNL     1       8.083   4.394  17.854  0.00  0.00    +0.000 C 
ENDBRANCH  17  28
ENDBRANCH   1  17
TORSDOF 5
ENDMDL
MODEL 7
REMARK VINA RESULT:      -6.3      2.722      6.144
REMARK  Name = 
REMARK  5 active torsions:
REMARK  status: ('A' for Active; 'I' for Inactive)
REMARK    1  A    between atoms: C_2  and  C_10
REMARK    2  A    between atoms: N_3  and  C_4
REMARK    3  A    between atoms: C_10  and  C_11
REMARK    4  A    between atoms: C_10  and  N_14
REMARK    5  A    between atoms: C_17  and  C_18
REMARK                            x       y       z     vdW  Elec       q    Type
REMARK                         _______ _______ _______ _____ _____    ______ ____
ROOT
ATOM      1  N   UNL     1      -3.890  12.816  21.601  0.00  0.00    +0.000 N 
ATOM      2  C   UNL     1      -3.613  12.738  20.235  0.00  0.00    +0.000 A 
ATOM      3  O   UNL     1      -2.587  13.126  19.703  0.00  0.00    +0.000 OA
ATOM      4  C   UNL     1      -4.699  12.081  19.372  0.00  0.00    +0.000 A 
ATOM      5  N   UNL     1      -5.930  11.932  19.774  0.00  0.00    +0.000 NA
ATOM      6  C   UNL     1      -6.226  12.258  21.104  0.00  0.00    +0.000 A 
ATOM      7  C   UNL     1      -7.546  12.047  21.522  0.00  0.00    +0.000 A 
ATOM      8  C   UNL     1      -7.916  12.239  22.853  0.00  0.00    +0.000 A 
ATOM      9  C   UNL     1      -6.969  12.695  23.765  0.00  0.00    +0.000 A 
ATOM     10  C   UNL     1      -5.652  12.923  23.356  0.00  0.00    +0.000 A 
ATOM     11  C   UNL     1      -5.251  12.660  22.038  0.00  0.00    +0.000 A 
ENDROOT
BRANCH   4  12
ATOM     12  C   UNL     1      -4.294  11.537  18.105  0.00  0.00    +0.000 A 
ATOM     13  C   UNL     1      -4.730  11.754  16.809  0.00  0.00    +0.000 A 
ATOM     14  C   UNL     1      -4.025  10.844  15.982  0.00  0.00    +0.000 A 
ATOM     15  C   UNL     1      -3.227  10.104  16.819  0.00  0.00    +0.000 A 
ATOM     16  O   UNL     1      -3.378  10.517  18.101  0.00  0.00    +0.000 OA
ENDBRANCH   4  12
BRANCH   1  17
ATOM     17  C   UNL     1      -2.805  13.165  22.532  0.00  0.00    +0.000 C 
BRANCH  17  19
ATOM     18  O   UNL     1      -1.422  11.346  23.468  0.00  0.00    +0.000 OA
ATOM     19  C   UNL     1      -1.609  12.151  22.556  0.00  0.00    +0.000 C 
ATOM     20  N   UNL     1      -0.803  12.175  21.429  0.00  0.00    +0.000 N 
ATOM     21  H   UNL     1      -1.012  12.827  20.684  0.00  0.00    +0.000 HD
BRANCH  20  22
ATOM     22  C   UNL     1       0.446  11.416  21.380  0.00  0.00    +0.000 C 
ATOM     23  C   UNL     1       0.219  10.009  20.813  0.00  0.00    +0.000 C 
ATOM     24  C   UNL     1      -0.072  10.019  19.312  0.00  0.00    +0.000 C 
ATOM     25  C   UNL     1       1.011  10.758  18.535  0.00  0.00    +0.000 C 
ATOM     26  C   UNL     1       1.232  12.166  19.077  0.00  0.00    +0.000 C 
ATOM     27  C   UNL     1       1.523  12.160  20.577  0.00  0.00    +0.000 C 
ENDBRANCH  20  22
ENDBRANCH  17  19
BRANCH  17  28
ATOM     28  C   UNL     1      -2.339  14.608  22.537  0.00  0.00    +0.000 C 
ATOM     29  C   UNL     1      -2.816  15.605  23.570  0.00  0.00    +0.000 C 
ATOM     30  C   UNL     1      -1.363  15.226  23.513  0.00  0.00    +0.000 C 
ENDBRANCH  17  28
ENDBRANCH   1  17
TORSDOF 5
ENDMDL
MODEL 8
REMARK VINA RESULT:      -6.3      1.910      3.350
REMARK  Name = 
REMARK  5 active torsions:
REMARK  status: ('A' for Active; 'I' for Inactive)
REMARK    1  A    between atoms: C_2  and  C_10
REMARK    2  A    between atoms: N_3  and  C_4
REMARK    3  A    between atoms: C_10  and  C_11
REMARK    4  A    between atoms: C_10  and  N_14
REMARK    5  A    between atoms: C_17  and  C_18
REMARK                            x       y       z     vdW  Elec       q    Type
REMARK                         _______ _______ _______ _____ _____    ______ ____
ROOT
ATOM      1  N   UNL     1      -1.489  12.068  19.106  0.00  0.00    +0.000 N 
ATOM      2  C   UNL     1      -1.848  12.257  20.441  0.00  0.00    +0.000 A 
ATOM      3  O   UNL     1      -1.072  12.279  21.381  0.00  0.00    +0.000 OA
ATOM      4  C   UNL     1      -3.344  12.478  20.704  0.00  0.00    +0.000 A 
ATOM      5  N   UNL     1      -4.269  12.160  19.843  0.00  0.00    +0.000 NA
ATOM      6  C   UNL     1      -3.860  11.734  18.572  0.00  0.00    +0.000 A 
ATOM      7  C   UNL     1      -4.873  11.440  17.652  0.00  0.00    +0.000 A 
ATOM      8  C   UNL     1      -4.570  11.112  16.331  0.00  0.00    +0.000 A 
ATOM      9  C   UNL     1      -3.238  11.026  15.938  0.00  0.00    +0.000 A 
ATOM     10  C   UNL     1      -2.216  11.303  16.852  0.00  0.00    +0.000 A 
ATOM     11  C   UNL     1      -2.512  11.708  18.162  0.00  0.00    +0.000 A 
ENDROOT
BRANCH   4  12
ATOM     12  C   UNL     1      -3.707  13.146  21.923  0.00  0.00    +0.000 A 
ATOM     13  C   UNL     1      -3.684  14.476  22.306  0.00  0.00    +0.000 A 
ATOM     14  C   UNL     1      -4.056  14.515  23.673  0.00  0.00    +0.000 A 
ATOM     15  C   UNL     1      -4.254  13.211  24.054  0.00  0.00    +0.000 A 
ATOM     16  O   UNL     1      -4.049  12.378  23.006  0.00  0.00    +0.000 OA
ENDBRANCH   4  12
BRANCH   1  17
ATOM     17  C   UNL     1      -0.067  12.133  18.732  0.00  0.00    +0.000 C 
BRANCH  17  19
ATOM     18  O   UNL     1       1.854  13.519  19.426  0.00  0.00    +0.000 OA
ATOM     19  C   UNL     1       0.660  13.461  19.139  0.00  0.00    +0.000 C 
ATOM     20  N   UNL     1      -0.132  14.598  19.086  0.00  0.00    +0.000 N 
ATOM     21  H   UNL     1      -1.102  14.513  18.808  0.00  0.00    +0.000 HD
BRANCH  20  22
ATOM     22  C   UNL     1       0.351  15.878  19.601  0.00  0.00    +0.000 C 
ATOM     23  C   UNL     1       0.669  16.851  18.460  0.00  0.00    +0.000 C 
ATOM     24  C   UNL     1      -0.587  17.375  17.764  0.00  0.00    +0.000 C 
ATOM     25  C   UNL     1      -1.564  17.991  18.759  0.00  0.00    +0.000 C 
ATOM     26  C   UNL     1      -1.903  17.025  19.887  0.00  0.00    +0.000 C 
ATOM     27  C   UNL     1      -0.650  16.499  20.586  0.00  0.00    +0.000 C 
ENDBRANCH  20  22
ENDBRANCH  17  19
BRANCH  17  28
ATOM     28  C   UNL     1       0.776  10.904  19.013  0.00  0.00    +0.000 C 
ATOM     29  C   UNL     1       0.631   9.628  18.213  0.00  0.00    +0.000 C 
ATOM     30  C   UNL     1       1.921  10.396  18.166  0.00  0.00    +0.000 C 
ENDBRANCH  17  28
ENDBRANCH   1  17
TORSDOF 5
ENDMDL
MODEL 9
REMARK VINA RESULT:      -6.3      2.191      3.936
REMARK  Name = 
REMARK  5 active torsions:
REMARK  status: ('A' for Active; 'I' for Inactive)
REMARK    1  A    between atoms: C_2  and  C_10
REMARK    2  A    between atoms: N_3  and  C_4
REMARK    3  A    between atoms: C_10  and  C_11
REMARK    4  A    between atoms: C_10  and  N_14
REMARK    5  A    between atoms: C_17  and  C_18
REMARK                            x       y       z     vdW  Elec       q    Type
REMARK                         _______ _______ _______ _____ _____    ______ ____
ROOT
ATOM      1  N   UNL     1      -1.132  11.157  19.617  0.00  0.00    +0.000 N 
ATOM      2  C   UNL     1      -1.605  11.903  20.699  0.00  0.00    +0.000 A 
ATOM      3  O   UNL     1      -1.085  11.949  21.801  0.00  0.00    +0.000 OA
ATOM      4  C   UNL     1      -2.865  12.737  20.433  0.00  0.00    +0.000 A 
ATOM      5  N   UNL     1      -3.662  12.517  19.426  0.00  0.00    +0.000 NA
ATOM      6  C   UNL     1      -3.263  11.569  18.474  0.00  0.00    +0.000 A 
ATOM      7  C   UNL     1      -4.116  11.382  17.379  0.00  0.00    +0.000 A 
ATOM      8  C   UNL     1      -3.758  10.541  16.326  0.00  0.00    +0.000 A 
ATOM      9  C   UNL     1      -2.558   9.841  16.390  0.00  0.00    +0.000 A 
ATOM     10  C   UNL     1      -1.704  10.008  17.485  0.00  0.00    +0.000 A 
ATOM     11  C   UNL     1      -2.019  10.908  18.513  0.00  0.00    +0.000 A 
ENDROOT
BRANCH   4  12
ATOM     12  C   UNL     1      -3.105  13.860  21.297  0.00  0.00    +0.000 A 
ATOM     13  C   UNL     1      -2.563  15.133  21.354  0.00  0.00    +0.000 A 
ATOM     14  C   UNL     1      -3.117  15.763  22.495  0.00  0.00    +0.000 A 
ATOM     15  C   UNL     1      -3.938  14.835  23.086  0.00  0.00    +0.000 A 
ATOM     16  O   UNL     1      -3.941  13.686  22.369  0.00  0.00    +0.000 OA
ENDBRANCH   4  12
BRANCH   1  17
ATOM     17  C   UNL     1       0.210  10.559  19.693  0.00  0.00    +0.000 C 
BRANCH  17  19
ATOM     18  O   UNL     1       2.094  11.246  18.252  0.00  0.00    +0.000 OA
ATOM     19  C   UNL     1       1.374  11.496  19.217  0.00  0.00    +0.000 C 
ATOM     20  N   UNL     1       1.495  12.680  19.928  0.00  0.00    +0.000 N 
ATOM     21  H   UNL     1       0.859  12.866  20.693  0.00  0.00    +0.000 HD
BRANCH  20  22
ATOM     22  C   UNL     1       2.635  13.572  19.717  0.00  0.00    +0.000 C 
ATOM     23  C   UNL     1       2.255  14.756  18.821  0.00  0.00    +0.000 C 
ATOM     24  C   UNL     1       1.341  15.759  19.525  0.00  0.00    +0.000 C 
ATOM     25  C   UNL     1       1.940  16.235  20.844  0.00  0.00    +0.000 C 
ATOM     26  C   UNL     1       2.302  15.066  21.752  0.00  0.00    +0.000 C 
ATOM     27  C   UNL     1       3.217  14.061  21.052  0.00  0.00    +0.000 C 
ENDBRANCH  20  22
ENDBRANCH  17  19
BRANCH  17  28
ATOM     28  C   UNL     1       0.557   9.804  20.961  0.00  0.00    +0.000 C 
ATOM     29  C   UNL     1      -0.183   8.554  21.383  0.00  0.00    +0.000 C 
ATOM     30  C   UNL     1       1.278   8.477  21.039  0.00  0.00    +0.000 C 
ENDBRANCH  17  28
ENDBRANCH   1  17
TORSDOF 5
ENDMDL
