MODEL 1
REMARK VINA RESULT:      -6.7      0.000      0.000
REMARK  Name = 
REMARK  8 active torsions:
REMARK  status: ('A' for Active; 'I' for Inactive)
REMARK    1  A    between atoms: C_1  and  O_2
REMARK    2  A    between atoms: O_2  and  C_3
REMARK    3  A    between atoms: C_6  and  C_7
REMARK    4  A    between atoms: C_12  and  C_13
REMARK    5  A    between atoms: C_14  and  C_15
REMARK    6  A    between atoms: C_18  and  C_20
REMARK    7  A    between atoms: C_26  and  C_27
REMARK    8  A    between atoms: C_27  and  O_28
REMARK                            x       y       z     vdW  Elec       q    Type
REMARK                         _______ _______ _______ _____ _____    ______ ____
ROOT
ATOM      1  C   UNL     1      -1.226  11.230  19.516  0.00  0.00    +0.000 C 
ATOM      2  C   UNL     1      -2.061  11.891  20.634  0.00  0.00    +0.000 C 
ATOM      3  N   UNL     1      -3.030  12.315  19.556  0.00  0.00    +0.000 N 
ATOM      4  C   UNL     1      -4.331  12.551  19.981  0.00  0.00    +0.000 C 
ATOM      5  O   UNL     1      -4.548  12.585  21.198  0.00  0.00    +0.000 OA
ATOM      6  C   UNL     1      -2.546  11.225  18.666  0.00  0.00    +0.000 C 
ENDROOT
BRANCH   1  12
ATOM      7  C   UNL     1       1.376  11.295  18.674  0.00  0.00    +0.000 A 
ATOM      8  C   UNL     1       2.466  12.080  18.209  0.00  0.00    +0.000 A 
ATOM      9  C   UNL     1       2.396  13.465  18.070  0.00  0.00    +0.000 A 
ATOM     10  C   UNL     1       1.208  14.113  18.334  0.00  0.00    +0.000 A 
ATOM     11  C   UNL     1       0.098  13.367  18.724  0.00  0.00    +0.000 A 
ATOM     12  C   UNL     1       0.130  11.961  18.944  0.00  0.00    +0.000 A 
BRANCH   7  16
ATOM     13  C   UNL     1       2.238   7.073  19.330  0.00  0.00    +0.000 A 
ATOM     14  C   UNL     1       2.416   7.653  18.079  0.00  0.00    +0.000 A 
ATOM     15  C   UNL     1       2.136   9.012  17.876  0.00  0.00    +0.000 A 
ATOM     16  C   UNL     1       1.623   9.833  18.902  0.00  0.00    +0.000 A 
ATOM     17  C   UNL     1       1.354   9.188  20.119  0.00  0.00    +0.000 A 
ATOM     18  C   UNL     1       1.686   7.841  20.347  0.00  0.00    +0.000 A 
BRANCH  13  20
ATOM     19  C   UNL     1       2.124   5.091  20.611  0.00  0.00    +0.000 C 
ATOM     20  O   UNL     1       2.573   5.752  19.431  0.00  0.00    +0.000 OA
ENDBRANCH  13  20
ENDBRANCH   7  16
ENDBRANCH   1  12
BRANCH   4  21
ATOM     21  C   UNL     1      -5.499  12.685  18.987  0.00  0.00    +0.000 C 
ATOM     22  C   UNL     1      -5.970  11.281  18.524  0.00  0.00    +0.000 C 
ATOM     23  C   UNL     1      -6.673  10.490  19.634  0.00  0.00    +0.000 C 
ATOM     24  C   UNL     1      -7.823  11.257  20.274  0.00  0.00    +0.000 C 
ATOM     25  C   UNL     1      -7.506  12.720  20.581  0.00  0.00    +0.000 C 
ATOM     26  C   UNL     1      -6.732  13.444  19.479  0.00  0.00    +0.000 C 
ENDBRANCH   4  21
BRANCH   2  27
ATOM     27  C   UNL     1      -1.495  12.971  21.413  0.00  0.00    +0.000 C 
ATOM     28  N   UNL     1      -1.051  13.836  22.046  0.00  0.00    +0.000 NA
ENDBRANCH   2  27
BRANCH   6  29
ATOM     29  C   UNL     1      -2.404  11.541  17.185  0.00  0.00    +0.000 C 
BRANCH  29  30
ATOM     30  O   UNL     1      -1.944  10.370  16.504  0.00  0.00    +0.000 OA
ATOM     31  H   UNL     1      -1.529  10.639  15.667  0.00  0.00    +0.000 HD
ENDBRANCH  29  30
ENDBRANCH   6  29
TORSDOF 7
ENDMDL
MODEL 2
REMARK VINA RESULT:      -6.5      1.045      1.326
REMARK  Name = 
REMARK  8 active torsions:
REMARK  status: ('A' for Active; 'I' for Inactive)
REMARK    1  A    between atoms: C_1  and  O_2
REMARK    2  A    between atoms: O_2  and  C_3
REMARK    3  A    between atoms: C_6  and  C_7
REMARK    4  A    between atoms: C_12  and  C_13
REMARK    5  A    between atoms: C_14  and  C_15
REMARK    6  A    between atoms: C_18  and  C_20
REMARK    7  A    between atoms: C_26  and  C_27
REMARK    8  A    between atoms: C_27  and  O_28
REMARK                            x       y       z     vdW  Elec       q    Type
REMARK                         _______ _______ _______ _____ _____    ______ ____
ROOT
ATOM      1  C   UNL     1      -1.222  11.059  19.414  0.00  0.00    +0.000 C 
ATOM      2  C   UNL     1      -2.318  11.883  20.125  0.00  0.00    +0.000 C 
ATOM      3  N   UNL     1      -3.106  11.803  18.840  0.00  0.00    +0.000 N 
ATOM      4  C   UNL     1      -4.481  11.945  18.972  0.00  0.00    +0.000 C 
ATOM      5  O   UNL     1      -4.925  12.309  20.068  0.00  0.00    +0.000 OA
ATOM      6  C   UNL     1      -2.351  10.587  18.430  0.00  0.00    +0.000 C 
ENDROOT
BRANCH   1  12
ATOM      7  C   UNL     1       1.385  11.129  18.591  0.00  0.00    +0.000 A 
ATOM      8  C   UNL     1       2.473  11.915  18.120  0.00  0.00    +0.000 A 
ATOM      9  C   UNL     1       2.393  13.297  17.958  0.00  0.00    +0.000 A 
ATOM     10  C   UNL     1       1.198  13.940  18.202  0.00  0.00    +0.000 A 
ATOM     11  C   UNL     1       0.092  13.191  18.596  0.00  0.00    +0.000 A 
ATOM     12  C   UNL     1       0.133  11.790  18.840  0.00  0.00    +0.000 A 
BRANCH   7  16
ATOM     13  C   UNL     1       2.275   6.926  19.322  0.00  0.00    +0.000 A 
ATOM     14  C   UNL     1       2.443   7.482  18.059  0.00  0.00    +0.000 A 
ATOM     15  C   UNL     1       2.154   8.836  17.832  0.00  0.00    +0.000 A 
ATOM     16  C   UNL     1       1.641   9.673  18.845  0.00  0.00    +0.000 A 
ATOM     17  C   UNL     1       1.383   9.050  20.075  0.00  0.00    +0.000 A 
ATOM     18  C   UNL     1       1.724   7.710  20.327  0.00  0.00    +0.000 A 
BRANCH  13  20
ATOM     19  C   UNL     1       2.809   4.902  18.224  0.00  0.00    +0.000 C 
ATOM     20  O   UNL     1       2.618   5.609  19.447  0.00  0.00    +0.000 OA
ENDBRANCH  13  20
ENDBRANCH   7  16
ENDBRANCH   1  12
BRANCH   4  21
ATOM     21  C   UNL     1      -5.449  11.586  17.830  0.00  0.00    +0.000 C 
ATOM     22  C   UNL     1      -6.777  11.033  18.410  0.00  0.00    +0.000 C 
ATOM     23  C   UNL     1      -7.613  12.104  19.120  0.00  0.00    +0.000 C 
ATOM     24  C   UNL     1      -7.876  13.327  18.250  0.00  0.00    +0.000 C 
ATOM     25  C   UNL     1      -6.653  13.821  17.479  0.00  0.00    +0.000 C 
ATOM     26  C   UNL     1      -5.805  12.711  16.857  0.00  0.00    +0.000 C 
ENDBRANCH   4  21
BRANCH   2  27
ATOM     27  C   UNL     1      -2.025  13.223  20.587  0.00  0.00    +0.000 C 
ATOM     28  N   UNL     1      -1.791  14.301  20.945  0.00  0.00    +0.000 NA
ENDBRANCH   2  27
BRANCH   6  29
ATOM     29  C   UNL     1      -1.968  10.462  16.964  0.00  0.00    +0.000 C 
BRANCH  29  30
ATOM     30  O   UNL     1      -2.243  11.702  16.306  0.00  0.00    +0.000 OA
ATOM     31  H   UNL     1      -3.159  11.685  15.980  0.00  0.00    +0.000 HD
ENDBRANCH  29  30
ENDBRANCH   6  29
TORSDOF 7
ENDMDL
MODEL 3
REMARK VINA RESULT:      -6.4      3.307      5.827
REMARK  Name = 
REMARK  8 active torsions:
REMARK  status: ('A' for Active; 'I' for Inactive)
REMARK    1  A    between atoms: C_1  and  O_2
REMARK    2  A    between atoms: O_2  and  C_3
REMARK    3  A    between atoms: C_6  and  C_7
REMARK    4  A    between atoms: C_12  and  C_13
REMARK    5  A    between atoms: C_14  and  C_15
REMARK    6  A    between atoms: C_18  and  C_20
REMARK    7  A    between atoms: C_26  and  C_27
REMARK    8  A    between atoms: C_27  and  O_28
REMARK                            x       y       z     vdW  Elec       q    Type
REMARK                         _______ _______ _______ _____ _____    ______ ____
ROOT
ATOM      1  C   UNL     1       1.042  12.232  19.830  0.00  0.00    +0.000 C 
ATOM      2  C   UNL     1       0.130  12.884  18.768  0.00  0.00    +0.000 C 
ATOM      3  N   UNL     1       0.309  14.182  19.519  0.00  0.00    +0.000 N 
ATOM      4  C   UNL     1       0.124  15.337  18.770  0.00  0.00    +0.000 C 
ATOM      5  O   UNL     1      -0.349  15.222  17.633  0.00  0.00    +0.000 OA
ATOM      6  C   UNL     1       1.575  13.679  20.121  0.00  0.00    +0.000 C 
ENDROOT
BRANCH   1  12
ATOM      7  C   UNL     1       0.520   9.894  21.151  0.00  0.00    +0.000 A 
ATOM      8  C   UNL     1      -0.124   9.253  22.246  0.00  0.00    +0.000 A 
ATOM      9  C   UNL     1      -0.916   9.940  23.164  0.00  0.00    +0.000 A 
ATOM     10  C   UNL     1      -1.045  11.308  23.059  0.00  0.00    +0.000 A 
ATOM     11  C   UNL     1      -0.370  11.978  22.041  0.00  0.00    +0.000 A 
ATOM     12  C   UNL     1       0.398  11.323  21.038  0.00  0.00    +0.000 A 
BRANCH   7  16
ATOM     13  C   UNL     1       2.487   7.267  18.285  0.00  0.00    +0.000 A 
ATOM     14  C   UNL     1       2.429   6.936  19.634  0.00  0.00    +0.000 A 
ATOM     15  C   UNL     1       1.795   7.787  20.550  0.00  0.00    +0.000 A 
ATOM     16  C   UNL     1       1.235   9.023  20.161  0.00  0.00    +0.000 A 
ATOM     17  C   UNL     1       1.409   9.372  18.814  0.00  0.00    +0.000 A 
ATOM     18  C   UNL     1       1.992   8.499  17.878  0.00  0.00    +0.000 A 
BRANCH  13  20
ATOM     19  C   UNL     1       4.159   5.611  18.061  0.00  0.00    +0.000 C 
ATOM     20  O   UNL     1       3.096   6.354  17.470  0.00  0.00    +0.000 OA
ENDBRANCH  13  20
ENDBRANCH   7  16
ENDBRANCH   1  12
BRANCH   4  21
ATOM     21  C   UNL     1       0.564  16.719  19.286  0.00  0.00    +0.000 C 
ATOM     22  C   UNL     1       2.028  17.006  18.858  0.00  0.00    +0.000 C 
ATOM     23  C   UNL     1       2.176  17.241  17.350  0.00  0.00    +0.000 C 
ATOM     24  C   UNL     1       1.241  18.321  16.821  0.00  0.00    +0.000 C 
ATOM     25  C   UNL     1      -0.188  18.230  17.357  0.00  0.00    +0.000 C 
ATOM     26  C   UNL     1      -0.285  17.914  18.850  0.00  0.00    +0.000 C 
ENDBRANCH   4  21
BRANCH   2  27
ATOM     27  C   UNL     1      -1.240  12.439  18.624  0.00  0.00    +0.000 C 
ATOM     28  N   UNL     1      -2.338  12.081  18.521  0.00  0.00    +0.000 NA
ENDBRANCH   2  27
BRANCH   6  29
ATOM     29  C   UNL     1       1.844  14.027  21.577  0.00  0.00    +0.000 C 
BRANCH  29  30
ATOM     30  O   UNL     1       3.237  13.842  21.847  0.00  0.00    +0.000 OA
ATOM     31  H   UNL     1       3.455  14.290  22.681  0.00  0.00    +0.000 HD
ENDBRANCH  29  30
ENDBRANCH   6  29
TORSDOF 7
ENDMDL
MODEL 4
REMARK VINA RESULT:      -6.3      3.221      5.889
REMARK  Name = 
REMARK  8 active torsions:
REMARK  status: ('A' for Active; 'I' for Inactive)
REMARK    1  A    between atoms: C_1  and  O_2
REMARK    2  A    between atoms: O_2  and  C_3
REMARK    3  A    between atoms: C_6  and  C_7
REMARK    4  A    between atoms: C_12  and  C_13
REMARK    5  A    between atoms: C_14  and  C_15
REMARK    6  A    between atoms: C_18  and  C_20
REMARK    7  A    between atoms: C_26  and  C_27
REMARK    8  A    between atoms: C_27  and  O_28
REMARK                            x       y       z     vdW  Elec       q    Type
REMARK                         _______ _______ _______ _____ _____    ______ ____
ROOT
ATOM      1  C   UNL     1       0.997  11.862  19.608  0.00  0.00    +0.000 C 
ATOM      2  C   UNL     1       0.017  12.735  18.794  0.00  0.00    +0.000 C 
ATOM      3  N   UNL     1       0.569  13.923  19.545  0.00  0.00    +0.000 N 
ATOM      4  C   UNL     1       0.440  15.148  18.903  0.00  0.00    +0.000 C 
ATOM      5  O   UNL     1      -0.267  15.201  17.890  0.00  0.00    +0.000 OA
ATOM      6  C   UNL     1       1.823  13.177  19.841  0.00  0.00    +0.000 C 
ENDROOT
BRANCH   1  12
ATOM      7  C   UNL     1       0.685   9.567  21.062  0.00  0.00    +0.000 A 
ATOM      8  C   UNL     1       0.128   8.943  22.213  0.00  0.00    +0.000 A 
ATOM      9  C   UNL     1      -0.671   9.623  23.130  0.00  0.00    +0.000 A 
ATOM     10  C   UNL     1      -0.895  10.973  22.965  0.00  0.00    +0.000 A 
ATOM     11  C   UNL     1      -0.307  11.632  21.887  0.00  0.00    +0.000 A 
ATOM     12  C   UNL     1       0.463  10.977  20.885  0.00  0.00    +0.000 A 
BRANCH   7  16
ATOM     13  C   UNL     1       2.921   7.128  18.226  0.00  0.00    +0.000 A 
ATOM     14  C   UNL     1       2.312   8.312  17.825  0.00  0.00    +0.000 A 
ATOM     15  C   UNL     1       1.594   9.091  18.744  0.00  0.00    +0.000 A 
ATOM     16  C   UNL     1       1.417   8.694  20.087  0.00  0.00    +0.000 A 
ATOM     17  C   UNL     1       1.953   7.443  20.426  0.00  0.00    +0.000 A 
ATOM     18  C   UNL     1       2.723   6.684  19.527  0.00  0.00    +0.000 A 
BRANCH  13  20
ATOM     19  C   UNL     1       3.689   5.047  17.414  0.00  0.00    +0.000 C 
ATOM     20  O   UNL     1       3.627   6.462  17.264  0.00  0.00    +0.000 OA
ENDBRANCH  13  20
ENDBRANCH   7  16
ENDBRANCH   1  12
BRANCH   4  21
ATOM     21  C   UNL     1       1.210  16.396  19.372  0.00  0.00    +0.000 C 
ATOM     22  C   UNL     1       2.639  16.399  18.768  0.00  0.00    +0.000 C 
ATOM     23  C   UNL     1       2.649  16.651  17.255  0.00  0.00    +0.000 C 
ATOM     24  C   UNL     1       1.895  17.914  16.857  0.00  0.00    +0.000 C 
ATOM     25  C   UNL     1       0.553  18.091  17.567  0.00  0.00    +0.000 C 
ATOM     26  C   UNL     1       0.574  17.751  19.057  0.00  0.00    +0.000 C 
ENDBRANCH   4  21
BRANCH   2  27
ATOM     27  C   UNL     1      -1.410  12.530  18.927  0.00  0.00    +0.000 C 
ATOM     28  N   UNL     1      -2.552  12.357  19.025  0.00  0.00    +0.000 NA
ENDBRANCH   2  27
BRANCH   6  29
ATOM     29  C   UNL     1       2.439  13.361  21.219  0.00  0.00    +0.000 C 
BRANCH  29  30
ATOM     30  O   UNL     1       3.713  13.994  21.076  0.00  0.00    +0.000 OA
ATOM     31  H   UNL     1       3.861  14.574  21.841  0.00  0.00    +0.000 HD
ENDBRANCH  29  30
ENDBRANCH   6  29
TORSDOF 7
ENDMDL
MODEL 5
REMARK VINA RESULT:      -6.2      3.986      6.030
REMARK  Name = 
REMARK  8 active torsions:
REMARK  status: ('A' for Active; 'I' for Inactive)
REMARK    1  A    between atoms: C_1  and  O_2
REMARK    2  A    between atoms: O_2  and  C_3
REMARK    3  A    between atoms: C_6  and  C_7
REMARK    4  A    between atoms: C_12  and  C_13
REMARK    5  A    between atoms: C_14  and  C_15
REMARK    6  A    between atoms: C_18  and  C_20
REMARK    7  A    between atoms: C_26  and  C_27
REMARK    8  A    between atoms: C_27  and  O_28
REMARK                            x       y       z     vdW  Elec       q    Type
REMARK                         _______ _______ _______ _____ _____    ______ ____
ROOT
ATOM      1  C   UNL     1       1.469  14.631  19.892  0.00  0.00    +0.000 C 
ATOM      2  C   UNL     1       1.070  14.772  21.377  0.00  0.00    +0.000 C 
ATOM      3  N   UNL     1      -0.164  13.968  21.045  0.00  0.00    +0.000 N 
ATOM      4  C   UNL     1      -0.741  13.290  22.111  0.00  0.00    +0.000 C 
ATOM      5  O   UNL     1      -0.332  13.544  23.250  0.00  0.00    +0.000 OA
ATOM      6  C   UNL     1       0.515  13.385  19.855  0.00  0.00    +0.000 C 
ENDROOT
BRANCH   1  12
ATOM      7  C   UNL     1       2.304  16.551  18.133  0.00  0.00    +0.000 A 
ATOM      8  C   UNL     1       1.948  17.637  17.285  0.00  0.00    +0.000 A 
ATOM      9  C   UNL     1       0.643  18.112  17.173  0.00  0.00    +0.000 A 
ATOM     10  C   UNL     1      -0.371  17.478  17.859  0.00  0.00    +0.000 A 
ATOM     11  C   UNL     1      -0.069  16.367  18.644  0.00  0.00    +0.000 A 
ATOM     12  C   UNL     1       1.252  15.879  18.847  0.00  0.00    +0.000 A 
BRANCH   7  16
ATOM     13  C   UNL     1       6.516  15.560  18.652  0.00  0.00    +0.000 A 
ATOM     14  C   UNL     1       5.978  16.709  19.220  0.00  0.00    +0.000 A 
ATOM     15  C   UNL     1       4.621  17.021  19.048  0.00  0.00    +0.000 A 
ATOM     16  C   UNL     1       3.762  16.223  18.264  0.00  0.00    +0.000 A 
ATOM     17  C   UNL     1       4.365  15.133  17.619  0.00  0.00    +0.000 A 
ATOM     18  C   UNL     1       5.709  14.781  17.832  0.00  0.00    +0.000 A 
BRANCH  13  20
ATOM     19  C   UNL     1       8.265  13.975  18.770  0.00  0.00    +0.000 C 
ATOM     20  O   UNL     1       7.838  15.328  18.908  0.00  0.00    +0.000 OA
ENDBRANCH  13  20
ENDBRANCH   7  16
ENDBRANCH   1  12
BRANCH   4  21
ATOM     21  C   UNL     1      -1.800  12.193  21.899  0.00  0.00    +0.000 C 
ATOM     22  C   UNL     1      -2.459  11.819  23.253  0.00  0.00    +0.000 C 
ATOM     23  C   UNL     1      -3.356  12.931  23.810  0.00  0.00    +0.000 C 
ATOM     24  C   UNL     1      -4.408  13.402  22.813  0.00  0.00    +0.000 C 
ATOM     25  C   UNL     1      -3.880  13.603  21.394  0.00  0.00    +0.000 C 
ATOM     26  C   UNL     1      -2.925  12.510  20.912  0.00  0.00    +0.000 C 
ENDBRANCH   4  21
BRANCH   2  27
ATOM     27  C   UNL     1       0.819  16.084  21.933  0.00  0.00    +0.000 C 
ATOM     28  N   UNL     1       0.607  17.137  22.372  0.00  0.00    +0.000 NA
ENDBRANCH   2  27
BRANCH   6  29
ATOM     29  C   UNL     1      -0.317  13.201  18.595  0.00  0.00    +0.000 C 
BRANCH  29  30
ATOM     30  O   UNL     1      -0.218  11.839  18.171  0.00  0.00    +0.000 OA
ATOM     31  H   UNL     1       0.375  11.793  17.402  0.00  0.00    +0.000 HD
ENDBRANCH  29  30
ENDBRANCH   6  29
TORSDOF 7
ENDMDL
MODEL 6
REMARK VINA RESULT:      -6.1      1.015      1.657
REMARK  Name = 
REMARK  8 active torsions:
REMARK  status: ('A' for Active; 'I' for Inactive)
REMARK    1  A    between atoms: C_1  and  O_2
REMARK    2  A    between atoms: O_2  and  C_3
REMARK    3  A    between atoms: C_6  and  C_7
REMARK    4  A    between atoms: C_12  and  C_13
REMARK    5  A    between atoms: C_14  and  C_15
REMARK    6  A    between atoms: C_18  and  C_20
REMARK    7  A    between atoms: C_26  and  C_27
REMARK    8  A    between atoms: C_27  and  O_28
REMARK                            x       y       z     vdW  Elec       q    Type
REMARK                         _______ _______ _______ _____ _____    ______ ____
ROOT
ATOM      1  C   UNL     1      -1.533  11.586  19.654  0.00  0.00    +0.000 C 
ATOM      2  C   UNL     1      -2.674  12.213  20.486  0.00  0.00    +0.000 C 
ATOM      3  N   UNL     1      -3.502  12.197  19.224  0.00  0.00    +0.000 N 
ATOM      4  C   UNL     1      -4.878  12.184  19.411  0.00  0.00    +0.000 C 
ATOM      5  O   UNL     1      -5.310  12.377  20.554  0.00  0.00    +0.000 OA
ATOM      6  C   UNL     1      -2.649  11.115  18.656  0.00  0.00    +0.000 C 
ENDROOT
BRANCH   1  12
ATOM      7  C   UNL     1       1.026  12.012  18.789  0.00  0.00    +0.000 A 
ATOM      8  C   UNL     1       2.012  12.951  18.376  0.00  0.00    +0.000 A 
ATOM      9  C   UNL     1       1.784  14.325  18.353  0.00  0.00    +0.000 A 
ATOM     10  C   UNL     1       0.537  14.812  18.683  0.00  0.00    +0.000 A 
ATOM     11  C   UNL     1      -0.473  13.915  19.024  0.00  0.00    +0.000 A 
ATOM     12  C   UNL     1      -0.280  12.509  19.128  0.00  0.00    +0.000 A 
BRANCH   7  16
ATOM     13  C   UNL     1       2.087   7.796  19.096  0.00  0.00    +0.000 A 
ATOM     14  C   UNL     1       1.563   8.481  20.186  0.00  0.00    +0.000 A 
ATOM     15  C   UNL     1       1.224   9.838  20.079  0.00  0.00    +0.000 A 
ATOM     16  C   UNL     1       1.440  10.574  18.894  0.00  0.00    +0.000 A 
ATOM     17  C   UNL     1       2.070   9.877  17.853  0.00  0.00    +0.000 A 
ATOM     18  C   UNL     1       2.359   8.503  17.932  0.00  0.00    +0.000 A 
BRANCH  13  20
ATOM     19  C   UNL     1       1.817   5.905  20.487  0.00  0.00    +0.000 C 
ATOM     20  O   UNL     1       2.350   6.469  19.292  0.00  0.00    +0.000 OA
ENDBRANCH  13  20
ENDBRANCH   7  16
ENDBRANCH   1  12
BRANCH   4  21
ATOM     21  C   UNL     1      -5.852  11.857  18.264  0.00  0.00    +0.000 C 
ATOM     22  C   UNL     1      -7.289  11.678  18.820  0.00  0.00    +0.000 C 
ATOM     23  C   UNL     1      -7.910  12.991  19.311  0.00  0.00    +0.000 C 
ATOM     24  C   UNL     1      -7.874  14.095  18.262  0.00  0.00    +0.000 C 
ATOM     25  C   UNL     1      -6.544  14.209  17.518  0.00  0.00    +0.000 C 
ATOM     26  C   UNL     1      -5.924  12.870  17.120  0.00  0.00    +0.000 C 
ENDBRANCH   4  21
BRANCH   2  27
ATOM     27  C   UNL     1      -2.493  13.516  21.089  0.00  0.00    +0.000 C 
ATOM     28  N   UNL     1      -2.339  14.556  21.579  0.00  0.00    +0.000 NA
ENDBRANCH   2  27
BRANCH   6  29
ATOM     29  C   UNL     1      -2.316  11.192  17.174  0.00  0.00    +0.000 C 
BRANCH  29  30
ATOM     30  O   UNL     1      -1.497  10.072  16.826  0.00  0.00    +0.000 OA
ATOM     31  H   UNL     1      -1.990   9.506  16.208  0.00  0.00    +0.000 HD
ENDBRANCH  29  30
ENDBRANCH   6  29
TORSDOF 7
ENDMDL
MODEL 7
REMARK VINA RESULT:      -6.1      2.770      4.881
REMARK  Name = 
REMARK  8 active torsions:
REMARK  status: ('A' for Active; 'I' for Inactive)
REMARK    1  A    between atoms: C_1  and  O_2
REMARK    2  A    between atoms: O_2  and  C_3
REMARK    3  A    between atoms: C_6  and  C_7
REMARK    4  A    between atoms: C_12  and  C_13
REMARK    5  A    between atoms: C_14  and  C_15
REMARK    6  A    between atoms: C_18  and  C_20
REMARK    7  A    between atoms: C_26  and  C_27
REMARK    8  A    between atoms: C_27  and  O_28
REMARK                            x       y       z     vdW  Elec       q    Type
REMARK                         _______ _______ _______ _____ _____    ______ ____
ROOT
ATOM      1  C   UNL     1      -0.022  12.074  20.739  0.00  0.00    +0.000 C 
ATOM      2  C   UNL     1       0.313  13.580  20.802  0.00  0.00    +0.000 C 
ATOM      3  N   UNL     1      -0.634  13.666  21.975  0.00  0.00    +0.000 N 
ATOM      4  C   UNL     1      -0.407  14.720  22.851  0.00  0.00    +0.000 C 
ATOM      5  O   UNL     1       0.402  15.592  22.512  0.00  0.00    +0.000 OA
ATOM      6  C   UNL     1      -0.468  12.210  22.239  0.00  0.00    +0.000 C 
ENDROOT
BRANCH   1  12
ATOM      7  C   UNL     1      -0.867  10.299  18.838  0.00  0.00    +0.000 A 
ATOM      8  C   UNL     1      -1.855   9.953  17.875  0.00  0.00    +0.000 A 
ATOM      9  C   UNL     1      -2.961  10.757  17.604  0.00  0.00    +0.000 A 
ATOM     10  C   UNL     1      -3.154  11.911  18.333  0.00  0.00    +0.000 A 
ATOM     11  C   UNL     1      -2.244  12.244  19.333  0.00  0.00    +0.000 A 
ATOM     12  C   UNL     1      -1.065  11.497  19.609  0.00  0.00    +0.000 A 
BRANCH   7  16
ATOM     13  C   UNL     1       2.550   7.611  19.144  0.00  0.00    +0.000 A 
ATOM     14  C   UNL     1       1.749   7.876  20.249  0.00  0.00    +0.000 A 
ATOM     15  C   UNL     1       0.651   8.743  20.142  0.00  0.00    +0.000 A 
ATOM     16  C   UNL     1       0.340   9.414  18.941  0.00  0.00    +0.000 A 
ATOM     17  C   UNL     1       1.233   9.205  17.880  0.00  0.00    +0.000 A 
ATOM     18  C   UNL     1       2.301   8.294  17.961  0.00  0.00    +0.000 A 
BRANCH  13  20
ATOM     19  C   UNL     1       3.188   5.435  19.810  0.00  0.00    +0.000 C 
ATOM     20  O   UNL     1       3.572   6.726  19.344  0.00  0.00    +0.000 OA
ENDBRANCH  13  20
ENDBRANCH   7  16
ENDBRANCH   1  12
BRANCH   4  21
ATOM     21  C   UNL     1      -1.066  14.777  24.241  0.00  0.00    +0.000 C 
ATOM     22  C   UNL     1      -0.834  16.169  24.884  0.00  0.00    +0.000 C 
ATOM     23  C   UNL     1      -1.617  17.289  24.187  0.00  0.00    +0.000 C 
ATOM     24  C   UNL     1      -3.107  16.992  24.074  0.00  0.00    +0.000 C 
ATOM     25  C   UNL     1      -3.429  15.564  23.636  0.00  0.00    +0.000 C 
ATOM     26  C   UNL     1      -2.567  14.489  24.298  0.00  0.00    +0.000 C 
ENDBRANCH   4  21
BRANCH   2  27
ATOM     27  C   UNL     1      -0.012  14.437  19.682  0.00  0.00    +0.000 C 
ATOM     28  N   UNL     1      -0.263  15.120  18.779  0.00  0.00    +0.000 NA
ENDBRANCH   2  27
BRANCH   6  29
ATOM     29  C   UNL     1      -1.704  11.429  22.655  0.00  0.00    +0.000 C 
BRANCH  29  30
ATOM     30  O   UNL     1      -1.295  10.270  23.386  0.00  0.00    +0.000 OA
ATOM     31  H   UNL     1      -1.261   9.512  22.778  0.00  0.00    +0.000 HD
ENDBRANCH  29  30
ENDBRANCH   6  29
TORSDOF 7
ENDMDL
MODEL 8
REMARK VINA RESULT:      -6.1      1.466      1.914
REMARK  Name = 
REMARK  8 active torsions:
REMARK  status: ('A' for Active; 'I' for Inactive)
REMARK    1  A    between atoms: C_1  and  O_2
REMARK    2  A    between atoms: O_2  and  C_3
REMARK    3  A    between atoms: C_6  and  C_7
REMARK    4  A    between atoms: C_12  and  C_13
REMARK    5  A    between atoms: C_14  and  C_15
REMARK    6  A    between atoms: C_18  and  C_20
REMARK    7  A    between atoms: C_26  and  C_27
REMARK    8  A    between atoms: C_27  and  O_28
REMARK                            x       y       z     vdW  Elec       q    Type
REMARK                         _______ _______ _______ _____ _____    ______ ____
ROOT
ATOM      1  C   UNL     1      -1.146  11.349  20.178  0.00  0.00    +0.000 C 
ATOM      2  C   UNL     1      -1.659  11.807  21.561  0.00  0.00    +0.000 C 
ATOM      3  N   UNL     1      -2.816  12.451  20.836  0.00  0.00    +0.000 N 
ATOM      4  C   UNL     1      -3.968  12.634  21.591  0.00  0.00    +0.000 C 
ATOM      5  O   UNL     1      -3.899  12.443  22.811  0.00  0.00    +0.000 OA
ATOM      6  C   UNL     1      -2.622  11.538  19.676  0.00  0.00    +0.000 C 
ENDROOT
BRANCH   1  12
ATOM      7  C   UNL     1       1.277  11.517  18.922  0.00  0.00    +0.000 A 
ATOM      8  C   UNL     1       2.270  12.352  18.339  0.00  0.00    +0.000 A 
ATOM      9  C   UNL     1       2.171  13.741  18.315  0.00  0.00    +0.000 A 
ATOM     10  C   UNL     1       1.041  14.349  18.819  0.00  0.00    +0.000 A 
ATOM     11  C   UNL     1       0.016  13.558  19.333  0.00  0.00    +0.000 A 
ATOM     12  C   UNL     1       0.091  12.141  19.443  0.00  0.00    +0.000 A 
BRANCH   7  16
ATOM     13  C   UNL     1       2.260   7.276  19.134  0.00  0.00    +0.000 A 
ATOM     14  C   UNL     1       2.348   7.971  17.932  0.00  0.00    +0.000 A 
ATOM     15  C   UNL     1       2.029   9.335  17.873  0.00  0.00    +0.000 A 
ATOM     16  C   UNL     1       1.566  10.047  19.000  0.00  0.00    +0.000 A 
ATOM     17  C   UNL     1       1.387   9.289  20.166  0.00  0.00    +0.000 A 
ATOM     18  C   UNL     1       1.758   7.935  20.249  0.00  0.00    +0.000 A 
BRANCH  13  20
ATOM     19  C   UNL     1       2.242   5.178  20.220  0.00  0.00    +0.000 C 
ATOM     20  O   UNL     1       2.626   5.960  19.093  0.00  0.00    +0.000 OA
ENDBRANCH  13  20
ENDBRANCH   7  16
ENDBRANCH   1  12
BRANCH   4  21
ATOM     21  C   UNL     1      -5.319  12.983  20.940  0.00  0.00    +0.000 C 
ATOM     22  C   UNL     1      -6.453  12.916  21.997  0.00  0.00    +0.000 C 
ATOM     23  C   UNL     1      -6.373  14.045  23.032  0.00  0.00    +0.000 C 
ATOM     24  C   UNL     1      -6.310  15.429  22.400  0.00  0.00    +0.000 C 
ATOM     25  C   UNL     1      -5.356  15.531  21.211  0.00  0.00    +0.000 C 
ATOM     26  C   UNL     1      -5.414  14.344  20.249  0.00  0.00    +0.000 C 
ENDBRANCH   4  21
BRANCH   2  27
ATOM     27  C   UNL     1      -0.858  12.705  22.365  0.00  0.00    +0.000 C 
ATOM     28  N   UNL     1      -0.206  13.418  23.007  0.00  0.00    +0.000 NA
ENDBRANCH   2  27
BRANCH   6  29
ATOM     29  C   UNL     1      -2.799  12.125  18.285  0.00  0.00    +0.000 C 
BRANCH  29  30
ATOM     30  O   UNL     1      -4.157  11.941  17.875  0.00  0.00    +0.000 OA
ATOM     31  H   UNL     1      -4.390  11.003  17.978  0.00  0.00    +0.000 HD
ENDBRANCH  29  30
ENDBRANCH   6  29
TORSDOF 7
ENDMDL
MODEL 9
REMARK VINA RESULT:      -6.1      3.143      5.554
REMARK  Name = 
REMARK  8 active torsions:
REMARK  status: ('A' for Active; 'I' for Inactive)
REMARK    1  A    between atoms: C_1  and  O_2
REMARK    2  A    between atoms: O_2  and  C_3
REMARK    3  A    between atoms: C_6  and  C_7
REMARK    4  A    between atoms: C_12  and  C_13
REMARK    5  A    between atoms: C_14  and  C_15
REMARK    6  A    between atoms: C_18  and  C_20
REMARK    7  A    between atoms: C_26  and  C_27
REMARK    8  A    between atoms: C_27  and  O_28
REMARK                            x       y       z     vdW  Elec       q    Type
REMARK                         _______ _______ _______ _____ _____    ______ ____
ROOT
ATOM      1  C   UNL     1       0.922  11.760  19.591  0.00  0.00    +0.000 C 
ATOM      2  C   UNL     1      -0.086  12.641  18.821  0.00  0.00    +0.000 C 
ATOM      3  N   UNL     1       0.516  13.826  19.537  0.00  0.00    +0.000 N 
ATOM      4  C   UNL     1       0.370  15.050  18.896  0.00  0.00    +0.000 C 
ATOM      5  O   UNL     1      -0.385  15.107  17.918  0.00  0.00    +0.000 OA
ATOM      6  C   UNL     1       1.774  13.066  19.775  0.00  0.00    +0.000 C 
ENDROOT
BRANCH   1  12
ATOM      7  C   UNL     1       0.704   9.488  21.096  0.00  0.00    +0.000 A 
ATOM      8  C   UNL     1       0.190   8.873  22.272  0.00  0.00    +0.000 A 
ATOM      9  C   UNL     1      -0.605   9.551  23.194  0.00  0.00    +0.000 A 
ATOM     10  C   UNL     1      -0.868  10.892  23.007  0.00  0.00    +0.000 A 
ATOM     11  C   UNL     1      -0.322  11.543  21.903  0.00  0.00    +0.000 A 
ATOM     12  C   UNL     1       0.442  10.888  20.897  0.00  0.00    +0.000 A 
BRANCH   7  16
ATOM     13  C   UNL     1       2.714   6.860  18.260  0.00  0.00    +0.000 A 
ATOM     14  C   UNL     1       2.548   6.483  19.588  0.00  0.00    +0.000 A 
ATOM     15  C   UNL     1       1.900   7.336  20.495  0.00  0.00    +0.000 A 
ATOM     16  C   UNL     1       1.436   8.614  20.121  0.00  0.00    +0.000 A 
ATOM     17  C   UNL     1       1.718   9.002  18.803  0.00  0.00    +0.000 A 
ATOM     18  C   UNL     1       2.314   8.132  17.873  0.00  0.00    +0.000 A 
BRANCH  13  20
ATOM     19  C   UNL     1       3.287   4.595  17.906  0.00  0.00    +0.000 C 
ATOM     20  O   UNL     1       3.326   5.944  17.451  0.00  0.00    +0.000 OA
ENDBRANCH  13  20
ENDBRANCH   7  16
ENDBRANCH   1  12
BRANCH   4  21
ATOM     21  C   UNL     1       1.178  16.290  19.320  0.00  0.00    +0.000 C 
ATOM     22  C   UNL     1       1.304  17.277  18.129  0.00  0.00    +0.000 C 
ATOM     23  C   UNL     1      -0.025  17.952  17.767  0.00  0.00    +0.000 C 
ATOM     24  C   UNL     1      -0.691  18.631  18.957  0.00  0.00    +0.000 C 
ATOM     25  C   UNL     1      -0.679  17.799  20.239  0.00  0.00    +0.000 C 
ATOM     26  C   UNL     1       0.641  17.079  20.515  0.00  0.00    +0.000 C 
ENDBRANCH   4  21
BRANCH   2  27
ATOM     27  C   UNL     1      -1.506  12.455  19.024  0.00  0.00    +0.000 C 
ATOM     28  N   UNL     1      -2.643  12.297  19.197  0.00  0.00    +0.000 NA
ENDBRANCH   2  27
BRANCH   6  29
ATOM     29  C   UNL     1       2.459  13.249  21.121  0.00  0.00    +0.000 C 
BRANCH  29  30
ATOM     30  O   UNL     1       3.619  14.067  20.942  0.00  0.00    +0.000 OA
ATOM     31  H   UNL     1       4.396  13.581  21.267  0.00  0.00    +0.000 HD
ENDBRANCH  29  30
ENDBRANCH   6  29
TORSDOF 7
ENDMDL
