MODEL 1
REMARK VINA RESULT:      -8.2      0.000      0.000
REMARK  Name = 
REMARK  6 active torsions:
REMARK  status: ('A' for Active; 'I' for Inactive)
REMARK    1  A    between atoms: C_1  and  C_2
REMARK    2  A    between atoms: C_2  and  N_3
REMARK    3  A    between atoms: C_4  and  C_5
REMARK    4  A    between atoms: N_10  and  C_11
REMARK    5  A    between atoms: C_11  and  C_12
REMARK    6  A    between atoms: C_17  and  C_18
REMARK                            x       y       z     vdW  Elec       q    Type
REMARK                         _______ _______ _______ _____ _____    ______ ____
ROOT
ATOM      1  C   UNL     1       2.397   7.487  17.783  0.00  0.00    +0.000 C 
ATOM      2  C   UNL     1       2.152   8.347  18.785  0.00  0.00    +0.000 C 
ATOM      3  S   UNL     1       1.745   7.986  20.418  0.00  0.00    +0.000 S 
ATOM      4  C   UNL     1       1.139   9.606  20.697  0.00  0.00    +0.000 C 
ATOM      5  O   UNL     1       0.432   9.889  21.649  0.00  0.00    +0.000 OA
ATOM      6  N   UNL     1       1.495  10.423  19.656  0.00  0.00    +0.000 N 
ATOM      7  C   UNL     1       2.069   9.815  18.566  0.00  0.00    +0.000 C 
ATOM      8  O   UNL     1       2.413  10.385  17.540  0.00  0.00    +0.000 OA
ENDROOT
BRANCH   1  10
ATOM      9  N   UNL     1       3.529   5.321  17.779  0.00  0.00    +0.000 N 
ATOM     10  C   UNL     1       2.390   6.084  17.974  0.00  0.00    +0.000 A 
ATOM     11  N   UNL     1       1.380   5.325  18.346  0.00  0.00    +0.000 NA
ATOM     12  C   UNL     1       1.851   4.037  18.343  0.00  0.00    +0.000 A 
ATOM     13  C   UNL     1       1.181   2.843  18.645  0.00  0.00    +0.000 A 
ATOM     14  C   UNL     1       1.883   1.634  18.560  0.00  0.00    +0.000 A 
ATOM     15  C   UNL     1       3.226   1.616  18.187  0.00  0.00    +0.000 A 
ATOM     16  C   UNL     1       3.914   2.799  17.890  0.00  0.00    +0.000 A 
ATOM     17  C   UNL     1       3.194   3.999  17.979  0.00  0.00    +0.000 A 
BRANCH   9  19
ATOM     18  C   UNL     1       5.229   5.853  16.028  0.00  0.00    +0.000 C 
ATOM     19  C   UNL     1       4.877   5.793  17.505  0.00  0.00    +0.000 C 
ENDBRANCH   9  19
ENDBRANCH   1  10
BRANCH   6  20
ATOM     20  C   UNL     1       0.970  11.772  19.579  0.00  0.00    +0.000 C 
BRANCH  20  21
ATOM     21  C   UNL     1      -0.463  11.934  19.083  0.00  0.00    +0.000 C 
ATOM     22  O   UNL     1      -1.275  12.475  19.834  0.00  0.00    +0.000 OA
ATOM     23  N   UNL     1      -0.772  11.270  17.913  0.00  0.00    +0.000 N 
ATOM     24  C   UNL     1      -2.079  11.227  17.493  0.00  0.00    +0.000 A 
ATOM     25  N   UNL     1      -3.083  11.946  17.918  0.00  0.00    +0.000 NA
ATOM     26  C   UNL     1      -4.269  11.497  17.366  0.00  0.00    +0.000 A 
ATOM     27  C   UNL     1      -4.118  10.441  16.486  0.00  0.00    +0.000 A 
ATOM     28  S   UNL     1      -2.445  10.054  16.313  0.00  0.00    +0.000 S 
ATOM     29  H   UNL     1      -0.130  10.615  17.487  0.00  0.00    +0.000 HD
BRANCH  26  30
ATOM     30  C   UNL     1      -5.537  12.117  17.738  0.00  0.00    +0.000 A 
ATOM     31  C   UNL     1      -6.187  13.036  16.905  0.00  0.00    +0.000 A 
ATOM     32  C   UNL     1      -7.365  13.663  17.320  0.00  0.00    +0.000 A 
ATOM     33  C   UNL     1      -7.914  13.376  18.569  0.00  0.00    +0.000 A 
ATOM     34  C   UNL     1      -7.292  12.447  19.400  0.00  0.00    +0.000 A 
ATOM     35  C   UNL     1      -6.111  11.823  18.987  0.00  0.00    +0.000 A 
ENDBRANCH  26  30
ENDBRANCH  20  21
ENDBRANCH   6  20
TORSDOF 5
ENDMDL
MODEL 2
REMARK VINA RESULT:      -8.1      3.447     10.372
REMARK  Name = 
REMARK  6 active torsions:
REMARK  status: ('A' for Active; 'I' for Inactive)
REMARK    1  A    between atoms: C_1  and  C_2
REMARK    2  A    between atoms: C_2  and  N_3
REMARK    3  A    between atoms: C_4  and  C_5
REMARK    4  A    between atoms: N_10  and  C_11
REMARK    5  A    between atoms: C_11  and  C_12
REMARK    6  A    between atoms: C_17  and  C_18
REMARK                            x       y       z     vdW  Elec       q    Type
REMARK                         _______ _______ _______ _____ _____    ______ ____
ROOT
ATOM      1  C   UNL     1      -1.715  13.200  22.411  0.00  0.00    +0.000 C 
ATOM      2  C   UNL     1      -1.351  12.945  21.144  0.00  0.00    +0.000 C 
ATOM      3  S   UNL     1      -2.368  12.639  19.789  0.00  0.00    +0.000 S 
ATOM      4  C   UNL     1      -1.049  11.940  18.871  0.00  0.00    +0.000 C 
ATOM      5  O   UNL     1      -1.229  11.261  17.875  0.00  0.00    +0.000 OA
ATOM      6  N   UNL     1       0.142  12.193  19.500  0.00  0.00    +0.000 N 
ATOM      7  C   UNL     1       0.070  12.756  20.751  0.00  0.00    +0.000 C 
ATOM      8  O   UNL     1       1.029  13.014  21.464  0.00  0.00    +0.000 OA
ENDROOT
BRANCH   1  10
ATOM      9  N   UNL     1      -3.752  14.500  22.771  0.00  0.00    +0.000 N 
ATOM     10  C   UNL     1      -3.072  13.294  22.802  0.00  0.00    +0.000 A 
ATOM     11  N   UNL     1      -3.860  12.328  23.226  0.00  0.00    +0.000 NA
ATOM     12  C   UNL     1      -5.060  12.919  23.525  0.00  0.00    +0.000 A 
ATOM     13  C   UNL     1      -6.235  12.342  24.029  0.00  0.00    +0.000 A 
ATOM     14  C   UNL     1      -7.343  13.166  24.267  0.00  0.00    +0.000 A 
ATOM     15  C   UNL     1      -7.282  14.534  24.004  0.00  0.00    +0.000 A 
ATOM     16  C   UNL     1      -6.120  15.125  23.494  0.00  0.00    +0.000 A 
ATOM     17  C   UNL     1      -5.022  14.285  23.263  0.00  0.00    +0.000 A 
BRANCH   9  19
ATOM     18  C   UNL     1      -3.819  16.096  20.850  0.00  0.00    +0.000 C 
ATOM     19  C   UNL     1      -3.285  15.769  22.235  0.00  0.00    +0.000 C 
ENDBRANCH   9  19
ENDBRANCH   1  10
BRANCH   6  20
ATOM     20  C   UNL     1       1.363  11.577  19.017  0.00  0.00    +0.000 C 
BRANCH  20  21
ATOM     21  C   UNL     1       1.443  10.056  19.072  0.00  0.00    +0.000 C 
ATOM     22  O   UNL     1       0.971   9.489  20.059  0.00  0.00    +0.000 OA
ATOM     23  N   UNL     1       2.224   9.459  18.103  0.00  0.00    +0.000 N 
ATOM     24  C   UNL     1       2.482   8.113  18.186  0.00  0.00    +0.000 A 
ATOM     25  N   UNL     1       1.886   7.226  18.935  0.00  0.00    +0.000 NA
ATOM     26  C   UNL     1       2.537   6.008  18.857  0.00  0.00    +0.000 A 
ATOM     27  C   UNL     1       3.620   6.001  17.997  0.00  0.00    +0.000 A 
ATOM     28  S   UNL     1       3.775   7.541  17.235  0.00  0.00    +0.000 S 
ATOM     29  H   UNL     1       2.809  10.003  17.483  0.00  0.00    +0.000 HD
BRANCH  26  30
ATOM     30  C   UNL     1       2.079   4.874  19.654  0.00  0.00    +0.000 A 
ATOM     31  C   UNL     1       2.471   4.696  20.986  0.00  0.00    +0.000 A 
ATOM     32  C   UNL     1       2.070   3.564  21.701  0.00  0.00    +0.000 A 
ATOM     33  C   UNL     1       1.265   2.599  21.098  0.00  0.00    +0.000 A 
ATOM     34  C   UNL     1       0.846   2.773  19.781  0.00  0.00    +0.000 A 
ATOM     35  C   UNL     1       1.252   3.902  19.065  0.00  0.00    +0.000 A 
ENDBRANCH  26  30
ENDBRANCH  20  21
ENDBRANCH   6  20
TORSDOF 5
ENDMDL
MODEL 3
REMARK VINA RESULT:      -8.1      4.282     11.183
REMARK  Name = 
REMARK  6 active torsions:
REMARK  status: ('A' for Active; 'I' for Inactive)
REMARK    1  A    between atoms: C_1  and  C_2
REMARK    2  A    between atoms: C_2  and  N_3
REMARK    3  A    between atoms: C_4  and  C_5
REMARK    4  A    between atoms: N_10  and  C_11
REMARK    5  A    between atoms: C_11  and  C_12
REMARK    6  A    between atoms: C_17  and  C_18
REMARK                            x       y       z     vdW  Elec       q    Type
REMARK                         _______ _______ _______ _____ _____    ______ ____
ROOT
ATOM      1  C   UNL     1      -1.069  12.357  22.813  0.00  0.00    +0.000 C 
ATOM      2  C   UNL     1      -0.415  12.330  21.641  0.00  0.00    +0.000 C 
ATOM      3  S   UNL     1       0.148  13.664  20.709  0.00  0.00    +0.000 S 
ATOM      4  C   UNL     1       0.316  12.676  19.272  0.00  0.00    +0.000 C 
ATOM      5  O   UNL     1       0.431  13.154  18.156  0.00  0.00    +0.000 OA
ATOM      6  N   UNL     1       0.196  11.351  19.600  0.00  0.00    +0.000 N 
ATOM      7  C   UNL     1      -0.192  11.068  20.887  0.00  0.00    +0.000 C 
ATOM      8  O   UNL     1      -0.381   9.947  21.336  0.00  0.00    +0.000 OA
ENDROOT
BRANCH   1  10
ATOM      9  N   UNL     1      -2.661  13.973  23.721  0.00  0.00    +0.000 N 
ATOM     10  C   UNL     1      -1.358  13.567  23.489  0.00  0.00    +0.000 A 
ATOM     11  N   UNL     1      -0.505  14.442  23.979  0.00  0.00    +0.000 NA
ATOM     12  C   UNL     1      -1.261  15.463  24.494  0.00  0.00    +0.000 A 
ATOM     13  C   UNL     1      -0.848  16.650  25.116  0.00  0.00    +0.000 A 
ATOM     14  C   UNL     1      -1.822  17.557  25.555  0.00  0.00    +0.000 A 
ATOM     15  C   UNL     1      -3.178  17.283  25.381  0.00  0.00    +0.000 A 
ATOM     16  C   UNL     1      -3.609  16.100  24.769  0.00  0.00    +0.000 A 
ATOM     17  C   UNL     1      -2.619  15.206  24.336  0.00  0.00    +0.000 A 
BRANCH   9  19
ATOM     18  C   UNL     1      -4.424  12.481  24.675  0.00  0.00    +0.000 C 
ATOM     19  C   UNL     1      -3.883  13.225  23.465  0.00  0.00    +0.000 C 
ENDBRANCH   9  19
ENDBRANCH   1  10
BRANCH   6  20
ATOM     20  C   UNL     1       0.137  10.347  18.555  0.00  0.00    +0.000 C 
BRANCH  20  21
ATOM     21  C   UNL     1       1.281   9.341  18.493  0.00  0.00    +0.000 C 
ATOM     22  O   UNL     1       1.958   9.301  17.465  0.00  0.00    +0.000 OA
ATOM     23  N   UNL     1       1.327   8.419  19.520  0.00  0.00    +0.000 N 
ATOM     24  C   UNL     1       2.222   7.380  19.446  0.00  0.00    +0.000 A 
ATOM     25  N   UNL     1       3.242   7.254  18.640  0.00  0.00    +0.000 NA
ATOM     26  C   UNL     1       3.803   5.996  18.762  0.00  0.00    +0.000 A 
ATOM     27  C   UNL     1       3.194   5.194  19.711  0.00  0.00    +0.000 A 
ATOM     28  S   UNL     1       1.933   6.071  20.498  0.00  0.00    +0.000 S 
ATOM     29  H   UNL     1       0.577   8.334  20.192  0.00  0.00    +0.000 HD
BRANCH  26  30
ATOM     30  C   UNL     1       4.929   5.605  17.918  0.00  0.00    +0.000 A 
ATOM     31  C   UNL     1       6.116   5.092  18.454  0.00  0.00    +0.000 A 
ATOM     32  C   UNL     1       7.200   4.792  17.624  0.00  0.00    +0.000 A 
ATOM     33  C   UNL     1       7.111   4.993  16.248  0.00  0.00    +0.000 A 
ATOM     34  C   UNL     1       5.928   5.481  15.696  0.00  0.00    +0.000 A 
ATOM     35  C   UNL     1       4.846   5.786  16.527  0.00  0.00    +0.000 A 
ENDBRANCH  26  30
ENDBRANCH  20  21
ENDBRANCH   6  20
TORSDOF 5
ENDMDL
MODEL 4
REMARK VINA RESULT:      -8.1      2.171      3.415
REMARK  Name = 
REMARK  6 active torsions:
REMARK  status: ('A' for Active; 'I' for Inactive)
REMARK    1  A    between atoms: C_1  and  C_2
REMARK    2  A    between atoms: C_2  and  N_3
REMARK    3  A    between atoms: C_4  and  C_5
REMARK    4  A    between atoms: N_10  and  C_11
REMARK    5  A    between atoms: C_11  and  C_12
REMARK    6  A    between atoms: C_17  and  C_18
REMARK                            x       y       z     vdW  Elec       q    Type
REMARK                         _______ _______ _______ _____ _____    ______ ____
ROOT
ATOM      1  C   UNL     1       2.446   7.086  19.501  0.00  0.00    +0.000 C 
ATOM      2  C   UNL     1       1.858   8.287  19.374  0.00  0.00    +0.000 C 
ATOM      3  S   UNL     1       1.914   9.359  18.029  0.00  0.00    +0.000 S 
ATOM      4  C   UNL     1       1.373  10.714  18.999  0.00  0.00    +0.000 C 
ATOM      5  O   UNL     1       1.485  11.871  18.632  0.00  0.00    +0.000 OA
ATOM      6  N   UNL     1       0.928  10.268  20.216  0.00  0.00    +0.000 N 
ATOM      7  C   UNL     1       1.143   8.941  20.502  0.00  0.00    +0.000 C 
ATOM      8  O   UNL     1       0.843   8.388  21.550  0.00  0.00    +0.000 OA
ENDROOT
BRANCH   1  10
ATOM      9  N   UNL     1       3.315   5.127  18.328  0.00  0.00    +0.000 N 
ATOM     10  C   UNL     1       3.200   6.501  18.456  0.00  0.00    +0.000 A 
ATOM     11  N   UNL     1       3.866   7.114  17.499  0.00  0.00    +0.000 NA
ATOM     12  C   UNL     1       4.469   6.127  16.763  0.00  0.00    +0.000 A 
ATOM     13  C   UNL     1       5.305   6.237  15.643  0.00  0.00    +0.000 A 
ATOM     14  C   UNL     1       5.814   5.068  15.063  0.00  0.00    +0.000 A 
ATOM     15  C   UNL     1       5.492   3.816  15.585  0.00  0.00    +0.000 A 
ATOM     16  C   UNL     1       4.652   3.686  16.697  0.00  0.00    +0.000 A 
ATOM     17  C   UNL     1       4.153   4.868  17.265  0.00  0.00    +0.000 A 
BRANCH   9  19
ATOM     18  C   UNL     1       1.390   3.536  18.402  0.00  0.00    +0.000 C 
ATOM     19  C   UNL     1       2.619   4.103  19.092  0.00  0.00    +0.000 C 
ENDBRANCH   9  19
ENDBRANCH   1  10
BRANCH   6  20
ATOM     20  C   UNL     1       0.581  11.218  21.255  0.00  0.00    +0.000 C 
BRANCH  20  21
ATOM     21  C   UNL     1      -0.837  11.778  21.240  0.00  0.00    +0.000 C 
ATOM     22  O   UNL     1      -1.388  11.983  22.322  0.00  0.00    +0.000 OA
ATOM     23  N   UNL     1      -1.457  11.811  20.006  0.00  0.00    +0.000 N 
ATOM     24  C   UNL     1      -2.788  12.142  19.935  0.00  0.00    +0.000 A 
ATOM     25  N   UNL     1      -3.532  12.683  20.862  0.00  0.00    +0.000 NA
ATOM     26  C   UNL     1      -4.856  12.711  20.465  0.00  0.00    +0.000 A 
ATOM     27  C   UNL     1      -5.077  12.206  19.197  0.00  0.00    +0.000 A 
ATOM     28  S   UNL     1      -3.578  11.747  18.478  0.00  0.00    +0.000 S 
ATOM     29  H   UNL     1      -1.047  11.371  19.194  0.00  0.00    +0.000 HD
BRANCH  26  30
ATOM     30  C   UNL     1      -5.885  13.226  21.365  0.00  0.00    +0.000 A 
ATOM     31  C   UNL     1      -6.982  13.960  20.897  0.00  0.00    +0.000 A 
ATOM     32  C   UNL     1      -7.913  14.497  21.790  0.00  0.00    +0.000 A 
ATOM     33  C   UNL     1      -7.765  14.301  23.162  0.00  0.00    +0.000 A 
ATOM     34  C   UNL     1      -6.692  13.554  23.643  0.00  0.00    +0.000 A 
ATOM     35  C   UNL     1      -5.759  13.021  22.749  0.00  0.00    +0.000 A 
ENDBRANCH  26  30
ENDBRANCH  20  21
ENDBRANCH   6  20
TORSDOF 5
ENDMDL
MODEL 5
REMARK VINA RESULT:      -8.0      2.506      3.779
REMARK  Name = 
REMARK  6 active torsions:
REMARK  status: ('A' for Active; 'I' for Inactive)
REMARK    1  A    between atoms: C_1  and  C_2
REMARK    2  A    between atoms: C_2  and  N_3
REMARK    3  A    between atoms: C_4  and  C_5
REMARK    4  A    between atoms: N_10  and  C_11
REMARK    5  A    between atoms: C_11  and  C_12
REMARK    6  A    between atoms: C_17  and  C_18
REMARK                            x       y       z     vdW  Elec       q    Type
REMARK                         _______ _______ _______ _____ _____    ______ ____
ROOT
ATOM      1  C   UNL     1       2.492   6.963  19.346  0.00  0.00    +0.000 C 
ATOM      2  C   UNL     1       1.907   8.165  19.224  0.00  0.00    +0.000 C 
ATOM      3  S   UNL     1       2.030   9.277  17.916  0.00  0.00    +0.000 S 
ATOM      4  C   UNL     1       1.436  10.602  18.896  0.00  0.00    +0.000 C 
ATOM      5  O   UNL     1       1.563  11.770  18.570  0.00  0.00    +0.000 OA
ATOM      6  N   UNL     1       0.928  10.119  20.074  0.00  0.00    +0.000 N 
ATOM      7  C   UNL     1       1.133   8.785  20.331  0.00  0.00    +0.000 C 
ATOM      8  O   UNL     1       0.780   8.201  21.345  0.00  0.00    +0.000 OA
ENDROOT
BRANCH   1  10
ATOM      9  N   UNL     1       3.419   5.040  18.156  0.00  0.00    +0.000 N 
ATOM     10  C   UNL     1       3.301   6.410  18.325  0.00  0.00    +0.000 A 
ATOM     11  N   UNL     1       4.021   7.052  17.429  0.00  0.00    +0.000 NA
ATOM     12  C   UNL     1       4.662   6.088  16.693  0.00  0.00    +0.000 A 
ATOM     13  C   UNL     1       5.559   6.232  15.626  0.00  0.00    +0.000 A 
ATOM     14  C   UNL     1       6.097   5.081  15.035  0.00  0.00    +0.000 A 
ATOM     15  C   UNL     1       5.742   3.814  15.496  0.00  0.00    +0.000 A 
ATOM     16  C   UNL     1       4.841   3.650  16.554  0.00  0.00    +0.000 A 
ATOM     17  C   UNL     1       4.315   4.814  17.134  0.00  0.00    +0.000 A 
BRANCH   9  19
ATOM     18  C   UNL     1       1.423   3.539  18.122  0.00  0.00    +0.000 C 
ATOM     19  C   UNL     1       2.679   3.994  18.846  0.00  0.00    +0.000 C 
ENDBRANCH   9  19
ENDBRANCH   1  10
BRANCH   6  20
ATOM     20  C   UNL     1       0.525  11.038  21.121  0.00  0.00    +0.000 C 
BRANCH  20  21
ATOM     21  C   UNL     1      -0.929  11.495  21.122  0.00  0.00    +0.000 C 
ATOM     22  O   UNL     1      -1.528  11.516  20.045  0.00  0.00    +0.000 OA
ATOM     23  N   UNL     1      -1.386  12.044  22.303  0.00  0.00    +0.000 N 
ATOM     24  C   UNL     1      -2.627  12.633  22.332  0.00  0.00    +0.000 A 
ATOM     25  N   UNL     1      -3.580  12.541  21.445  0.00  0.00    +0.000 NA
ATOM     26  C   UNL     1      -4.614  13.406  21.752  0.00  0.00    +0.000 A 
ATOM     27  C   UNL     1      -4.422  14.124  22.918  0.00  0.00    +0.000 A 
ATOM     28  S   UNL     1      -2.939  13.650  23.663  0.00  0.00    +0.000 S 
ATOM     29  H   UNL     1      -0.761  12.250  23.071  0.00  0.00    +0.000 HD
BRANCH  26  30
ATOM     30  C   UNL     1      -5.772  13.516  20.869  0.00  0.00    +0.000 A 
ATOM     31  C   UNL     1      -6.487  12.392  20.438  0.00  0.00    +0.000 A 
ATOM     32  C   UNL     1      -7.548  12.526  19.539  0.00  0.00    +0.000 A 
ATOM     33  C   UNL     1      -7.914  13.784  19.063  0.00  0.00    +0.000 A 
ATOM     34  C   UNL     1      -7.227  14.915  19.499  0.00  0.00    +0.000 A 
ATOM     35  C   UNL     1      -6.163  14.780  20.395  0.00  0.00    +0.000 A 
ENDBRANCH  26  30
ENDBRANCH  20  21
ENDBRANCH   6  20
TORSDOF 5
ENDMDL
MODEL 6
REMARK VINA RESULT:      -8.0      1.750      3.153
REMARK  Name = 
REMARK  6 active torsions:
REMARK  status: ('A' for Active; 'I' for Inactive)
REMARK    1  A    between atoms: C_1  and  C_2
REMARK    2  A    between atoms: C_2  and  N_3
REMARK    3  A    between atoms: C_4  and  C_5
REMARK    4  A    between atoms: N_10  and  C_11
REMARK    5  A    between atoms: C_11  and  C_12
REMARK    6  A    between atoms: C_17  and  C_18
REMARK                            x       y       z     vdW  Elec       q    Type
REMARK                         _______ _______ _______ _____ _____    ______ ____
ROOT
ATOM      1  C   UNL     1       2.720   6.658  19.404  0.00  0.00    +0.000 C 
ATOM      2  C   UNL     1       2.123   7.847  19.225  0.00  0.00    +0.000 C 
ATOM      3  S   UNL     1       2.307   8.941  17.909  0.00  0.00    +0.000 S 
ATOM      4  C   UNL     1       1.628  10.269  18.828  0.00  0.00    +0.000 C 
ATOM      5  O   UNL     1       1.754  11.434  18.491  0.00  0.00    +0.000 OA
ATOM      6  N   UNL     1       1.057   9.795  19.980  0.00  0.00    +0.000 N 
ATOM      7  C   UNL     1       1.269   8.469  20.272  0.00  0.00    +0.000 C 
ATOM      8  O   UNL     1       0.865   7.893  21.272  0.00  0.00    +0.000 OA
ENDROOT
BRANCH   1  10
ATOM      9  N   UNL     1       3.263   4.978  17.714  0.00  0.00    +0.000 N 
ATOM     10  C   UNL     1       3.602   6.105  18.444  0.00  0.00    +0.000 A 
ATOM     11  N   UNL     1       4.799   6.536  18.104  0.00  0.00    +0.000 NA
ATOM     12  C   UNL     1       5.274   5.647  17.174  0.00  0.00    +0.000 A 
ATOM     13  C   UNL     1       6.505   5.634  16.503  0.00  0.00    +0.000 A 
ATOM     14  C   UNL     1       6.766   4.601  15.593  0.00  0.00    +0.000 A 
ATOM     15  C   UNL     1       5.819   3.607  15.354  0.00  0.00    +0.000 A 
ATOM     16  C   UNL     1       4.581   3.609  16.009  0.00  0.00    +0.000 A 
ATOM     17  C   UNL     1       4.338   4.649  16.917  0.00  0.00    +0.000 A 
BRANCH   9  19
ATOM     18  C   UNL     1       1.965   2.978  18.460  0.00  0.00    +0.000 C 
ATOM     19  C   UNL     1       1.983   4.288  17.690  0.00  0.00    +0.000 C 
ENDBRANCH   9  19
ENDBRANCH   1  10
BRANCH   6  20
ATOM     20  C   UNL     1       0.572  10.721  20.985  0.00  0.00    +0.000 C 
BRANCH  20  21
ATOM     21  C   UNL     1      -0.797  11.348  20.750  0.00  0.00    +0.000 C 
ATOM     22  O   UNL     1      -1.448  11.700  21.734  0.00  0.00    +0.000 OA
ATOM     23  N   UNL     1      -1.275  11.278  19.456  0.00  0.00    +0.000 N 
ATOM     24  C   UNL     1      -2.567  11.667  19.199  0.00  0.00    +0.000 A 
ATOM     25  N   UNL     1      -3.371  12.345  19.973  0.00  0.00    +0.000 NA
ATOM     26  C   UNL     1      -4.640  12.398  19.425  0.00  0.00    +0.000 A 
ATOM     27  C   UNL     1      -4.753  11.768  18.199  0.00  0.00    +0.000 A 
ATOM     28  S   UNL     1      -3.217  11.156  17.709  0.00  0.00    +0.000 S 
ATOM     29  H   UNL     1      -0.809  10.731  18.746  0.00  0.00    +0.000 HD
BRANCH  26  30
ATOM     30  C   UNL     1      -5.726  13.061  20.143  0.00  0.00    +0.000 A 
ATOM     31  C   UNL     1      -5.844  12.995  21.536  0.00  0.00    +0.000 A 
ATOM     32  C   UNL     1      -6.932  13.584  22.186  0.00  0.00    +0.000 A 
ATOM     33  C   UNL     1      -7.913  14.252  21.455  0.00  0.00    +0.000 A 
ATOM     34  C   UNL     1      -7.798  14.346  20.069  0.00  0.00    +0.000 A 
ATOM     35  C   UNL     1      -6.712  13.753  19.419  0.00  0.00    +0.000 A 
ENDBRANCH  26  30
ENDBRANCH  20  21
ENDBRANCH   6  20
TORSDOF 5
ENDMDL
MODEL 7
REMARK VINA RESULT:      -7.9      5.968     10.766
REMARK  Name = 
REMARK  6 active torsions:
REMARK  status: ('A' for Active; 'I' for Inactive)
REMARK    1  A    between atoms: C_1  and  C_2
REMARK    2  A    between atoms: C_2  and  N_3
REMARK    3  A    between atoms: C_4  and  C_5
REMARK    4  A    between atoms: N_10  and  C_11
REMARK    5  A    between atoms: C_11  and  C_12
REMARK    6  A    between atoms: C_17  and  C_18
REMARK                            x       y       z     vdW  Elec       q    Type
REMARK                         _______ _______ _______ _____ _____    ______ ____
ROOT
ATOM      1  C   UNL     1       0.410  13.070  20.688  0.00  0.00    +0.000 C 
ATOM      2  C   UNL     1       0.882  14.285  20.363  0.00  0.00    +0.000 C 
ATOM      3  S   UNL     1       0.467  15.256  19.004  0.00  0.00    +0.000 S 
ATOM      4  C   UNL     1       1.897  16.250  19.191  0.00  0.00    +0.000 C 
ATOM      5  O   UNL     1       2.310  16.981  18.307  0.00  0.00    +0.000 OA
ATOM      6  N   UNL     1       2.492  15.990  20.398  0.00  0.00    +0.000 N 
ATOM      7  C   UNL     1       1.989  14.931  21.116  0.00  0.00    +0.000 C 
ATOM      8  O   UNL     1       2.421  14.540  22.191  0.00  0.00    +0.000 OA
ENDROOT
BRANCH   1  10
ATOM      9  N   UNL     1      -0.264  11.397  19.040  0.00  0.00    +0.000 N 
ATOM     10  C   UNL     1      -0.584  12.417  19.920  0.00  0.00    +0.000 A 
ATOM     11  N   UNL     1      -1.881  12.645  19.916  0.00  0.00    +0.000 NA
ATOM     12  C   UNL     1      -2.413  11.796  18.979  0.00  0.00    +0.000 A 
ATOM     13  C   UNL     1      -3.745  11.645  18.570  0.00  0.00    +0.000 A 
ATOM     14  C   UNL     1      -4.044  10.706  17.574  0.00  0.00    +0.000 A 
ATOM     15  C   UNL     1      -3.036   9.932  17.002  0.00  0.00    +0.000 A 
ATOM     16  C   UNL     1      -1.701  10.063  17.404  0.00  0.00    +0.000 A 
ATOM     17  C   UNL     1      -1.422  11.009  18.401  0.00  0.00    +0.000 A 
BRANCH   9  19
ATOM     18  C   UNL     1       1.159   9.408  19.547  0.00  0.00    +0.000 C 
ATOM     19  C   UNL     1       1.029  10.756  18.857  0.00  0.00    +0.000 C 
ENDBRANCH   9  19
ENDBRANCH   1  10
BRANCH   6  20
ATOM     20  C   UNL     1       3.783  16.570  20.712  0.00  0.00    +0.000 C 
BRANCH  20  21
ATOM     21  C   UNL     1       5.000  15.977  20.013  0.00  0.00    +0.000 C 
ATOM     22  O   UNL     1       5.252  14.787  20.203  0.00  0.00    +0.000 OA
ATOM     23  N   UNL     1       5.835  16.883  19.388  0.00  0.00    +0.000 N 
ATOM     24  C   UNL     1       7.036  16.448  18.884  0.00  0.00    +0.000 A 
ATOM     25  N   UNL     1       7.424  15.218  18.682  0.00  0.00    +0.000 NA
ATOM     26  C   UNL     1       8.757  15.184  18.315  0.00  0.00    +0.000 A 
ATOM     27  C   UNL     1       9.347  16.431  18.214  0.00  0.00    +0.000 A 
ATOM     28  S   UNL     1       8.179  17.661  18.529  0.00  0.00    +0.000 S 
ATOM     29  H   UNL     1       5.717  17.880  19.502  0.00  0.00    +0.000 HD
BRANCH  26  30
ATOM     30  C   UNL     1       9.428  13.907  18.088  0.00  0.00    +0.000 A 
ATOM     31  C   UNL     1       8.891  12.695  18.539  0.00  0.00    +0.000 A 
ATOM     32  C   UNL     1       9.591  11.498  18.365  0.00  0.00    +0.000 A 
ATOM     33  C   UNL     1      10.832  11.494  17.731  0.00  0.00    +0.000 A 
ATOM     34  C   UNL     1      11.369  12.688  17.254  0.00  0.00    +0.000 A 
ATOM     35  C   UNL     1      10.672  13.885  17.433  0.00  0.00    +0.000 A 
ENDBRANCH  26  30
ENDBRANCH  20  21
ENDBRANCH   6  20
TORSDOF 5
ENDMDL
MODEL 8
REMARK VINA RESULT:      -7.9      2.876     10.726
REMARK  Name = 
REMARK  6 active torsions:
REMARK  status: ('A' for Active; 'I' for Inactive)
REMARK    1  A    between atoms: C_1  and  C_2
REMARK    2  A    between atoms: C_2  and  N_3
REMARK    3  A    between atoms: C_4  and  C_5
REMARK    4  A    between atoms: N_10  and  C_11
REMARK    5  A    between atoms: C_11  and  C_12
REMARK    6  A    between atoms: C_17  and  C_18
REMARK                            x       y       z     vdW  Elec       q    Type
REMARK                         _______ _______ _______ _____ _____    ______ ____
ROOT
ATOM      1  C   UNL     1      -3.870  12.600  19.762  0.00  0.00    +0.000 C 
ATOM      2  C   UNL     1      -2.644  12.128  20.041  0.00  0.00    +0.000 C 
ATOM      3  S   UNL     1      -1.916  11.914  21.586  0.00  0.00    +0.000 S 
ATOM      4  C   UNL     1      -0.311  11.813  20.891  0.00  0.00    +0.000 C 
ATOM      5  O   UNL     1       0.703  11.936  21.556  0.00  0.00    +0.000 OA
ATOM      6  N   UNL     1      -0.399  11.684  19.529  0.00  0.00    +0.000 N 
ATOM      7  C   UNL     1      -1.649  11.832  18.977  0.00  0.00    +0.000 C 
ATOM      8  O   UNL     1      -1.902  11.784  17.782  0.00  0.00    +0.000 OA
ENDROOT
BRANCH   1  10
ATOM      9  N   UNL     1      -4.827  14.249  21.290  0.00  0.00    +0.000 N 
ATOM     10  C   UNL     1      -4.788  12.964  20.777  0.00  0.00    +0.000 A 
ATOM     11  N   UNL     1      -5.693  12.204  21.358  0.00  0.00    +0.000 NA
ATOM     12  C   UNL     1      -6.300  12.990  22.303  0.00  0.00    +0.000 A 
ATOM     13  C   UNL     1      -7.320  12.666  23.209  0.00  0.00    +0.000 A 
ATOM     14  C   UNL     1      -7.773  13.651  24.097  0.00  0.00    +0.000 A 
ATOM     15  C   UNL     1      -7.224  14.932  24.078  0.00  0.00    +0.000 A 
ATOM     16  C   UNL     1      -6.211  15.276  23.174  0.00  0.00    +0.000 A 
ATOM     17  C   UNL     1      -5.770  14.277  22.295  0.00  0.00    +0.000 A 
BRANCH   9  19
ATOM     18  C   UNL     1      -4.941  16.422  20.062  0.00  0.00    +0.000 C 
ATOM     19  C   UNL     1      -4.093  15.415  20.822  0.00  0.00    +0.000 C 
ENDBRANCH   9  19
ENDBRANCH   1  10
BRANCH   6  20
ATOM     20  C   UNL     1       0.799  11.745  18.714  0.00  0.00    +0.000 C 
BRANCH  20  21
ATOM     21  C   UNL     1       1.569  10.446  18.513  0.00  0.00    +0.000 C 
ATOM     22  O   UNL     1       2.036  10.218  17.396  0.00  0.00    +0.000 OA
ATOM     23  N   UNL     1       1.500   9.539  19.552  0.00  0.00    +0.000 N 
ATOM     24  C   UNL     1       2.024   8.282  19.379  0.00  0.00    +0.000 A 
ATOM     25  N   UNL     1       2.823   7.868  18.433  0.00  0.00    +0.000 NA
ATOM     26  C   UNL     1       2.999   6.498  18.511  0.00  0.00    +0.000 A 
ATOM     27  C   UNL     1       2.335   5.903  19.569  0.00  0.00    +0.000 A 
ATOM     28  S   UNL     1       1.529   7.105  20.508  0.00  0.00    +0.000 S 
ATOM     29  H   UNL     1       0.873   9.673  20.333  0.00  0.00    +0.000 HD
BRANCH  26  30
ATOM     30  C   UNL     1       3.813   5.801  17.520  0.00  0.00    +0.000 A 
ATOM     31  C   UNL     1       3.907   4.405  17.484  0.00  0.00    +0.000 A 
ATOM     32  C   UNL     1       4.748   3.770  16.566  0.00  0.00    +0.000 A 
ATOM     33  C   UNL     1       5.501   4.522  15.665  0.00  0.00    +0.000 A 
ATOM     34  C   UNL     1       5.401   5.912  15.671  0.00  0.00    +0.000 A 
ATOM     35  C   UNL     1       4.564   6.546  16.593  0.00  0.00    +0.000 A 
ENDBRANCH  26  30
ENDBRANCH  20  21
ENDBRANCH   6  20
TORSDOF 5
ENDMDL
MODEL 9
REMARK VINA RESULT:      -7.8      2.274      3.556
REMARK  Name = 
REMARK  6 active torsions:
REMARK  status: ('A' for Active; 'I' for Inactive)
REMARK    1  A    between atoms: C_1  and  C_2
REMARK    2  A    between atoms: C_2  and  N_3
REMARK    3  A    between atoms: C_4  and  C_5
REMARK    4  A    between atoms: N_10  and  C_11
REMARK    5  A    between atoms: C_11  and  C_12
REMARK    6  A    between atoms: C_17  and  C_18
REMARK                            x       y       z     vdW  Elec       q    Type
REMARK                         _______ _______ _______ _____ _____    ______ ____
ROOT
ATOM      1  C   UNL     1       2.998   6.515  19.295  0.00  0.00    +0.000 C 
ATOM      2  C   UNL     1       2.312   7.660  19.143  0.00  0.00    +0.000 C 
ATOM      3  S   UNL     1       2.363   8.760  17.821  0.00  0.00    +0.000 S 
ATOM      4  C   UNL     1       1.633  10.040  18.768  0.00  0.00    +0.000 C 
ATOM      5  O   UNL     1       1.663  11.210  18.427  0.00  0.00    +0.000 OA
ATOM      6  N   UNL     1       1.145   9.530  19.943  0.00  0.00    +0.000 N 
ATOM      7  C   UNL     1       1.461   8.223  20.225  0.00  0.00    +0.000 C 
ATOM      8  O   UNL     1       1.140   7.623  21.240  0.00  0.00    +0.000 OA
ENDROOT
BRANCH   1  10
ATOM      9  N   UNL     1       3.555   4.912  17.538  0.00  0.00    +0.000 N 
ATOM     10  C   UNL     1       3.875   6.023  18.299  0.00  0.00    +0.000 A 
ATOM     11  N   UNL     1       5.051   6.503  17.950  0.00  0.00    +0.000 NA
ATOM     12  C   UNL     1       5.532   5.662  16.980  0.00  0.00    +0.000 A 
ATOM     13  C   UNL     1       6.748   5.709  16.283  0.00  0.00    +0.000 A 
ATOM     14  C   UNL     1       7.021   4.717  15.333  0.00  0.00    +0.000 A 
ATOM     15  C   UNL     1       6.100   3.702  15.080  0.00  0.00    +0.000 A 
ATOM     16  C   UNL     1       4.877   3.643  15.759  0.00  0.00    +0.000 A 
ATOM     17  C   UNL     1       4.622   4.644  16.707  0.00  0.00    +0.000 A 
BRANCH   9  19
ATOM     18  C   UNL     1       2.388   2.764  18.051  0.00  0.00    +0.000 C 
ATOM     19  C   UNL     1       2.296   4.183  17.516  0.00  0.00    +0.000 C 
ENDBRANCH   9  19
ENDBRANCH   1  10
BRANCH   6  20
ATOM     20  C   UNL     1       0.639  10.422  20.968  0.00  0.00    +0.000 C 
BRANCH  20  21
ATOM     21  C   UNL     1      -0.764  10.985  20.769  0.00  0.00    +0.000 C 
ATOM     22  O   UNL     1      -1.384  10.645  19.760  0.00  0.00    +0.000 OA
ATOM     23  N   UNL     1      -1.137  11.990  21.639  0.00  0.00    +0.000 N 
ATOM     24  C   UNL     1      -2.314  12.662  21.418  0.00  0.00    +0.000 A 
ATOM     25  N   UNL     1      -3.293  12.328  20.622  0.00  0.00    +0.000 NA
ATOM     26  C   UNL     1      -4.232  13.341  20.555  0.00  0.00    +0.000 A 
ATOM     27  C   UNL     1      -3.943  14.432  21.354  0.00  0.00    +0.000 A 
ATOM     28  S   UNL     1      -2.495  14.141  22.246  0.00  0.00    +0.000 S 
ATOM     29  H   UNL     1      -0.476  12.415  22.275  0.00  0.00    +0.000 HD
BRANCH  26  30
ATOM     30  C   UNL     1      -5.394  13.213  19.681  0.00  0.00    +0.000 A 
ATOM     31  C   UNL     1      -6.625  13.803  19.991  0.00  0.00    +0.000 A 
ATOM     32  C   UNL     1      -7.737  13.605  19.167  0.00  0.00    +0.000 A 
ATOM     33  C   UNL     1      -7.633  12.821  18.020  0.00  0.00    +0.000 A 
ATOM     34  C   UNL     1      -6.409  12.246  17.684  0.00  0.00    +0.000 A 
ATOM     35  C   UNL     1      -5.299  12.440  18.511  0.00  0.00    +0.000 A 
ENDBRANCH  26  30
ENDBRANCH  20  21
ENDBRANCH   6  20
TORSDOF 5
ENDMDL
