MODEL 1
REMARK VINA RESULT:      -8.5      0.000      0.000
REMARK  Name = 
REMARK  8 active torsions:
REMARK  status: ('A' for Active; 'I' for Inactive)
REMARK    1  A    between atoms: C_1  and  C_2
REMARK    2  A    between atoms: C_2  and  O_3
REMARK    3  A    between atoms: C_2  and  C_4
REMARK    4  A    between atoms: C_4  and  C_5
REMARK    5  A    between atoms: C_5  and  O_6
REMARK    6  A    between atoms: O_6  and  C_7
REMARK    7  A    between atoms: C_12  and  O_13
REMARK    8  A    between atoms: C_14  and  N_15
REMARK                            x       y       z     vdW  Elec       q    Type
REMARK                         _______ _______ _______ _____ _____    ______ ____
ROOT
ATOM      1  C   UNL     1       1.406   8.966  19.234  0.00  0.00    +0.000 A 
ATOM      2  C   UNL     1       1.200   8.203  20.383  0.00  0.00    +0.000 A 
ATOM      3  C   UNL     1       1.854   6.982  20.549  0.00  0.00    +0.000 A 
ATOM      4  C   UNL     1       2.743   6.510  19.577  0.00  0.00    +0.000 A 
ATOM      5  C   UNL     1       3.400   5.278  19.739  0.00  0.00    +0.000 A 
ATOM      6  C   UNL     1       4.298   4.829  18.775  0.00  0.00    +0.000 A 
ATOM      7  C   UNL     1       4.566   5.599  17.640  0.00  0.00    +0.000 A 
ATOM      8  C   UNL     1       3.893   6.812  17.466  0.00  0.00    +0.000 A 
ATOM      9  F   UNL     1       4.112   7.523  16.346  0.00  0.00    +0.000 F 
ATOM     10  C   UNL     1       2.979   7.287  18.421  0.00  0.00    +0.000 A 
ATOM     11  C   UNL     1       2.295   8.506  18.259  0.00  0.00    +0.000 A 
ENDROOT
BRANCH   7  12
ATOM     12  N   UNL     1       5.498   5.162  16.664  0.00  0.00    +0.000 N 
ATOM     13  C   UNL     1       5.104   4.419  15.468  0.00  0.00    +0.000 C 
ATOM     14  C   UNL     1       6.416   4.157  14.734  0.00  0.00    +0.000 C 
ATOM     15  O   UNL     1       6.525   3.667  13.622  0.00  0.00    +0.000 OA
ATOM     16  N   UNL     1       7.523   4.557  15.486  0.00  0.00    +0.000 N 
ATOM     17  S   UNL     1       7.134   5.346  16.886  0.00  0.00    +0.000 S 
ATOM     18  O   UNL     1       7.503   6.729  16.727  0.00  0.00    +0.000 OA
ATOM     19  O   UNL     1       7.591   4.543  17.995  0.00  0.00    +0.000 OA
ATOM     20  H   UNL     1       8.469   4.566  15.135  0.00  0.00    +0.000 HD
ENDBRANCH   7  12
BRANCH   6  21
ATOM     21  O   UNL     1       4.913   3.614  18.924  0.00  0.00    +0.000 OA
ATOM     22  H   UNL     1       5.041   3.438  19.871  0.00  0.00    +0.000 HD
ENDBRANCH   6  21
BRANCH   1  23
ATOM     23  O   UNL     1       0.806  10.167  18.960  0.00  0.00    +0.000 OA
BRANCH  23  24
ATOM     24  C   UNL     1      -0.562  10.279  19.360  0.00  0.00    +0.000 C 
BRANCH  24  25
ATOM     25  C   UNL     1      -1.448  10.221  18.121  0.00  0.00    +0.000 C 
BRANCH  25  27
ATOM     26  C   UNL     1      -3.478  11.343  17.118  0.00  0.00    +0.000 C 
ATOM     27  C   UNL     1      -2.213  11.532  17.940  0.00  0.00    +0.000 C 
BRANCH  27  28
ATOM     28  O   UNL     1      -1.382  12.492  17.291  0.00  0.00    +0.000 OA
ATOM     29  H   UNL     1      -1.297  12.233  16.357  0.00  0.00    +0.000 HD
ENDBRANCH  27  28
ENDBRANCH  25  27
ENDBRANCH  24  25
ENDBRANCH  23  24
ENDBRANCH   1  23
TORSDOF 7
ENDMDL
MODEL 2
REMARK VINA RESULT:      -8.3      1.599      1.955
REMARK  Name = 
REMARK  8 active torsions:
REMARK  status: ('A' for Active; 'I' for Inactive)
REMARK    1  A    between atoms: C_1  and  C_2
REMARK    2  A    between atoms: C_2  and  O_3
REMARK    3  A    between atoms: C_2  and  C_4
REMARK    4  A    between atoms: C_4  and  C_5
REMARK    5  A    between atoms: C_5  and  O_6
REMARK    6  A    between atoms: O_6  and  C_7
REMARK    7  A    between atoms: C_12  and  O_13
REMARK    8  A    between atoms: C_14  and  N_15
REMARK                            x       y       z     vdW  Elec       q    Type
REMARK                         _______ _______ _______ _____ _____    ______ ____
ROOT
ATOM      1  C   UNL     1       1.393   8.856  19.292  0.00  0.00    +0.000 A 
ATOM      2  C   UNL     1       1.210   8.080  20.437  0.00  0.00    +0.000 A 
ATOM      3  C   UNL     1       1.883   6.868  20.586  0.00  0.00    +0.000 A 
ATOM      4  C   UNL     1       2.770   6.418  19.603  0.00  0.00    +0.000 A 
ATOM      5  C   UNL     1       3.447   5.195  19.748  0.00  0.00    +0.000 A 
ATOM      6  C   UNL     1       4.343   4.768  18.772  0.00  0.00    +0.000 A 
ATOM      7  C   UNL     1       4.589   5.551  17.641  0.00  0.00    +0.000 A 
ATOM      8  C   UNL     1       3.895   6.754  17.483  0.00  0.00    +0.000 A 
ATOM      9  F   UNL     1       4.092   7.478  16.367  0.00  0.00    +0.000 F 
ATOM     10  C   UNL     1       2.983   7.208  18.451  0.00  0.00    +0.000 A 
ATOM     11  C   UNL     1       2.279   8.417  18.305  0.00  0.00    +0.000 A 
ENDROOT
BRANCH   7  12
ATOM     12  N   UNL     1       5.517   5.137  16.653  0.00  0.00    +0.000 N 
ATOM     13  C   UNL     1       5.121   4.413  15.445  0.00  0.00    +0.000 C 
ATOM     14  C   UNL     1       6.431   4.171  14.701  0.00  0.00    +0.000 C 
ATOM     15  O   UNL     1       6.537   3.701  13.579  0.00  0.00    +0.000 OA
ATOM     16  N   UNL     1       7.539   4.563  15.454  0.00  0.00    +0.000 N 
ATOM     17  S   UNL     1       7.154   5.325  16.869  0.00  0.00    +0.000 S 
ATOM     18  O   UNL     1       7.514   6.713  16.733  0.00  0.00    +0.000 OA
ATOM     19  O   UNL     1       7.621   4.505  17.962  0.00  0.00    +0.000 OA
ATOM     20  H   UNL     1       8.483   4.583  15.098  0.00  0.00    +0.000 HD
ENDBRANCH   7  12
BRANCH   6  21
ATOM     21  O   UNL     1       4.978   3.561  18.905  0.00  0.00    +0.000 OA
ATOM     22  H   UNL     1       5.402   3.521  19.778  0.00  0.00    +0.000 HD
ENDBRANCH   6  21
BRANCH   1  23
ATOM     23  O   UNL     1       0.772  10.050  19.034  0.00  0.00    +0.000 OA
BRANCH  23  24
ATOM     24  C   UNL     1       1.024  11.093  19.979  0.00  0.00    +0.000 C 
BRANCH  24  25
ATOM     25  C   UNL     1       1.012  12.434  19.253  0.00  0.00    +0.000 C 
BRANCH  25  27
ATOM     26  C   UNL     1       2.544  14.172  18.244  0.00  0.00    +0.000 C 
ATOM     27  C   UNL     1       2.362  12.701  18.587  0.00  0.00    +0.000 C 
BRANCH  27  28
ATOM     28  O   UNL     1       2.471  11.934  17.390  0.00  0.00    +0.000 OA
ATOM     29  H   UNL     1       2.010  11.088  17.532  0.00  0.00    +0.000 HD
ENDBRANCH  27  28
ENDBRANCH  25  27
ENDBRANCH  24  25
ENDBRANCH  23  24
ENDBRANCH   1  23
TORSDOF 7
ENDMDL
MODEL 3
REMARK VINA RESULT:      -8.2      1.900      2.370
REMARK  Name = 
REMARK  8 active torsions:
REMARK  status: ('A' for Active; 'I' for Inactive)
REMARK    1  A    between atoms: C_1  and  C_2
REMARK    2  A    between atoms: C_2  and  O_3
REMARK    3  A    between atoms: C_2  and  C_4
REMARK    4  A    between atoms: C_4  and  C_5
REMARK    5  A    between atoms: C_5  and  O_6
REMARK    6  A    between atoms: O_6  and  C_7
REMARK    7  A    between atoms: C_12  and  O_13
REMARK    8  A    between atoms: C_14  and  N_15
REMARK                            x       y       z     vdW  Elec       q    Type
REMARK                         _______ _______ _______ _____ _____    ______ ____
ROOT
ATOM      1  C   UNL     1       1.597   8.171  19.794  0.00  0.00    +0.000 A 
ATOM      2  C   UNL     1       1.400   7.171  20.747  0.00  0.00    +0.000 A 
ATOM      3  C   UNL     1       2.037   5.936  20.619  0.00  0.00    +0.000 A 
ATOM      4  C   UNL     1       2.899   5.685  19.546  0.00  0.00    +0.000 A 
ATOM      5  C   UNL     1       3.538   4.440  19.412  0.00  0.00    +0.000 A 
ATOM      6  C   UNL     1       4.410   4.210  18.351  0.00  0.00    +0.000 A 
ATOM      7  C   UNL     1       4.669   5.212  17.413  0.00  0.00    +0.000 A 
ATOM      8  C   UNL     1       4.013   6.441  17.531  0.00  0.00    +0.000 A 
ATOM      9  F   UNL     1       4.221   7.383  16.595  0.00  0.00    +0.000 F 
ATOM     10  C   UNL     1       3.125   6.699  18.589  0.00  0.00    +0.000 A 
ATOM     11  C   UNL     1       2.458   7.931  18.721  0.00  0.00    +0.000 A 
ENDROOT
BRANCH   7  12
ATOM     12  N   UNL     1       5.574   4.996  16.343  0.00  0.00    +0.000 N 
ATOM     13  C   UNL     1       5.174   4.383  15.077  0.00  0.00    +0.000 C 
ATOM     14  C   UNL     1       6.458   4.343  14.252  0.00  0.00    +0.000 C 
ATOM     15  O   UNL     1       6.540   4.015  13.079  0.00  0.00    +0.000 OA
ATOM     16  N   UNL     1       7.569   4.740  14.998  0.00  0.00    +0.000 N 
ATOM     17  S   UNL     1       7.199   5.299  16.509  0.00  0.00    +0.000 S 
ATOM     18  O   UNL     1       7.439   6.718  16.523  0.00  0.00    +0.000 OA
ATOM     19  O   UNL     1       7.788   4.402  17.475  0.00  0.00    +0.000 OA
ATOM     20  H   UNL     1       8.488   4.882  14.606  0.00  0.00    +0.000 HD
ENDBRANCH   7  12
BRANCH   6  21
ATOM     21  O   UNL     1       5.008   2.985  18.210  0.00  0.00    +0.000 OA
ATOM     22  H   UNL     1       5.385   2.918  17.317  0.00  0.00    +0.000 HD
ENDBRANCH   6  21
BRANCH   1  23
ATOM     23  O   UNL     1       1.011   9.409  19.811  0.00  0.00    +0.000 OA
BRANCH  23  24
ATOM     24  C   UNL     1       0.808   9.978  21.107  0.00  0.00    +0.000 C 
BRANCH  24  25
ATOM     25  C   UNL     1      -0.668   9.864  21.474  0.00  0.00    +0.000 C 
BRANCH  25  27
ATOM     26  C   UNL     1      -1.147  11.826  22.993  0.00  0.00    +0.000 C 
ATOM     27  C   UNL     1      -0.906  10.326  22.911  0.00  0.00    +0.000 C 
BRANCH  27  28
ATOM     28  O   UNL     1       0.222   9.996  23.719  0.00  0.00    +0.000 OA
ATOM     29  H   UNL     1       0.091   9.096  24.065  0.00  0.00    +0.000 HD
ENDBRANCH  27  28
ENDBRANCH  25  27
ENDBRANCH  24  25
ENDBRANCH  23  24
ENDBRANCH   1  23
TORSDOF 7
ENDMDL
MODEL 4
REMARK VINA RESULT:      -8.1      1.443      2.029
REMARK  Name = 
REMARK  8 active torsions:
REMARK  status: ('A' for Active; 'I' for Inactive)
REMARK    1  A    between atoms: C_1  and  C_2
REMARK    2  A    between atoms: C_2  and  O_3
REMARK    3  A    between atoms: C_2  and  C_4
REMARK    4  A    between atoms: C_4  and  C_5
REMARK    5  A    between atoms: C_5  and  O_6
REMARK    6  A    between atoms: O_6  and  C_7
REMARK    7  A    between atoms: C_12  and  O_13
REMARK    8  A    between atoms: C_14  and  N_15
REMARK                            x       y       z     vdW  Elec       q    Type
REMARK                         _______ _______ _______ _____ _____    ______ ____
ROOT
ATOM      1  C   UNL     1       1.420   8.727  19.449  0.00  0.00    +0.000 A 
ATOM      2  C   UNL     1       1.230   7.901  20.556  0.00  0.00    +0.000 A 
ATOM      3  C   UNL     1       1.895   6.678  20.648  0.00  0.00    +0.000 A 
ATOM      4  C   UNL     1       2.779   6.267  19.644  0.00  0.00    +0.000 A 
ATOM      5  C   UNL     1       3.446   5.034  19.732  0.00  0.00    +0.000 A 
ATOM      6  C   UNL     1       4.339   4.646  18.737  0.00  0.00    +0.000 A 
ATOM      7  C   UNL     1       4.590   5.479  17.644  0.00  0.00    +0.000 A 
ATOM      8  C   UNL     1       3.906   6.694  17.543  0.00  0.00    +0.000 A 
ATOM      9  F   UNL     1       4.109   7.467  16.462  0.00  0.00    +0.000 F 
ATOM     10  C   UNL     1       2.997   7.108  18.531  0.00  0.00    +0.000 A 
ATOM     11  C   UNL     1       2.302   8.329  18.442  0.00  0.00    +0.000 A 
ENDROOT
BRANCH   7  12
ATOM     12  N   UNL     1       5.516   5.104  16.637  0.00  0.00    +0.000 N 
ATOM     13  C   UNL     1       5.119   4.407  15.415  0.00  0.00    +0.000 C 
ATOM     14  C   UNL     1       6.426   4.203  14.653  0.00  0.00    +0.000 C 
ATOM     15  O   UNL     1       6.528   3.765  13.518  0.00  0.00    +0.000 OA
ATOM     16  N   UNL     1       7.535   4.591  15.407  0.00  0.00    +0.000 N 
ATOM     17  S   UNL     1       7.151   5.310  16.845  0.00  0.00    +0.000 S 
ATOM     18  O   UNL     1       7.491   6.706  16.743  0.00  0.00    +0.000 OA
ATOM     19  O   UNL     1       7.640   4.469  17.911  0.00  0.00    +0.000 OA
ATOM     20  H   UNL     1       8.476   4.634  15.043  0.00  0.00    +0.000 HD
ENDBRANCH   7  12
BRANCH   6  21
ATOM     21  O   UNL     1       4.964   3.430  18.814  0.00  0.00    +0.000 OA
ATOM     22  H   UNL     1       4.830   2.950  17.980  0.00  0.00    +0.000 HD
ENDBRANCH   6  21
BRANCH   1  23
ATOM     23  O   UNL     1       0.808   9.937  19.247  0.00  0.00    +0.000 OA
BRANCH  23  24
ATOM     24  C   UNL     1      -0.228  10.267  20.175  0.00  0.00    +0.000 C 
BRANCH  24  25
ATOM     25  C   UNL     1       0.298  11.310  21.156  0.00  0.00    +0.000 C 
BRANCH  25  27
ATOM     26  C   UNL     1      -0.650  10.004  23.101  0.00  0.00    +0.000 C 
ATOM     27  C   UNL     1      -0.571  11.358  22.413  0.00  0.00    +0.000 C 
BRANCH  27  28
ATOM     28  O   UNL     1      -1.891  11.778  22.073  0.00  0.00    +0.000 OA
ATOM     29  H   UNL     1      -1.829  12.656  21.657  0.00  0.00    +0.000 HD
ENDBRANCH  27  28
ENDBRANCH  25  27
ENDBRANCH  24  25
ENDBRANCH  23  24
ENDBRANCH   1  23
TORSDOF 7
ENDMDL
MODEL 5
REMARK VINA RESULT:      -8.0      1.621      1.728
REMARK  Name = 
REMARK  8 active torsions:
REMARK  status: ('A' for Active; 'I' for Inactive)
REMARK    1  A    between atoms: C_1  and  C_2
REMARK    2  A    between atoms: C_2  and  O_3
REMARK    3  A    between atoms: C_2  and  C_4
REMARK    4  A    between atoms: C_4  and  C_5
REMARK    5  A    between atoms: C_5  and  O_6
REMARK    6  A    between atoms: O_6  and  C_7
REMARK    7  A    between atoms: C_12  and  O_13
REMARK    8  A    between atoms: C_14  and  N_15
REMARK                            x       y       z     vdW  Elec       q    Type
REMARK                         _______ _______ _______ _____ _____    ______ ____
ROOT
ATOM      1  C   UNL     1       1.463   8.333  19.743  0.00  0.00    +0.000 A 
ATOM      2  C   UNL     1       1.267   7.402  20.762  0.00  0.00    +0.000 A 
ATOM      3  C   UNL     1       1.924   6.172  20.732  0.00  0.00    +0.000 A 
ATOM      4  C   UNL     1       2.808   5.858  19.694  0.00  0.00    +0.000 A 
ATOM      5  C   UNL     1       3.468   4.618  19.659  0.00  0.00    +0.000 A 
ATOM      6  C   UNL     1       4.360   4.326  18.630  0.00  0.00    +0.000 A 
ATOM      7  C   UNL     1       4.618   5.263  17.626  0.00  0.00    +0.000 A 
ATOM      8  C   UNL     1       3.940   6.486  17.646  0.00  0.00    +0.000 A 
ATOM      9  F   UNL     1       4.149   7.362  16.647  0.00  0.00    +0.000 F 
ATOM     10  C   UNL     1       3.032   6.805  18.669  0.00  0.00    +0.000 A 
ATOM     11  C   UNL     1       2.345   8.032  18.702  0.00  0.00    +0.000 A 
ENDROOT
BRANCH   7  12
ATOM     12  N   UNL     1       5.543   4.985  16.588  0.00  0.00    +0.000 N 
ATOM     13  C   UNL     1       5.158   4.332  15.337  0.00  0.00    +0.000 C 
ATOM     14  C   UNL     1       6.460   4.231  14.546  0.00  0.00    +0.000 C 
ATOM     15  O   UNL     1       6.563   3.856  13.389  0.00  0.00    +0.000 OA
ATOM     16  N   UNL     1       7.562   4.634  15.303  0.00  0.00    +0.000 N 
ATOM     17  S   UNL     1       7.170   5.260  16.781  0.00  0.00    +0.000 S 
ATOM     18  O   UNL     1       7.441   6.673  16.746  0.00  0.00    +0.000 OA
ATOM     19  O   UNL     1       7.716   4.390  17.796  0.00  0.00    +0.000 OA
ATOM     20  H   UNL     1       8.493   4.741  14.928  0.00  0.00    +0.000 HD
ENDBRANCH   7  12
BRANCH   6  21
ATOM     21  O   UNL     1       4.979   3.105  18.586  0.00  0.00    +0.000 OA
ATOM     22  H   UNL     1       4.303   2.407  18.592  0.00  0.00    +0.000 HD
ENDBRANCH   6  21
BRANCH   1  23
ATOM     23  O   UNL     1       0.858   9.560  19.662  0.00  0.00    +0.000 OA
BRANCH  23  24
ATOM     24  C   UNL     1       1.325  10.411  18.612  0.00  0.00    +0.000 C 
BRANCH  24  25
ATOM     25  C   UNL     1       0.793  11.821  18.840  0.00  0.00    +0.000 C 
BRANCH  25  27
ATOM     26  C   UNL     1      -0.466  13.283  20.472  0.00  0.00    +0.000 C 
ATOM     27  C   UNL     1       0.318  11.994  20.283  0.00  0.00    +0.000 C 
BRANCH  27  28
ATOM     28  O   UNL     1       1.440  12.005  21.164  0.00  0.00    +0.000 OA
ATOM     29  H   UNL     1       2.186  12.418  20.695  0.00  0.00    +0.000 HD
ENDBRANCH  27  28
ENDBRANCH  25  27
ENDBRANCH  24  25
ENDBRANCH  23  24
ENDBRANCH   1  23
TORSDOF 7
ENDMDL
MODEL 6
REMARK VINA RESULT:      -7.9      1.378      1.487
REMARK  Name = 
REMARK  8 active torsions:
REMARK  status: ('A' for Active; 'I' for Inactive)
REMARK    1  A    between atoms: C_1  and  C_2
REMARK    2  A    between atoms: C_2  and  O_3
REMARK    3  A    between atoms: C_2  and  C_4
REMARK    4  A    between atoms: C_4  and  C_5
REMARK    5  A    between atoms: C_5  and  O_6
REMARK    6  A    between atoms: O_6  and  C_7
REMARK    7  A    between atoms: C_12  and  O_13
REMARK    8  A    between atoms: C_14  and  N_15
REMARK                            x       y       z     vdW  Elec       q    Type
REMARK                         _______ _______ _______ _____ _____    ______ ____
ROOT
ATOM      1  C   UNL     1       1.404   9.147  19.056  0.00  0.00    +0.000 A 
ATOM      2  C   UNL     1       1.179   8.446  20.240  0.00  0.00    +0.000 A 
ATOM      3  C   UNL     1       1.823   7.231  20.477  0.00  0.00    +0.000 A 
ATOM      4  C   UNL     1       2.722   6.705  19.543  0.00  0.00    +0.000 A 
ATOM      5  C   UNL     1       3.369   5.479  19.776  0.00  0.00    +0.000 A 
ATOM      6  C   UNL     1       4.276   4.976  18.848  0.00  0.00    +0.000 A 
ATOM      7  C   UNL     1       4.563   5.685  17.679  0.00  0.00    +0.000 A 
ATOM      8  C   UNL     1       3.899   6.890  17.433  0.00  0.00    +0.000 A 
ATOM      9  F   UNL     1       4.136   7.541  16.281  0.00  0.00    +0.000 F 
ATOM     10  C   UNL     1       2.976   7.419  18.351  0.00  0.00    +0.000 A 
ATOM     11  C   UNL     1       2.301   8.632  18.117  0.00  0.00    +0.000 A 
ENDROOT
BRANCH   7  12
ATOM     12  N   UNL     1       5.504   5.193  16.738  0.00  0.00    +0.000 N 
ATOM     13  C   UNL     1       5.117   4.417  15.561  0.00  0.00    +0.000 C 
ATOM     14  C   UNL     1       6.438   4.100  14.865  0.00  0.00    +0.000 C 
ATOM     15  O   UNL     1       6.558   3.568  13.772  0.00  0.00    +0.000 OA
ATOM     16  N   UNL     1       7.537   4.501  15.626  0.00  0.00    +0.000 N 
ATOM     17  S   UNL     1       7.139   5.348  16.988  0.00  0.00    +0.000 S 
ATOM     18  O   UNL     1       7.542   6.716  16.789  0.00  0.00    +0.000 OA
ATOM     19  O   UNL     1       7.555   4.576  18.134  0.00  0.00    +0.000 OA
ATOM     20  H   UNL     1       8.490   4.477  15.294  0.00  0.00    +0.000 HD
ENDBRANCH   7  12
BRANCH   6  21
ATOM     21  O   UNL     1       4.882   3.768  19.068  0.00  0.00    +0.000 OA
ATOM     22  H   UNL     1       4.249   3.056  18.878  0.00  0.00    +0.000 HD
ENDBRANCH   6  21
BRANCH   1  23
ATOM     23  O   UNL     1       0.814  10.335  18.713  0.00  0.00    +0.000 OA
BRANCH  23  24
ATOM     24  C   UNL     1       1.706  11.440  18.543  0.00  0.00    +0.000 C 
BRANCH  24  25
ATOM     25  C   UNL     1       1.218  12.608  19.393  0.00  0.00    +0.000 C 
BRANCH  25  27
ATOM     26  C   UNL     1      -0.558  14.404  19.459  0.00  0.00    +0.000 C 
ATOM     27  C   UNL     1       0.325  13.539  18.573  0.00  0.00    +0.000 C 
BRANCH  27  28
ATOM     28  O   UNL     1      -0.506  12.772  17.705  0.00  0.00    +0.000 OA
ATOM     29  H   UNL     1      -0.687  13.307  16.912  0.00  0.00    +0.000 HD
ENDBRANCH  27  28
ENDBRANCH  25  27
ENDBRANCH  24  25
ENDBRANCH  23  24
ENDBRANCH   1  23
TORSDOF 7
ENDMDL
MODEL 7
REMARK VINA RESULT:      -7.6      3.219      4.427
REMARK  Name = 
REMARK  8 active torsions:
REMARK  status: ('A' for Active; 'I' for Inactive)
REMARK    1  A    between atoms: C_1  and  C_2
REMARK    2  A    between atoms: C_2  and  O_3
REMARK    3  A    between atoms: C_2  and  C_4
REMARK    4  A    between atoms: C_4  and  C_5
REMARK    5  A    between atoms: C_5  and  O_6
REMARK    6  A    between atoms: O_6  and  C_7
REMARK    7  A    between atoms: C_12  and  O_13
REMARK    8  A    between atoms: C_14  and  N_15
REMARK                            x       y       z     vdW  Elec       q    Type
REMARK                         _______ _______ _______ _____ _____    ______ ____
ROOT
ATOM      1  C   UNL     1       0.845  10.001  20.001  0.00  0.00    +0.000 A 
ATOM      2  C   UNL     1       1.298  10.543  18.799  0.00  0.00    +0.000 A 
ATOM      3  C   UNL     1       2.072   9.779  17.925  0.00  0.00    +0.000 A 
ATOM      4  C   UNL     1       2.390   8.451  18.227  0.00  0.00    +0.000 A 
ATOM      5  C   UNL     1       3.174   7.680  17.351  0.00  0.00    +0.000 A 
ATOM      6  C   UNL     1       3.466   6.353  17.653  0.00  0.00    +0.000 A 
ATOM      7  C   UNL     1       2.979   5.767  18.824  0.00  0.00    +0.000 A 
ATOM      8  C   UNL     1       2.223   6.541  19.709  0.00  0.00    +0.000 A 
ATOM      9  F   UNL     1       1.803   5.990  20.861  0.00  0.00    +0.000 F 
ATOM     10  C   UNL     1       1.915   7.884  19.431  0.00  0.00    +0.000 A 
ATOM     11  C   UNL     1       1.154   8.674  20.312  0.00  0.00    +0.000 A 
ENDROOT
BRANCH   7  12
ATOM     12  N   UNL     1       3.251   4.409  19.129  0.00  0.00    +0.000 N 
ATOM     13  C   UNL     1       4.476   3.977  19.800  0.00  0.00    +0.000 C 
ATOM     14  C   UNL     1       4.338   2.460  19.902  0.00  0.00    +0.000 C 
ATOM     15  O   UNL     1       5.093   1.715  20.507  0.00  0.00    +0.000 OA
ATOM     16  N   UNL     1       3.216   1.992  19.217  0.00  0.00    +0.000 N 
ATOM     17  S   UNL     1       2.247   3.189  18.616  0.00  0.00    +0.000 S 
ATOM     18  O   UNL     1       1.028   3.195  19.382  0.00  0.00    +0.000 OA
ATOM     19  O   UNL     1       2.259   3.092  17.175  0.00  0.00    +0.000 OA
ATOM     20  H   UNL     1       2.892   1.036  19.254  0.00  0.00    +0.000 HD
ENDBRANCH   7  12
BRANCH   6  21
ATOM     21  O   UNL     1       4.254   5.616  16.809  0.00  0.00    +0.000 OA
ATOM     22  H   UNL     1       3.685   5.080  16.232  0.00  0.00    +0.000 HD
ENDBRANCH   6  21
BRANCH   1  23
ATOM     23  O   UNL     1       0.096  10.662  20.938  0.00  0.00    +0.000 OA
BRANCH  23  24
ATOM     24  C   UNL     1      -0.017  10.015  22.208  0.00  0.00    +0.000 C 
BRANCH  24  25
ATOM     25  C   UNL     1      -1.059  10.745  23.048  0.00  0.00    +0.000 C 
BRANCH  25  27
ATOM     26  C   UNL     1      -1.883  13.073  23.585  0.00  0.00    +0.000 C 
ATOM     27  C   UNL     1      -1.277  12.165  22.525  0.00  0.00    +0.000 C 
BRANCH  27  28
ATOM     28  O   UNL     1      -2.145  12.137  21.394  0.00  0.00    +0.000 OA
ATOM     29  H   UNL     1      -2.376  13.055  21.169  0.00  0.00    +0.000 HD
ENDBRANCH  27  28
ENDBRANCH  25  27
ENDBRANCH  24  25
ENDBRANCH  23  24
ENDBRANCH   1  23
TORSDOF 7
ENDMDL
MODEL 8
REMARK VINA RESULT:      -7.6      3.698      8.324
REMARK  Name = 
REMARK  8 active torsions:
REMARK  status: ('A' for Active; 'I' for Inactive)
REMARK    1  A    between atoms: C_1  and  C_2
REMARK    2  A    between atoms: C_2  and  O_3
REMARK    3  A    between atoms: C_2  and  C_4
REMARK    4  A    between atoms: C_4  and  C_5
REMARK    5  A    between atoms: C_5  and  O_6
REMARK    6  A    between atoms: O_6  and  C_7
REMARK    7  A    between atoms: C_12  and  O_13
REMARK    8  A    between atoms: C_14  and  N_15
REMARK                            x       y       z     vdW  Elec       q    Type
REMARK                         _______ _______ _______ _____ _____    ______ ____
ROOT
ATOM      1  C   UNL     1       3.967   6.201  17.482  0.00  0.00    +0.000 A 
ATOM      2  C   UNL     1       3.896   5.358  18.590  0.00  0.00    +0.000 A 
ATOM      3  C   UNL     1       3.131   5.711  19.701  0.00  0.00    +0.000 A 
ATOM      4  C   UNL     1       2.404   6.907  19.717  0.00  0.00    +0.000 A 
ATOM      5  C   UNL     1       1.636   7.268  20.837  0.00  0.00    +0.000 A 
ATOM      6  C   UNL     1       0.901   8.450  20.832  0.00  0.00    +0.000 A 
ATOM      7  C   UNL     1       0.908   9.288  19.713  0.00  0.00    +0.000 A 
ATOM      8  C   UNL     1       1.694   8.942  18.610  0.00  0.00    +0.000 A 
ATOM      9  F   UNL     1       1.743   9.777  17.557  0.00  0.00    +0.000 F 
ATOM     10  C   UNL     1       2.448   7.757  18.589  0.00  0.00    +0.000 A 
ATOM     11  C   UNL     1       3.243   7.396  17.485  0.00  0.00    +0.000 A 
ENDROOT
BRANCH   7  12
ATOM     12  N   UNL     1       0.143  10.481  19.689  0.00  0.00    +0.000 N 
ATOM     13  C   UNL     1      -1.184  10.560  19.080  0.00  0.00    +0.000 C 
ATOM     14  C   UNL     1      -1.605  12.014  19.276  0.00  0.00    +0.000 C 
ATOM     15  O   UNL     1      -2.705  12.478  19.020  0.00  0.00    +0.000 OA
ATOM     16  N   UNL     1      -0.572  12.789  19.806  0.00  0.00    +0.000 N 
ATOM     17  S   UNL     1       0.769  11.922  20.231  0.00  0.00    +0.000 S 
ATOM     18  O   UNL     1       0.850  11.915  21.669  0.00  0.00    +0.000 OA
ATOM     19  O   UNL     1       1.864  12.350  19.394  0.00  0.00    +0.000 OA
ATOM     20  H   UNL     1      -0.684  13.747  20.107  0.00  0.00    +0.000 HD
ENDBRANCH   7  12
BRANCH   6  21
ATOM     21  O   UNL     1       0.176   8.812  21.937  0.00  0.00    +0.000 OA
ATOM     22  H   UNL     1      -0.723   8.453  21.858  0.00  0.00    +0.000 HD
ENDBRANCH   6  21
BRANCH   1  23
ATOM     23  O   UNL     1       4.698   5.963  16.348  0.00  0.00    +0.000 OA
BRANCH  23  24
ATOM     24  C   UNL     1       6.084   6.306  16.423  0.00  0.00    +0.000 C 
BRANCH  24  25
ATOM     25  C   UNL     1       6.912   5.026  16.447  0.00  0.00    +0.000 C 
BRANCH  25  27
ATOM     26  C   UNL     1       7.678   5.992  18.654  0.00  0.00    +0.000 C 
ATOM     27  C   UNL     1       7.400   4.722  17.864  0.00  0.00    +0.000 C 
BRANCH  27  28
ATOM     28  O   UNL     1       8.593   3.944  17.809  0.00  0.00    +0.000 OA
ATOM     29  H   UNL     1       8.991   4.065  16.929  0.00  0.00    +0.000 HD
ENDBRANCH  27  28
ENDBRANCH  25  27
ENDBRANCH  24  25
ENDBRANCH  23  24
ENDBRANCH   1  23
TORSDOF 7
ENDMDL
MODEL 9
REMARK VINA RESULT:      -7.6      1.329      1.586
REMARK  Name = 
REMARK  8 active torsions:
REMARK  status: ('A' for Active; 'I' for Inactive)
REMARK    1  A    between atoms: C_1  and  C_2
REMARK    2  A    between atoms: C_2  and  O_3
REMARK    3  A    between atoms: C_2  and  C_4
REMARK    4  A    between atoms: C_4  and  C_5
REMARK    5  A    between atoms: C_5  and  O_6
REMARK    6  A    between atoms: O_6  and  C_7
REMARK    7  A    between atoms: C_12  and  O_13
REMARK    8  A    between atoms: C_14  and  N_15
REMARK                            x       y       z     vdW  Elec       q    Type
REMARK                         _______ _______ _______ _____ _____    ______ ____
ROOT
ATOM      1  C   UNL     1       1.665   7.478  20.263  0.00  0.00    +0.000 A 
ATOM      2  C   UNL     1       1.289   6.281  20.871  0.00  0.00    +0.000 A 
ATOM      3  C   UNL     1       1.807   5.066  20.423  0.00  0.00    +0.000 A 
ATOM      4  C   UNL     1       2.730   5.026  19.372  0.00  0.00    +0.000 A 
ATOM      5  C   UNL     1       3.251   3.803  18.916  0.00  0.00    +0.000 A 
ATOM      6  C   UNL     1       4.183   3.779  17.883  0.00  0.00    +0.000 A 
ATOM      7  C   UNL     1       4.621   4.968  17.292  0.00  0.00    +0.000 A 
ATOM      8  C   UNL     1       4.083   6.182  17.728  0.00  0.00    +0.000 A 
ATOM      9  F   UNL     1       4.465   7.319  17.120  0.00  0.00    +0.000 F 
ATOM     10  C   UNL     1       3.137   6.235  18.766  0.00  0.00    +0.000 A 
ATOM     11  C   UNL     1       2.588   7.451  19.214  0.00  0.00    +0.000 A 
ENDROOT
BRANCH   7  12
ATOM     12  N   UNL     1       5.589   4.956  16.256  0.00  0.00    +0.000 N 
ATOM     13  C   UNL     1       5.309   4.444  14.915  0.00  0.00    +0.000 C 
ATOM     14  C   UNL     1       6.625   4.618  14.161  0.00  0.00    +0.000 C 
ATOM     15  O   UNL     1       6.792   4.426  12.967  0.00  0.00    +0.000 OA
ATOM     16  N   UNL     1       7.656   5.041  15.001  0.00  0.00    +0.000 N 
ATOM     17  S   UNL     1       7.165   5.398  16.539  0.00  0.00    +0.000 S 
ATOM     18  O   UNL     1       7.256   6.825  16.709  0.00  0.00    +0.000 OA
ATOM     19  O   UNL     1       7.802   4.467  17.440  0.00  0.00    +0.000 OA
ATOM     20  H   UNL     1       8.571   5.314  14.676  0.00  0.00    +0.000 HD
ENDBRANCH   7  12
BRANCH   6  21
ATOM     21  O   UNL     1       4.666   2.583  17.423  0.00  0.00    +0.000 OA
ATOM     22  H   UNL     1       3.944   1.933  17.409  0.00  0.00    +0.000 HD
ENDBRANCH   6  21
BRANCH   1  23
ATOM     23  O   UNL     1       1.207   8.722  20.608  0.00  0.00    +0.000 OA
BRANCH  23  24
ATOM     24  C   UNL     1       0.916   9.598  19.516  0.00  0.00    +0.000 C 
BRANCH  24  25
ATOM     25  C   UNL     1       0.407  10.926  20.066  0.00  0.00    +0.000 C 
BRANCH  25  27
ATOM     26  C   UNL     1      -1.303  12.640  19.342  0.00  0.00    +0.000 C 
ATOM     27  C   UNL     1      -0.082  11.829  18.934  0.00  0.00    +0.000 C 
BRANCH  27  28
ATOM     28  O   UNL     1      -0.415  11.040  17.794  0.00  0.00    +0.000 OA
ATOM     29  H   UNL     1      -0.577  10.129  18.097  0.00  0.00    +0.000 HD
ENDBRANCH  27  28
ENDBRANCH  25  27
ENDBRANCH  24  25
ENDBRANCH  23  24
ENDBRANCH   1  23
TORSDOF 7
ENDMDL
