MODEL 1
REMARK VINA RESULT:      -9.5      0.000      0.000
REMARK  Name = 
REMARK  1 active torsions:
REMARK  status: ('A' for Active; 'I' for Inactive)
REMARK    1  A    between atoms: C_1  and  C_2
REMARK                            x       y       z     vdW  Elec       q    Type
REMARK                         _______ _______ _______ _____ _____    ______ ____
ROOT
ATOM      1  C   UNL     1       6.700   4.706  13.790  0.00  0.00    +0.000 C 
ATOM      2  C   UNL     1       6.400   5.025  15.231  0.00  0.00    +0.000 A 
ATOM      3  C   UNL     1       7.250   4.344  16.109  0.00  0.00    +0.000 A 
ATOM      4  C   UNL     1       7.271   4.751  17.410  0.00  0.00    +0.000 A 
ATOM      5  C   UNL     1       6.017   5.117  17.856  0.00  0.00    +0.000 A 
ATOM      6  O   UNL     1       5.456   3.932  18.476  0.00  0.00    +0.000 OA
ATOM      7  C   UNL     1       4.308   4.065  19.179  0.00  0.00    +0.000 A 
ATOM      8  O   UNL     1       3.913   3.192  19.946  0.00  0.00    +0.000 OA
ATOM      9  C   UNL     1       3.632   5.354  19.020  0.00  0.00    +0.000 A 
ATOM     10  C   UNL     1       2.741   5.636  20.049  0.00  0.00    +0.000 A 
ATOM     11  C   UNL     1       2.086   6.830  20.079  0.00  0.00    +0.000 A 
ATOM     12  C   UNL     1       2.265   7.743  19.015  0.00  0.00    +0.000 A 
ATOM     13  N   UNL     1       3.175   7.475  17.967  0.00  0.00    +0.000 NA
ATOM     14  C   UNL     1       3.871   6.264  17.984  0.00  0.00    +0.000 A 
ATOM     15  C   UNL     1       5.072   5.881  17.141  0.00  0.00    +0.000 A 
ATOM     16  C   UNL     1       5.353   5.887  15.747  0.00  0.00    +0.000 A 
ATOM     17  C   UNL     1       1.405   8.997  19.121  0.00  0.00    +0.000 A 
ATOM     18  C   UNL     1       1.117   9.862  18.053  0.00  0.00    +0.000 A 
ATOM     19  C   UNL     1       0.190  10.927  18.207  0.00  0.00    +0.000 A 
ATOM     20  C   UNL     1      -0.443  11.173  19.428  0.00  0.00    +0.000 A 
ATOM     21  C   UNL     1      -0.151  10.372  20.510  0.00  0.00    +0.000 A 
ATOM     22  C   UNL     1       0.751   9.301  20.366  0.00  0.00    +0.000 A 
ATOM     23  C   UNL     1       0.992   8.475  21.589  0.00  0.00    +0.000 C 
ATOM     24  C   UNL     1       1.117   7.016  21.203  0.00  0.00    +0.000 C 
ENDROOT
TORSDOF 0
ENDMDL
MODEL 2
REMARK VINA RESULT:      -9.1      2.233      3.872
REMARK  Name = 
REMARK  1 active torsions:
REMARK  status: ('A' for Active; 'I' for Inactive)
REMARK    1  A    between atoms: C_1  and  C_2
REMARK                            x       y       z     vdW  Elec       q    Type
REMARK                         _______ _______ _______ _____ _____    ______ ____
ROOT
ATOM      1  C   UNL     1       4.625   1.670  20.667  0.00  0.00    +0.000 C 
ATOM      2  C   UNL     1       3.884   2.692  19.844  0.00  0.00    +0.000 A 
ATOM      3  C   UNL     1       3.876   2.367  18.483  0.00  0.00    +0.000 A 
ATOM      4  C   UNL     1       3.014   3.049  17.677  0.00  0.00    +0.000 A 
ATOM      5  C   UNL     1       2.911   4.377  18.039  0.00  0.00    +0.000 A 
ATOM      6  O   UNL     1       3.875   5.087  17.222  0.00  0.00    +0.000 OA
ATOM      7  C   UNL     1       3.843   6.440  17.229  0.00  0.00    +0.000 A 
ATOM      8  O   UNL     1       4.428   7.107  16.381  0.00  0.00    +0.000 OA
ATOM      9  C   UNL     1       2.991   7.031  18.262  0.00  0.00    +0.000 A 
ATOM     10  C   UNL     1       2.624   8.343  17.985  0.00  0.00    +0.000 A 
ATOM     11  C   UNL     1       1.776   9.007  18.819  0.00  0.00    +0.000 A 
ATOM     12  C   UNL     1       1.336   8.375  20.004  0.00  0.00    +0.000 A 
ATOM     13  N   UNL     1       1.692   7.038  20.295  0.00  0.00    +0.000 NA
ATOM     14  C   UNL     1       2.525   6.362  19.399  0.00  0.00    +0.000 A 
ATOM     15  C   UNL     1       2.813   4.873  19.355  0.00  0.00    +0.000 A 
ATOM     16  C   UNL     1       3.258   3.917  20.309  0.00  0.00    +0.000 A 
ATOM     17  C   UNL     1       0.470   9.257  20.895  0.00  0.00    +0.000 A 
ATOM     18  C   UNL     1       0.218   9.018  22.256  0.00  0.00    +0.000 A 
ATOM     19  C   UNL     1      -0.482   9.969  23.045  0.00  0.00    +0.000 A 
ATOM     20  C   UNL     1      -0.972  11.156  22.496  0.00  0.00    +0.000 A 
ATOM     21  C   UNL     1      -0.781  11.404  21.154  0.00  0.00    +0.000 A 
ATOM     22  C   UNL     1      -0.073  10.479  20.364  0.00  0.00    +0.000 A 
ATOM     23  C   UNL     1       0.100  10.842  18.923  0.00  0.00    +0.000 C 
ATOM     24  C   UNL     1       1.479  10.427  18.455  0.00  0.00    +0.000 C 
ENDROOT
TORSDOF 0
ENDMDL
MODEL 3
REMARK VINA RESULT:      -8.7      1.107      1.586
REMARK  Name = 
REMARK  1 active torsions:
REMARK  status: ('A' for Active; 'I' for Inactive)
REMARK    1  A    between atoms: C_1  and  C_2
REMARK                            x       y       z     vdW  Elec       q    Type
REMARK                         _______ _______ _______ _____ _____    ______ ____
ROOT
ATOM      1  C   UNL     1       5.689   4.780  14.902  0.00  0.00    +0.000 C 
ATOM      2  C   UNL     1       5.344   5.201  16.307  0.00  0.00    +0.000 A 
ATOM      3  C   UNL     1       6.001   4.423  17.266  0.00  0.00    +0.000 A 
ATOM      4  C   UNL     1       5.997   4.872  18.553  0.00  0.00    +0.000 A 
ATOM      5  C   UNL     1       4.794   5.458  18.891  0.00  0.00    +0.000 A 
ATOM      6  O   UNL     1       3.997   4.410  19.496  0.00  0.00    +0.000 OA
ATOM      7  C   UNL     1       2.840   4.760  20.105  0.00  0.00    +0.000 A 
ATOM      8  O   UNL     1       2.249   3.996  20.861  0.00  0.00    +0.000 OA
ATOM      9  C   UNL     1       2.406   6.136  19.859  0.00  0.00    +0.000 A 
ATOM     10  C   UNL     1       1.504   6.603  20.808  0.00  0.00    +0.000 A 
ATOM     11  C   UNL     1       1.060   7.890  20.756  0.00  0.00    +0.000 A 
ATOM     12  C   UNL     1       1.467   8.718  19.685  0.00  0.00    +0.000 A 
ATOM     13  N   UNL     1       2.393   8.261  18.718  0.00  0.00    +0.000 NA
ATOM     14  C   UNL     1       2.870   6.952  18.821  0.00  0.00    +0.000 A 
ATOM     15  C   UNL     1       4.046   6.341  18.084  0.00  0.00    +0.000 A 
ATOM     16  C   UNL     1       4.423   6.246  16.716  0.00  0.00    +0.000 A 
ATOM     17  C   UNL     1       0.827  10.101  19.690  0.00  0.00    +0.000 A 
ATOM     18  C   UNL     1       0.767  10.959  18.580  0.00  0.00    +0.000 A 
ATOM     19  C   UNL     1       0.025  12.169  18.634  0.00  0.00    +0.000 A 
ATOM     20  C   UNL     1      -0.643  12.566  19.794  0.00  0.00    +0.000 A 
ATOM     21  C   UNL     1      -0.570  11.770  20.917  0.00  0.00    +0.000 A 
ATOM     22  C   UNL     1       0.146  10.558  20.872  0.00  0.00    +0.000 A 
ATOM     23  C   UNL     1       0.154   9.752  22.132  0.00  0.00    +0.000 C 
ATOM     24  C   UNL     1       0.058   8.280  21.796  0.00  0.00    +0.000 C 
ENDROOT
TORSDOF 0
ENDMDL
MODEL 4
REMARK VINA RESULT:      -8.7      2.689      7.220
REMARK  Name = 
REMARK  1 active torsions:
REMARK  status: ('A' for Active; 'I' for Inactive)
REMARK    1  A    between atoms: C_1  and  C_2
REMARK                            x       y       z     vdW  Elec       q    Type
REMARK                         _______ _______ _______ _____ _____    ______ ____
ROOT
ATOM      1  C   UNL     1       1.251  14.415  18.668  0.00  0.00    +0.000 C 
ATOM      2  C   UNL     1       0.760  13.011  18.907  0.00  0.00    +0.000 A 
ATOM      3  C   UNL     1      -0.501  12.990  19.514  0.00  0.00    +0.000 A 
ATOM      4  C   UNL     1      -1.174  11.805  19.530  0.00  0.00    +0.000 A 
ATOM      5  C   UNL     1      -0.327  10.734  19.731  0.00  0.00    +0.000 A 
ATOM      6  O   UNL     1      -0.328  10.491  21.160  0.00  0.00    +0.000 OA
ATOM      7  C   UNL     1       0.266   9.363  21.614  0.00  0.00    +0.000 A 
ATOM      8  O   UNL     1       0.082   8.948  22.754  0.00  0.00    +0.000 OA
ATOM      9  C   UNL     1       1.062   8.641  20.620  0.00  0.00    +0.000 A 
ATOM     10  C   UNL     1       1.282   7.310  20.955  0.00  0.00    +0.000 A 
ATOM     11  C   UNL     1       1.948   6.489  20.097  0.00  0.00    +0.000 A 
ATOM     12  C   UNL     1       2.477   7.023  18.900  0.00  0.00    +0.000 A 
ATOM     13  N   UNL     1       2.252   8.372  18.540  0.00  0.00    +0.000 NA
ATOM     14  C   UNL     1       1.525   9.182  19.415  0.00  0.00    +0.000 A 
ATOM     15  C   UNL     1       0.934  10.549  19.128  0.00  0.00    +0.000 A 
ATOM     16  C   UNL     1       1.453  11.770  18.616  0.00  0.00    +0.000 A 
ATOM     17  C   UNL     1       3.280   6.024  18.075  0.00  0.00    +0.000 A 
ATOM     18  C   UNL     1       4.195   6.371  17.068  0.00  0.00    +0.000 A 
ATOM     19  C   UNL     1       5.006   5.384  16.449  0.00  0.00    +0.000 A 
ATOM     20  C   UNL     1       4.904   4.034  16.792  0.00  0.00    +0.000 A 
ATOM     21  C   UNL     1       3.986   3.651  17.745  0.00  0.00    +0.000 A 
ATOM     22  C   UNL     1       3.188   4.622  18.381  0.00  0.00    +0.000 A 
ATOM     23  C   UNL     1       2.233   4.115  19.414  0.00  0.00    +0.000 C 
ATOM     24  C   UNL     1       2.171   5.088  20.572  0.00  0.00    +0.000 C 
ENDROOT
TORSDOF 0
ENDMDL
MODEL 5
REMARK VINA RESULT:      -8.6      2.207      6.964
REMARK  Name = 
REMARK  1 active torsions:
REMARK  status: ('A' for Active; 'I' for Inactive)
REMARK    1  A    between atoms: C_1  and  C_2
REMARK                            x       y       z     vdW  Elec       q    Type
REMARK                         _______ _______ _______ _____ _____    ______ ____
ROOT
ATOM      1  C   UNL     1       1.772  13.667  18.405  0.00  0.00    +0.000 C 
ATOM      2  C   UNL     1       1.396  12.210  18.460  0.00  0.00    +0.000 A 
ATOM      3  C   UNL     1       0.146  12.011  19.057  0.00  0.00    +0.000 A 
ATOM      4  C   UNL     1      -0.431  10.784  18.919  0.00  0.00    +0.000 A 
ATOM      5  C   UNL     1       0.499   9.766  18.982  0.00  0.00    +0.000 A 
ATOM      6  O   UNL     1       0.530   9.342  20.368  0.00  0.00    +0.000 OA
ATOM      7  C   UNL     1       1.214   8.216  20.674  0.00  0.00    +0.000 A 
ATOM      8  O   UNL     1       1.074   7.644  21.751  0.00  0.00    +0.000 OA
ATOM      9  C   UNL     1       2.057   7.693  19.596  0.00  0.00    +0.000 A 
ATOM     10  C   UNL     1       2.384   6.352  19.758  0.00  0.00    +0.000 A 
ATOM     11  C   UNL     1       3.106   5.703  18.802  0.00  0.00    +0.000 A 
ATOM     12  C   UNL     1       3.580   6.427  17.685  0.00  0.00    +0.000 A 
ATOM     13  N   UNL     1       3.247   7.789  17.501  0.00  0.00    +0.000 NA
ATOM     14  C   UNL     1       2.465   8.419  18.472  0.00  0.00    +0.000 A 
ATOM     15  C   UNL     1       1.766   9.761  18.362  0.00  0.00    +0.000 A 
ATOM     16  C   UNL     1       2.183  11.075  18.014  0.00  0.00    +0.000 A 
ATOM     17  C   UNL     1       4.453   5.610  16.739  0.00  0.00    +0.000 A 
ATOM     18  C   UNL     1       5.329   6.155  15.787  0.00  0.00    +0.000 A 
ATOM     19  C   UNL     1       6.210   5.323  15.047  0.00  0.00    +0.000 A 
ATOM     20  C   UNL     1       6.217   3.936  15.214  0.00  0.00    +0.000 A 
ATOM     21  C   UNL     1       5.340   3.362  16.108  0.00  0.00    +0.000 A 
ATOM     22  C   UNL     1       4.474   4.177  16.862  0.00  0.00    +0.000 A 
ATOM     23  C   UNL     1       3.571   3.467  17.820  0.00  0.00    +0.000 C 
ATOM     24  C   UNL     1       3.442   4.275  19.093  0.00  0.00    +0.000 C 
ENDROOT
TORSDOF 0
ENDMDL
MODEL 6
REMARK VINA RESULT:      -8.4      2.839      6.900
REMARK  Name = 
REMARK  1 active torsions:
REMARK  status: ('A' for Active; 'I' for Inactive)
REMARK    1  A    between atoms: C_1  and  C_2
REMARK                            x       y       z     vdW  Elec       q    Type
REMARK                         _______ _______ _______ _____ _____    ______ ____
ROOT
ATOM      1  C   UNL     1       2.505  13.619  17.878  0.00  0.00    +0.000 C 
ATOM      2  C   UNL     1       1.777  12.379  18.327  0.00  0.00    +0.000 A 
ATOM      3  C   UNL     1       0.579  12.681  18.984  0.00  0.00    +0.000 A 
ATOM      4  C   UNL     1      -0.302  11.661  19.190  0.00  0.00    +0.000 A 
ATOM      5  C   UNL     1       0.341  10.480  19.500  0.00  0.00    +0.000 A 
ATOM      6  O   UNL     1       0.390  10.424  20.948  0.00  0.00    +0.000 OA
ATOM      7  C   UNL     1       0.791   9.269  21.527  0.00  0.00    +0.000 A 
ATOM      8  O   UNL     1       0.610   9.045  22.720  0.00  0.00    +0.000 OA
ATOM      9  C   UNL     1       1.368   8.286  20.609  0.00  0.00    +0.000 A 
ATOM     10  C   UNL     1       1.357   6.991  21.114  0.00  0.00    +0.000 A 
ATOM     11  C   UNL     1       1.798   5.954  20.350  0.00  0.00    +0.000 A 
ATOM     12  C   UNL     1       2.336   6.219  19.069  0.00  0.00    +0.000 A 
ATOM     13  N   UNL     1       2.344   7.529  18.537  0.00  0.00    +0.000 NA
ATOM     14  C   UNL     1       1.843   8.569  19.323  0.00  0.00    +0.000 A 
ATOM     15  C   UNL     1       1.501   9.978  18.876  0.00  0.00    +0.000 A 
ATOM     16  C   UNL     1       2.204  11.000  18.181  0.00  0.00    +0.000 A 
ATOM     17  C   UNL     1       2.880   4.987  18.356  0.00  0.00    +0.000 A 
ATOM     18  C   UNL     1       3.773   5.019  17.273  0.00  0.00    +0.000 A 
ATOM     19  C   UNL     1       4.341   3.822  16.762  0.00  0.00    +0.000 A 
ATOM     20  C   UNL     1       4.011   2.572  17.291  0.00  0.00    +0.000 A 
ATOM     21  C   UNL     1       3.103   2.499  18.325  0.00  0.00    +0.000 A 
ATOM     22  C   UNL     1       2.547   3.679  18.855  0.00  0.00    +0.000 A 
ATOM     23  C   UNL     1       1.586   3.503  19.987  0.00  0.00    +0.000 C 
ATOM     24  C   UNL     1       1.786   4.608  21.002  0.00  0.00    +0.000 C 
ENDROOT
TORSDOF 0
ENDMDL
MODEL 7
REMARK VINA RESULT:      -8.2      3.146      7.883
REMARK  Name = 
REMARK  1 active torsions:
REMARK  status: ('A' for Active; 'I' for Inactive)
REMARK    1  A    between atoms: C_1  and  C_2
REMARK                            x       y       z     vdW  Elec       q    Type
REMARK                         _______ _______ _______ _____ _____    ______ ____
ROOT
ATOM      1  C   UNL     1      -2.297  11.529  23.245  0.00  0.00    +0.000 C 
ATOM      2  C   UNL     1      -1.034  11.175  22.504  0.00  0.00    +0.000 A 
ATOM      3  C   UNL     1      -0.376  12.308  22.014  0.00  0.00    +0.000 A 
ATOM      4  C   UNL     1       0.905  12.153  21.575  0.00  0.00    +0.000 A 
ATOM      5  C   UNL     1       1.083  10.952  20.919  0.00  0.00    +0.000 A 
ATOM      6  O   UNL     1       0.878  11.234  19.512  0.00  0.00    +0.000 OA
ATOM      7  C   UNL     1       1.192  10.269  18.617  0.00  0.00    +0.000 A 
ATOM      8  O   UNL     1       1.304  10.508  17.419  0.00  0.00    +0.000 OA
ATOM      9  C   UNL     1       1.470   8.955  19.198  0.00  0.00    +0.000 A 
ATOM     10  C   UNL     1       2.199   8.126  18.355  0.00  0.00    +0.000 A 
ATOM     11  C   UNL     1       2.596   6.894  18.780  0.00  0.00    +0.000 A 
ATOM     12  C   UNL     1       2.192   6.441  20.056  0.00  0.00    +0.000 A 
ATOM     13  N   UNL     1       1.458   7.276  20.930  0.00  0.00    +0.000 NA
ATOM     14  C   UNL     1       1.105   8.553  20.488  0.00  0.00    +0.000 A 
ATOM     15  C   UNL     1       0.573   9.701  21.324  0.00  0.00    +0.000 A 
ATOM     16  C   UNL     1      -0.504   9.849  22.242  0.00  0.00    +0.000 A 
ATOM     17  C   UNL     1       2.620   5.013  20.374  0.00  0.00    +0.000 A 
ATOM     18  C   UNL     1       2.054   4.213  21.379  0.00  0.00    +0.000 A 
ATOM     19  C   UNL     1       2.413   2.845  21.511  0.00  0.00    +0.000 A 
ATOM     20  C   UNL     1       3.361   2.255  20.672  0.00  0.00    +0.000 A 
ATOM     21  C   UNL     1       3.970   3.021  19.702  0.00  0.00    +0.000 A 
ATOM     22  C   UNL     1       3.609   4.373  19.548  0.00  0.00    +0.000 A 
ATOM     23  C   UNL     1       4.309   5.121  18.457  0.00  0.00    +0.000 C 
ATOM     24  C   UNL     1       3.337   6.064  17.781  0.00  0.00    +0.000 C 
ENDROOT
TORSDOF 0
ENDMDL
MODEL 8
REMARK VINA RESULT:      -8.1      4.039      8.860
REMARK  Name = 
REMARK  1 active torsions:
REMARK  status: ('A' for Active; 'I' for Inactive)
REMARK    1  A    between atoms: C_1  and  C_2
REMARK                            x       y       z     vdW  Elec       q    Type
REMARK                         _______ _______ _______ _____ _____    ______ ____
ROOT
ATOM      1  C   UNL     1      -3.610  12.358  24.277  0.00  0.00    +0.000 C 
ATOM      2  C   UNL     1      -2.405  12.324  23.374  0.00  0.00    +0.000 A 
ATOM      3  C   UNL     1      -1.992  13.608  22.998  0.00  0.00    +0.000 A 
ATOM      4  C   UNL     1      -0.764  13.731  22.420  0.00  0.00    +0.000 A 
ATOM      5  C   UNL     1      -0.482  12.675  21.578  0.00  0.00    +0.000 A 
ATOM      6  O   UNL     1      -0.894  13.102  20.255  0.00  0.00    +0.000 OA
ATOM      7  C   UNL     1      -0.544  12.331  19.199  0.00  0.00    +0.000 A 
ATOM      8  O   UNL     1      -0.613  12.741  18.045  0.00  0.00    +0.000 OA
ATOM      9  C   UNL     1      -0.000  11.017  19.548  0.00  0.00    +0.000 A 
ATOM     10  C   UNL     1       0.743  10.442  18.524  0.00  0.00    +0.000 A 
ATOM     11  C   UNL     1       1.373   9.250  18.720  0.00  0.00    +0.000 A 
ATOM     12  C   UNL     1       1.198   8.571  19.947  0.00  0.00    +0.000 A 
ATOM     13  N   UNL     1       0.454   9.147  21.002  0.00  0.00    +0.000 NA
ATOM     14  C   UNL     1      -0.142  10.393  20.793  0.00  0.00    +0.000 A 
ATOM     15  C   UNL     1      -0.742  11.313  21.838  0.00  0.00    +0.000 A 
ATOM     16  C   UNL     1      -1.712  11.154  22.866  0.00  0.00    +0.000 A 
ATOM     17  C   UNL     1       1.876   7.207  20.005  0.00  0.00    +0.000 A 
ATOM     18  C   UNL     1       1.563   6.197  20.929  0.00  0.00    +0.000 A 
ATOM     19  C   UNL     1       2.142   4.905  20.819  0.00  0.00    +0.000 A 
ATOM     20  C   UNL     1       3.064   4.600  19.815  0.00  0.00    +0.000 A 
ATOM     21  C   UNL     1       3.427   5.579  18.916  0.00  0.00    +0.000 A 
ATOM     22  C   UNL     1       2.847   6.859  19.001  0.00  0.00    +0.000 A 
ATOM     23  C   UNL     1       3.288   7.852  17.973  0.00  0.00    +0.000 C 
ATOM     24  C   UNL     1       2.109   8.697  17.541  0.00  0.00    +0.000 C 
ENDROOT
TORSDOF 0
ENDMDL
MODEL 9
REMARK VINA RESULT:      -7.3      3.324      5.031
REMARK  Name = 
REMARK  1 active torsions:
REMARK  status: ('A' for Active; 'I' for Inactive)
REMARK    1  A    between atoms: C_1  and  C_2
REMARK                            x       y       z     vdW  Elec       q    Type
REMARK                         _______ _______ _______ _____ _____    ______ ____
ROOT
ATOM      1  C   UNL     1       7.244   1.931  11.289  0.00  0.00    +0.000 C 
ATOM      2  C   UNL     1       6.766   3.036  12.194  0.00  0.00    +0.000 A 
ATOM      3  C   UNL     1       7.315   4.276  11.847  0.00  0.00    +0.000 A 
ATOM      4  C   UNL     1       6.757   5.390  12.400  0.00  0.00    +0.000 A 
ATOM      5  C   UNL     1       6.377   5.180  13.710  0.00  0.00    +0.000 A 
ATOM      6  O   UNL     1       7.496   5.618  14.522  0.00  0.00    +0.000 OA
ATOM      7  C   UNL     1       7.314   5.711  15.860  0.00  0.00    +0.000 A 
ATOM      8  O   UNL     1       8.101   6.316  16.580  0.00  0.00    +0.000 OA
ATOM      9  C   UNL     1       6.072   5.115  16.357  0.00  0.00    +0.000 A 
ATOM     10  C   UNL     1       5.696   5.594  17.606  0.00  0.00    +0.000 A 
ATOM     11  C   UNL     1       4.526   5.187  18.172  0.00  0.00    +0.000 A 
ATOM     12  C   UNL     1       3.740   4.216  17.511  0.00  0.00    +0.000 A 
ATOM     13  N   UNL     1       4.104   3.727  16.234  0.00  0.00    +0.000 NA
ATOM     14  C   UNL     1       5.284   4.197  15.654  0.00  0.00    +0.000 A 
ATOM     15  C   UNL     1       5.729   4.033  14.213  0.00  0.00    +0.000 A 
ATOM     16  C   UNL     1       5.880   2.923  13.338  0.00  0.00    +0.000 A 
ATOM     17  C   UNL     1       2.507   3.777  18.291  0.00  0.00    +0.000 A 
ATOM     18  C   UNL     1       1.783   2.599  18.046  0.00  0.00    +0.000 A 
ATOM     19  C   UNL     1       0.734   2.195  18.914  0.00  0.00    +0.000 A 
ATOM     20  C   UNL     1       0.363   2.964  20.020  0.00  0.00    +0.000 A 
ATOM     21  C   UNL     1       1.024   4.148  20.267  0.00  0.00    +0.000 A 
ATOM     22  C   UNL     1       2.078   4.551  19.425  0.00  0.00    +0.000 A 
ATOM     23  C   UNL     1       2.747   5.841  19.781  0.00  0.00    +0.000 C 
ATOM     24  C   UNL     1       4.236   5.727  19.537  0.00  0.00    +0.000 C 
ENDROOT
TORSDOF 0
ENDMDL
