MODEL 1
REMARK VINA RESULT:      -6.8      0.000      0.000
REMARK  Name = 
REMARK  4 active torsions:
REMARK  status: ('A' for Active; 'I' for Inactive)
REMARK    1  A    between atoms: C_1  and  N_2
REMARK    2  A    between atoms: N_2  and  C_3
REMARK    3  A    between atoms: N_2  and  S_8
REMARK    4  A    between atoms: S_8  and  C_11
REMARK                            x       y       z     vdW  Elec       q    Type
REMARK                         _______ _______ _______ _____ _____    ______ ____
ROOT
ATOM      1  S   UNL     1       4.885   4.197  18.293  0.00  0.00    +0.000 S 
ATOM      2  O   UNL     1       4.081   3.273  17.524  0.00  0.00    +0.000 OA
ATOM      3  O   UNL     1       5.560   3.786  19.500  0.00  0.00    +0.000 OA
ENDROOT
BRANCH   1   4
ATOM      4  C   UNL     1       3.828   5.596  18.609  0.00  0.00    +0.000 A 
ATOM      5  C   UNL     1       3.912   6.663  17.692  0.00  0.00    +0.000 A 
ATOM      6  C   UNL     1       3.118   7.801  17.851  0.00  0.00    +0.000 A 
ATOM      7  C   UNL     1       2.231   7.873  18.920  0.00  0.00    +0.000 A 
ATOM      8 CL   UNL     1       1.252   9.277  19.111  0.00  0.00    +0.000 Cl
ATOM      9  C   UNL     1       2.133   6.811  19.818  0.00  0.00    +0.000 A 
ATOM     10  F   UNL     1       1.265   6.898  20.840  0.00  0.00    +0.000 F 
ATOM     11  C   UNL     1       2.926   5.663  19.674  0.00  0.00    +0.000 A 
ATOM     12 CL   UNL     1       2.679   4.418  20.843  0.00  0.00    +0.000 Cl
ENDBRANCH   1   4
BRANCH   1  14
ATOM     13  C   UNL     1       7.464   4.887  17.865  0.00  0.00    +0.000 C 
ATOM     14  N   UNL     1       6.105   4.826  17.259  0.00  0.00    +0.000 NA
BRANCH  14  15
ATOM     15  C   UNL     1       6.189   4.270  15.862  0.00  0.00    +0.000 C 
ATOM     16  C   UNL     1       4.982   4.531  14.984  0.00  0.00    +0.000 C 
ATOM     17  C   UNL     1       5.493   4.051  13.641  0.00  0.00    +0.000 C 
ATOM     18  O   UNL     1       6.903   4.327  13.613  0.00  0.00    +0.000 OA
ATOM     19  C   UNL     1       7.308   4.736  14.941  0.00  0.00    +0.000 C 
ENDBRANCH  14  15
ENDBRANCH   1  14
TORSDOF 3
ENDMDL
MODEL 2
REMARK VINA RESULT:      -6.6      4.011      6.051
REMARK  Name = 
REMARK  4 active torsions:
REMARK  status: ('A' for Active; 'I' for Inactive)
REMARK    1  A    between atoms: C_1  and  N_2
REMARK    2  A    between atoms: N_2  and  C_3
REMARK    3  A    between atoms: N_2  and  S_8
REMARK    4  A    between atoms: S_8  and  C_11
REMARK                            x       y       z     vdW  Elec       q    Type
REMARK                         _______ _______ _______ _____ _____    ______ ____
ROOT
ATOM      1  S   UNL     1       5.123   4.813  18.724  0.00  0.00    +0.000 S 
ATOM      2  O   UNL     1       4.239   5.958  18.719  0.00  0.00    +0.000 OA
ATOM      3  O   UNL     1       6.246   4.731  19.626  0.00  0.00    +0.000 OA
ENDROOT
BRANCH   1   4
ATOM      4  C   UNL     1       5.660   4.621  17.036  0.00  0.00    +0.000 A 
ATOM      5  C   UNL     1       4.979   3.652  16.270  0.00  0.00    +0.000 A 
ATOM      6  C   UNL     1       5.322   3.433  14.934  0.00  0.00    +0.000 A 
ATOM      7  C   UNL     1       6.338   4.186  14.355  0.00  0.00    +0.000 A 
ATOM      8 CL   UNL     1       6.757   3.914  12.707  0.00  0.00    +0.000 Cl
ATOM      9  C   UNL     1       7.000   5.158  15.105  0.00  0.00    +0.000 A 
ATOM     10  F   UNL     1       7.975   5.879  14.525  0.00  0.00    +0.000 F 
ATOM     11  C   UNL     1       6.670   5.388  16.449  0.00  0.00    +0.000 A 
ATOM     12 CL   UNL     1       7.553   6.638  17.245  0.00  0.00    +0.000 Cl
ENDBRANCH   1   4
BRANCH   1  14
ATOM     13  C   UNL     1       4.697   2.521  20.093  0.00  0.00    +0.000 C 
ATOM     14  N   UNL     1       4.175   3.411  19.019  0.00  0.00    +0.000 NA
BRANCH  14  15
ATOM     15  C   UNL     1       2.690   3.597  19.180  0.00  0.00    +0.000 C 
ATOM     16  C   UNL     1       1.832   2.452  18.681  0.00  0.00    +0.000 C 
ATOM     17  C   UNL     1       0.469   2.867  19.195  0.00  0.00    +0.000 C 
ATOM     18  O   UNL     1       0.688   3.565  20.432  0.00  0.00    +0.000 OA
ATOM     19  C   UNL     1       2.110   3.789  20.576  0.00  0.00    +0.000 C 
ENDBRANCH  14  15
ENDBRANCH   1  14
TORSDOF 3
ENDMDL
MODEL 3
REMARK VINA RESULT:      -6.6      2.043      3.249
REMARK  Name = 
REMARK  4 active torsions:
REMARK  status: ('A' for Active; 'I' for Inactive)
REMARK    1  A    between atoms: C_1  and  N_2
REMARK    2  A    between atoms: N_2  and  C_3
REMARK    3  A    between atoms: N_2  and  S_8
REMARK    4  A    between atoms: S_8  and  C_11
REMARK                            x       y       z     vdW  Elec       q    Type
REMARK                         _______ _______ _______ _____ _____    ______ ____
ROOT
ATOM      1  S   UNL     1       5.527   4.905  18.279  0.00  0.00    +0.000 S 
ATOM      2  O   UNL     1       6.759   4.507  18.924  0.00  0.00    +0.000 OA
ATOM      3  O   UNL     1       5.285   6.273  17.892  0.00  0.00    +0.000 OA
ENDROOT
BRANCH   1   4
ATOM      4  C   UNL     1       4.224   4.312  19.339  0.00  0.00    +0.000 A 
ATOM      5  C   UNL     1       4.381   3.008  19.853  0.00  0.00    +0.000 A 
ATOM      6  C   UNL     1       3.417   2.457  20.700  0.00  0.00    +0.000 A 
ATOM      7  C   UNL     1       2.297   3.209  21.044  0.00  0.00    +0.000 A 
ATOM      8 CL   UNL     1       1.111   2.526  22.090  0.00  0.00    +0.000 Cl
ATOM      9  C   UNL     1       2.149   4.505  20.551  0.00  0.00    +0.000 A 
ATOM     10  F   UNL     1       1.063   5.216  20.901  0.00  0.00    +0.000 F 
ATOM     11  C   UNL     1       3.107   5.071  19.697  0.00  0.00    +0.000 A 
ATOM     12 CL   UNL     1       2.806   6.691  19.187  0.00  0.00    +0.000 Cl
ENDBRANCH   1   4
BRANCH   1  14
ATOM     13  C   UNL     1       3.981   3.975  16.265  0.00  0.00    +0.000 C 
ATOM     14  N   UNL     1       5.352   3.971  16.847  0.00  0.00    +0.000 NA
BRANCH  14  15
ATOM     15  C   UNL     1       6.374   4.169  15.758  0.00  0.00    +0.000 C 
ATOM     16  C   UNL     1       5.828   4.164  14.344  0.00  0.00    +0.000 C 
ATOM     17  C   UNL     1       7.049   4.602  13.562  0.00  0.00    +0.000 C 
ATOM     18  O   UNL     1       7.784   5.499  14.411  0.00  0.00    +0.000 OA
ATOM     19  C   UNL     1       7.197   5.450  15.733  0.00  0.00    +0.000 C 
ENDBRANCH  14  15
ENDBRANCH   1  14
TORSDOF 3
ENDMDL
MODEL 4
REMARK VINA RESULT:      -6.5      1.428      2.325
REMARK  Name = 
REMARK  4 active torsions:
REMARK  status: ('A' for Active; 'I' for Inactive)
REMARK    1  A    between atoms: C_1  and  N_2
REMARK    2  A    between atoms: N_2  and  C_3
REMARK    3  A    between atoms: N_2  and  S_8
REMARK    4  A    between atoms: S_8  and  C_11
REMARK                            x       y       z     vdW  Elec       q    Type
REMARK                         _______ _______ _______ _____ _____    ______ ____
ROOT
ATOM      1  S   UNL     1       4.416   3.751  18.441  0.00  0.00    +0.000 S 
ATOM      2  O   UNL     1       3.526   2.939  17.640  0.00  0.00    +0.000 OA
ATOM      3  O   UNL     1       4.982   3.260  19.674  0.00  0.00    +0.000 OA
ENDROOT
BRANCH   1   4
ATOM      4  C   UNL     1       3.545   5.281  18.715  0.00  0.00    +0.000 A 
ATOM      5  C   UNL     1       3.657   6.254  17.701  0.00  0.00    +0.000 A 
ATOM      6  C   UNL     1       3.005   7.483  17.821  0.00  0.00    +0.000 A 
ATOM      7  C   UNL     1       2.230   7.741  18.948  0.00  0.00    +0.000 A 
ATOM      8 CL   UNL     1       1.425   9.257  19.091  0.00  0.00    +0.000 Cl
ATOM      9  C   UNL     1       2.103   6.772  19.943  0.00  0.00    +0.000 A 
ATOM     10  F   UNL     1       1.345   7.039  21.021  0.00  0.00    +0.000 F 
ATOM     11  C   UNL     1       2.755   5.535  19.840  0.00  0.00    +0.000 A 
ATOM     12 CL   UNL     1       2.486   4.424  21.132  0.00  0.00    +0.000 Cl
ENDBRANCH   1   4
BRANCH   1  14
ATOM     13  C   UNL     1       5.556   3.975  15.999  0.00  0.00    +0.000 C 
ATOM     14  N   UNL     1       5.750   4.206  17.458  0.00  0.00    +0.000 NA
BRANCH  14  15
ATOM     15  C   UNL     1       6.352   5.567  17.688  0.00  0.00    +0.000 C 
ATOM     16  C   UNL     1       7.525   5.607  18.647  0.00  0.00    +0.000 C 
ATOM     17  C   UNL     1       7.999   7.033  18.464  0.00  0.00    +0.000 C 
ATOM     18  O   UNL     1       7.739   7.383  17.094  0.00  0.00    +0.000 OA
ATOM     19  C   UNL     1       6.934   6.334  16.508  0.00  0.00    +0.000 C 
ENDBRANCH  14  15
ENDBRANCH   1  14
TORSDOF 3
ENDMDL
MODEL 5
REMARK VINA RESULT:      -6.5      1.940      2.406
REMARK  Name = 
REMARK  4 active torsions:
REMARK  status: ('A' for Active; 'I' for Inactive)
REMARK    1  A    between atoms: C_1  and  N_2
REMARK    2  A    between atoms: N_2  and  C_3
REMARK    3  A    between atoms: N_2  and  S_8
REMARK    4  A    between atoms: S_8  and  C_11
REMARK                            x       y       z     vdW  Elec       q    Type
REMARK                         _______ _______ _______ _____ _____    ______ ____
ROOT
ATOM      1  S   UNL     1       3.567   4.534  18.491  0.00  0.00    +0.000 S 
ATOM      2  O   UNL     1       2.893   4.307  17.231  0.00  0.00    +0.000 OA
ATOM      3  O   UNL     1       3.814   3.458  19.419  0.00  0.00    +0.000 OA
ENDROOT
BRANCH   1   4
ATOM      4  C   UNL     1       2.663   5.850  19.281  0.00  0.00    +0.000 A 
ATOM      5  C   UNL     1       2.029   5.530  20.499  0.00  0.00    +0.000 A 
ATOM      6  C   UNL     1       1.302   6.496  21.198  0.00  0.00    +0.000 A 
ATOM      7  C   UNL     1       1.215   7.789  20.689  0.00  0.00    +0.000 A 
ATOM      8 CL   UNL     1       0.321   8.978  21.555  0.00  0.00    +0.000 Cl
ATOM      9  C   UNL     1       1.858   8.113  19.495  0.00  0.00    +0.000 A 
ATOM     10  F   UNL     1       1.766   9.368  19.024  0.00  0.00    +0.000 F 
ATOM     11  C   UNL     1       2.588   7.152  18.779  0.00  0.00    +0.000 A 
ATOM     12 CL   UNL     1       3.351   7.701  17.332  0.00  0.00    +0.000 Cl
ENDBRANCH   1   4
BRANCH   1  14
ATOM     13  C   UNL     1       6.020   5.306  19.324  0.00  0.00    +0.000 C 
ATOM     14  N   UNL     1       5.101   5.229  18.155  0.00  0.00    +0.000 NA
BRANCH  14  15
ATOM     15  C   UNL     1       5.846   4.722  16.948  0.00  0.00    +0.000 C 
ATOM     16  C   UNL     1       5.658   5.530  15.679  0.00  0.00    +0.000 C 
ATOM     17  C   UNL     1       6.691   4.891  14.774  0.00  0.00    +0.000 C 
ATOM     18  O   UNL     1       7.780   4.478  15.616  0.00  0.00    +0.000 OA
ATOM     19  C   UNL     1       7.365   4.629  16.994  0.00  0.00    +0.000 C 
ENDBRANCH  14  15
ENDBRANCH   1  14
TORSDOF 3
ENDMDL
MODEL 6
REMARK VINA RESULT:      -6.5      1.250      1.388
REMARK  Name = 
REMARK  4 active torsions:
REMARK  status: ('A' for Active; 'I' for Inactive)
REMARK    1  A    between atoms: C_1  and  N_2
REMARK    2  A    between atoms: N_2  and  C_3
REMARK    3  A    between atoms: N_2  and  S_8
REMARK    4  A    between atoms: S_8  and  C_11
REMARK                            x       y       z     vdW  Elec       q    Type
REMARK                         _______ _______ _______ _____ _____    ______ ____
ROOT
ATOM      1  S   UNL     1       3.772   4.833  18.463  0.00  0.00    +0.000 S 
ATOM      2  O   UNL     1       3.140   4.332  17.262  0.00  0.00    +0.000 OA
ATOM      3  O   UNL     1       3.933   4.005  19.633  0.00  0.00    +0.000 OA
ENDROOT
BRANCH   1   4
ATOM      4  C   UNL     1       2.896   6.330  18.870  0.00  0.00    +0.000 A 
ATOM      5  C   UNL     1       2.992   7.384  17.937  0.00  0.00    +0.000 A 
ATOM      6  C   UNL     1       2.335   8.595  18.163  0.00  0.00    +0.000 A 
ATOM      7  C   UNL     1       1.572   8.756  19.315  0.00  0.00    +0.000 A 
ATOM      8 CL   UNL     1       0.761  10.251  19.590  0.00  0.00    +0.000 Cl
ATOM      9  C   UNL     1       1.460   7.709  20.230  0.00  0.00    +0.000 A 
ATOM     10  F   UNL     1       0.713   7.883  21.334  0.00  0.00    +0.000 F 
ATOM     11  C   UNL     1       2.117   6.488  20.019  0.00  0.00    +0.000 A 
ATOM     12 CL   UNL     1       1.869   5.274  21.220  0.00  0.00    +0.000 Cl
ENDBRANCH   1   4
BRANCH   1  14
ATOM     13  C   UNL     1       6.336   5.331  19.160  0.00  0.00    +0.000 C 
ATOM     14  N   UNL     1       5.348   5.376  18.047  0.00  0.00    +0.000 NA
BRANCH  14  15
ATOM     15  C   UNL     1       5.964   4.825  16.788  0.00  0.00    +0.000 C 
ATOM     16  C   UNL     1       5.668   5.603  15.522  0.00  0.00    +0.000 C 
ATOM     17  C   UNL     1       6.597   4.922  14.540  0.00  0.00    +0.000 C 
ATOM     18  O   UNL     1       7.757   4.512  15.284  0.00  0.00    +0.000 OA
ATOM     19  C   UNL     1       7.480   4.705  16.691  0.00  0.00    +0.000 C 
ENDBRANCH  14  15
ENDBRANCH   1  14
TORSDOF 3
ENDMDL
MODEL 7
REMARK VINA RESULT:      -6.4      1.912      3.075
REMARK  Name = 
REMARK  4 active torsions:
REMARK  status: ('A' for Active; 'I' for Inactive)
REMARK    1  A    between atoms: C_1  and  N_2
REMARK    2  A    between atoms: N_2  and  C_3
REMARK    3  A    between atoms: N_2  and  S_8
REMARK    4  A    between atoms: S_8  and  C_11
REMARK                            x       y       z     vdW  Elec       q    Type
REMARK                         _______ _______ _______ _____ _____    ______ ____
ROOT
ATOM      1  S   UNL     1       5.875   5.154  18.105  0.00  0.00    +0.000 S 
ATOM      2  O   UNL     1       6.878   4.112  18.099  0.00  0.00    +0.000 OA
ATOM      3  O   UNL     1       6.192   6.504  18.506  0.00  0.00    +0.000 OA
ENDROOT
BRANCH   1   4
ATOM      4  C   UNL     1       4.528   4.511  19.078  0.00  0.00    +0.000 A 
ATOM      5  C   UNL     1       4.660   3.180  19.524  0.00  0.00    +0.000 A 
ATOM      6  C   UNL     1       3.660   2.588  20.299  0.00  0.00    +0.000 A 
ATOM      7  C   UNL     1       2.530   3.326  20.639  0.00  0.00    +0.000 A 
ATOM      8 CL   UNL     1       1.300   2.593  21.597  0.00  0.00    +0.000 Cl
ATOM      9  C   UNL     1       2.407   4.649  20.215  0.00  0.00    +0.000 A 
ATOM     10  F   UNL     1       1.311   5.345  20.560  0.00  0.00    +0.000 F 
ATOM     11  C   UNL     1       3.401   5.256  19.433  0.00  0.00    +0.000 A 
ATOM     12 CL   UNL     1       3.127   6.904  19.003  0.00  0.00    +0.000 Cl
ENDBRANCH   1   4
BRANCH   1  14
ATOM     13  C   UNL     1       4.924   6.661  16.072  0.00  0.00    +0.000 C 
ATOM     14  N   UNL     1       5.222   5.273  16.521  0.00  0.00    +0.000 NA
BRANCH  14  15
ATOM     15  C   UNL     1       5.919   4.515  15.422  0.00  0.00    +0.000 C 
ATOM     16  C   UNL     1       5.075   4.217  14.199  0.00  0.00    +0.000 C 
ATOM     17  C   UNL     1       6.123   3.674  13.250  0.00  0.00    +0.000 C 
ATOM     18  O   UNL     1       7.349   4.363  13.549  0.00  0.00    +0.000 OA
ATOM     19  C   UNL     1       7.153   5.121  14.766  0.00  0.00    +0.000 C 
ENDBRANCH  14  15
ENDBRANCH   1  14
TORSDOF 3
ENDMDL
MODEL 8
REMARK VINA RESULT:      -6.4      3.461      5.629
REMARK  Name = 
REMARK  4 active torsions:
REMARK  status: ('A' for Active; 'I' for Inactive)
REMARK    1  A    between atoms: C_1  and  N_2
REMARK    2  A    between atoms: N_2  and  C_3
REMARK    3  A    between atoms: N_2  and  S_8
REMARK    4  A    between atoms: S_8  and  C_11
REMARK                            x       y       z     vdW  Elec       q    Type
REMARK                         _______ _______ _______ _____ _____    ______ ____
ROOT
ATOM      1  S   UNL     1       5.134   4.338  19.126  0.00  0.00    +0.000 S 
ATOM      2  O   UNL     1       5.908   5.313  19.862  0.00  0.00    +0.000 OA
ATOM      3  O   UNL     1       5.089   2.953  19.524  0.00  0.00    +0.000 OA
ENDROOT
BRANCH   1   4
ATOM      4  C   UNL     1       5.670   4.488  17.433  0.00  0.00    +0.000 A 
ATOM      5  C   UNL     1       6.977   4.977  17.232  0.00  0.00    +0.000 A 
ATOM      6  C   UNL     1       7.491   5.123  15.942  0.00  0.00    +0.000 A 
ATOM      7  C   UNL     1       6.705   4.773  14.848  0.00  0.00    +0.000 A 
ATOM      8 CL   UNL     1       7.343   4.953  13.258  0.00  0.00    +0.000 Cl
ATOM      9  C   UNL     1       5.419   4.272  15.045  0.00  0.00    +0.000 A 
ATOM     10  F   UNL     1       4.679   3.935  13.975  0.00  0.00    +0.000 F 
ATOM     11  C   UNL     1       4.887   4.123  16.334  0.00  0.00    +0.000 A 
ATOM     12 CL   UNL     1       3.294   3.468  16.428  0.00  0.00    +0.000 Cl
ENDBRANCH   1   4
BRANCH   1  14
ATOM     13  C   UNL     1       2.615   4.233  20.102  0.00  0.00    +0.000 C 
ATOM     14  N   UNL     1       3.502   4.873  19.091  0.00  0.00    +0.000 NA
BRANCH  14  15
ATOM     15  C   UNL     1       3.257   6.359  19.059  0.00  0.00    +0.000 C 
ATOM     16  C   UNL     1       2.890   6.929  17.703  0.00  0.00    +0.000 C 
ATOM     17  C   UNL     1       2.506   8.345  18.080  0.00  0.00    +0.000 C 
ATOM     18  O   UNL     1       1.927   8.281  19.394  0.00  0.00    +0.000 OA
ATOM     19  C   UNL     1       2.146   6.950  19.917  0.00  0.00    +0.000 C 
ENDBRANCH  14  15
ENDBRANCH   1  14
TORSDOF 3
ENDMDL
MODEL 9
REMARK VINA RESULT:      -6.2      3.430      5.470
REMARK  Name = 
REMARK  4 active torsions:
REMARK  status: ('A' for Active; 'I' for Inactive)
REMARK    1  A    between atoms: C_1  and  N_2
REMARK    2  A    between atoms: N_2  and  C_3
REMARK    3  A    between atoms: N_2  and  S_8
REMARK    4  A    between atoms: S_8  and  C_11
REMARK                            x       y       z     vdW  Elec       q    Type
REMARK                         _______ _______ _______ _____ _____    ______ ____
ROOT
ATOM      1  S   UNL     1       4.183   2.841  18.923  0.00  0.00    +0.000 S 
ATOM      2  O   UNL     1       4.728   2.414  20.194  0.00  0.00    +0.000 OA
ATOM      3  O   UNL     1       3.990   1.914  17.835  0.00  0.00    +0.000 OA
ENDROOT
BRANCH   1   4
ATOM      4  C   UNL     1       5.199   4.211  18.408  0.00  0.00    +0.000 A 
ATOM      5  C   UNL     1       6.057   4.756  19.386  0.00  0.00    +0.000 A 
ATOM      6  C   UNL     1       6.897   5.827  19.077  0.00  0.00    +0.000 A 
ATOM      7  C   UNL     1       6.892   6.352  17.788  0.00  0.00    +0.000 A 
ATOM      8 CL   UNL     1       7.932   7.672  17.410  0.00  0.00    +0.000 Cl
ATOM      9  C   UNL     1       6.059   5.803  16.814  0.00  0.00    +0.000 A 
ATOM     10  F   UNL     1       6.074   6.321  15.574  0.00  0.00    +0.000 F 
ATOM     11  C   UNL     1       5.206   4.729  17.110  0.00  0.00    +0.000 A 
ATOM     12 CL   UNL     1       4.251   4.135  15.802  0.00  0.00    +0.000 Cl
ENDBRANCH   1   4
BRANCH   1  14
ATOM     13  C   UNL     1       1.706   2.703  19.997  0.00  0.00    +0.000 C 
ATOM     14  N   UNL     1       2.647   3.553  19.216  0.00  0.00    +0.000 NA
BRANCH  14  15
ATOM     15  C   UNL     1       2.623   4.964  19.742  0.00  0.00    +0.000 C 
ATOM     16  C   UNL     1       2.349   6.039  18.709  0.00  0.00    +0.000 C 
ATOM     17  C   UNL     1       2.176   7.254  19.596  0.00  0.00    +0.000 C 
ATOM     18  O   UNL     1       1.590   6.791  20.823  0.00  0.00    +0.000 OA
ATOM     19  C   UNL     1       1.608   5.344  20.812  0.00  0.00    +0.000 C 
ENDBRANCH  14  15
ENDBRANCH   1  14
TORSDOF 3
ENDMDL
