MODEL 1
REMARK VINA RESULT:      -8.6      0.000      0.000
REMARK  Name = 
REMARK  7 active torsions:
REMARK  status: ('A' for Active; 'I' for Inactive)
REMARK    1  A    between atoms: C_2  and  C_10
REMARK    2  A    between atoms: N_3  and  C_4
REMARK    3  A    between atoms: C_4  and  C_5
REMARK    4  A    between atoms: C_15  and  N_16
REMARK    5  A    between atoms: N_16  and  S_17
REMARK    6  A    between atoms: S_17  and  C_20
REMARK    7  A    between atoms: C_24  and  N_25
REMARK                            x       y       z     vdW  Elec       q    Type
REMARK                         _______ _______ _______ _____ _____    ______ ____
ROOT
ATOM      1  C   UNL     1       3.295   3.673  19.068  0.00  0.00    +0.000 A 
ATOM      2  C   UNL     1       2.759   2.383  19.241  0.00  0.00    +0.000 A 
ATOM      3  C   UNL     1       1.833   2.119  20.250  0.00  0.00    +0.000 A 
ATOM      4  C   UNL     1       1.434   3.143  21.102  0.00  0.00    +0.000 A 
ATOM      5  C   UNL     1       1.950   4.432  20.940  0.00  0.00    +0.000 A 
ATOM      6  C   UNL     1       2.878   4.712  19.926  0.00  0.00    +0.000 A 
ENDROOT
BRANCH   1   8
ATOM      7  O   UNL     1       3.692   3.746  16.749  0.00  0.00    +0.000 OA
ATOM      8  C   UNL     1       4.177   3.835  17.875  0.00  0.00    +0.000 C 
ATOM      9  N   UNL     1       5.517   4.008  18.094  0.00  0.00    +0.000 N 
ATOM     10  H   UNL     1       5.901   3.801  19.014  0.00  0.00    +0.000 HD
BRANCH   9  11
ATOM     11  C   UNL     1       6.497   4.132  17.029  0.00  0.00    +0.000 C 
BRANCH  11  12
ATOM     12  C   UNL     1       7.575   5.175  17.338  0.00  0.00    +0.000 C 
ATOM     13  C   UNL     1       7.606   5.669  18.777  0.00  0.00    +0.000 C 
ATOM     14  C   UNL     1       8.127   7.075  18.623  0.00  0.00    +0.000 C 
ATOM     15  C   UNL     1       7.493   7.507  17.320  0.00  0.00    +0.000 C 
ATOM     16  O   UNL     1       7.403   6.339  16.498  0.00  0.00    +0.000 OA
ENDBRANCH  11  12
ENDBRANCH   9  11
ENDBRANCH   1   8
BRANCH   6  17
ATOM     17  N   UNL     1       3.248   6.082  19.740  0.00  0.00    +0.000 N 
ATOM     18  H   UNL     1       4.164   6.365  20.078  0.00  0.00    +0.000 HD
BRANCH  17  19
ATOM     19  S   UNL     1       2.685   6.966  18.422  0.00  0.00    +0.000 S 
ATOM     20  O   UNL     1       3.819   7.431  17.661  0.00  0.00    +0.000 OA
ATOM     21  O   UNL     1       1.620   6.188  17.824  0.00  0.00    +0.000 OA
BRANCH  19  22
ATOM     22  C   UNL     1       1.900   8.384  19.139  0.00  0.00    +0.000 A 
ATOM     23  C   UNL     1       1.627   9.509  18.351  0.00  0.00    +0.000 A 
ATOM     24  C   UNL     1       0.945  10.592  18.907  0.00  0.00    +0.000 A 
ATOM     25  C   UNL     1       0.545  10.556  20.244  0.00  0.00    +0.000 A 
ATOM     26  C   UNL     1       0.813   9.419  21.021  0.00  0.00    +0.000 A 
ATOM     27  C   UNL     1       1.478   8.319  20.470  0.00  0.00    +0.000 A 
BRANCH  26  28
ATOM     28  N   UNL     1       0.401   9.379  22.428  0.00  0.00    +0.000 N 
ATOM     29  O   UNL     1      -0.777   9.088  22.675  0.00  0.00    +0.000 OA
ATOM     30  O   UNL     1       1.254   9.661  23.281  0.00  0.00    +0.000 OA
ENDBRANCH  26  28
ENDBRANCH  19  22
ENDBRANCH  17  19
ENDBRANCH   6  17
TORSDOF 7
ENDMDL
MODEL 2
REMARK VINA RESULT:      -8.4      1.924      4.456
REMARK  Name = 
REMARK  7 active torsions:
REMARK  status: ('A' for Active; 'I' for Inactive)
REMARK    1  A    between atoms: C_2  and  C_10
REMARK    2  A    between atoms: N_3  and  C_4
REMARK    3  A    between atoms: C_4  and  C_5
REMARK    4  A    between atoms: C_15  and  N_16
REMARK    5  A    between atoms: N_16  and  S_17
REMARK    6  A    between atoms: S_17  and  C_20
REMARK    7  A    between atoms: C_24  and  N_25
REMARK                            x       y       z     vdW  Elec       q    Type
REMARK                         _______ _______ _______ _____ _____    ______ ____
ROOT
ATOM      1  C   UNL     1       5.385   4.511  17.185  0.00  0.00    +0.000 A 
ATOM      2  C   UNL     1       6.041   3.766  16.187  0.00  0.00    +0.000 A 
ATOM      3  C   UNL     1       6.224   4.284  14.905  0.00  0.00    +0.000 A 
ATOM      4  C   UNL     1       5.749   5.555  14.604  0.00  0.00    +0.000 A 
ATOM      5  C   UNL     1       5.101   6.313  15.584  0.00  0.00    +0.000 A 
ATOM      6  C   UNL     1       4.915   5.805  16.879  0.00  0.00    +0.000 A 
ENDROOT
BRANCH   1   8
ATOM      7  O   UNL     1       6.112   4.321  19.416  0.00  0.00    +0.000 OA
ATOM      8  C   UNL     1       5.372   3.882  18.538  0.00  0.00    +0.000 C 
ATOM      9  N   UNL     1       4.576   2.782  18.719  0.00  0.00    +0.000 N 
ATOM     10  H   UNL     1       4.203   2.299  17.904  0.00  0.00    +0.000 HD
BRANCH   9  11
ATOM     11  C   UNL     1       4.500   2.041  19.967  0.00  0.00    +0.000 C 
BRANCH  11  12
ATOM     12  C   UNL     1       3.070   1.942  20.507  0.00  0.00    +0.000 C 
ATOM     13  C   UNL     1       2.004   2.597  19.641  0.00  0.00    +0.000 C 
ATOM     14  C   UNL     1       0.974   3.015  20.661  0.00  0.00    +0.000 C 
ATOM     15  C   UNL     1       1.837   3.408  21.839  0.00  0.00    +0.000 C 
ATOM     16  O   UNL     1       2.984   2.553  21.814  0.00  0.00    +0.000 OA
ENDBRANCH  11  12
ENDBRANCH   9  11
ENDBRANCH   1   8
BRANCH   6  17
ATOM     17  N   UNL     1       4.371   6.696  17.857  0.00  0.00    +0.000 N 
ATOM     18  H   UNL     1       4.542   7.691  17.725  0.00  0.00    +0.000 HD
BRANCH  17  19
ATOM     19  S   UNL     1       2.939   6.336  18.665  0.00  0.00    +0.000 S 
ATOM     20  O   UNL     1       2.100   5.552  17.791  0.00  0.00    +0.000 OA
ATOM     21  O   UNL     1       3.312   5.882  19.989  0.00  0.00    +0.000 OA
BRANCH  19  22
ATOM     22  C   UNL     1       2.152   7.907  18.900  0.00  0.00    +0.000 A 
ATOM     23  C   UNL     1       2.036   8.801  17.828  0.00  0.00    +0.000 A 
ATOM     24  C   UNL     1       1.353  10.004  18.004  0.00  0.00    +0.000 A 
ATOM     25  C   UNL     1       0.796  10.318  19.245  0.00  0.00    +0.000 A 
ATOM     26  C   UNL     1       0.907   9.410  20.309  0.00  0.00    +0.000 A 
ATOM     27  C   UNL     1       1.572   8.191  20.139  0.00  0.00    +0.000 A 
BRANCH  26  28
ATOM     28  N   UNL     1       0.330   9.737  21.617  0.00  0.00    +0.000 N 
ATOM     29  O   UNL     1      -0.350   8.868  22.180  0.00  0.00    +0.000 OA
ATOM     30  O   UNL     1       0.540  10.873  22.066  0.00  0.00    +0.000 OA
ENDBRANCH  26  28
ENDBRANCH  19  22
ENDBRANCH  17  19
ENDBRANCH   6  17
TORSDOF 7
ENDMDL
MODEL 3
REMARK VINA RESULT:      -8.1      1.485      2.041
REMARK  Name = 
REMARK  7 active torsions:
REMARK  status: ('A' for Active; 'I' for Inactive)
REMARK    1  A    between atoms: C_2  and  C_10
REMARK    2  A    between atoms: N_3  and  C_4
REMARK    3  A    between atoms: C_4  and  C_5
REMARK    4  A    between atoms: C_15  and  N_16
REMARK    5  A    between atoms: N_16  and  S_17
REMARK    6  A    between atoms: S_17  and  C_20
REMARK    7  A    between atoms: C_24  and  N_25
REMARK                            x       y       z     vdW  Elec       q    Type
REMARK                         _______ _______ _______ _____ _____    ______ ____
ROOT
ATOM      1  C   UNL     1       3.722   4.036  19.414  0.00  0.00    +0.000 A 
ATOM      2  C   UNL     1       3.423   2.665  19.299  0.00  0.00    +0.000 A 
ATOM      3  C   UNL     1       2.197   2.158  19.729  0.00  0.00    +0.000 A 
ATOM      4  C   UNL     1       1.254   3.016  20.282  0.00  0.00    +0.000 A 
ATOM      5  C   UNL     1       1.531   4.382  20.398  0.00  0.00    +0.000 A 
ATOM      6  C   UNL     1       2.759   4.905  19.965  0.00  0.00    +0.000 A 
ENDROOT
BRANCH   1   8
ATOM      7  O   UNL     1       5.701   5.310  19.358  0.00  0.00    +0.000 OA
ATOM      8  C   UNL     1       5.018   4.453  18.801  0.00  0.00    +0.000 C 
ATOM      9  N   UNL     1       5.355   3.903  17.593  0.00  0.00    +0.000 N 
ATOM     10  H   UNL     1       4.642   3.419  17.051  0.00  0.00    +0.000 HD
BRANCH   9  11
ATOM     11  C   UNL     1       6.561   4.250  16.861  0.00  0.00    +0.000 C 
BRANCH  11  12
ATOM     12  C   UNL     1       6.267   4.743  15.441  0.00  0.00    +0.000 C 
ATOM     13  C   UNL     1       5.969   3.650  14.424  0.00  0.00    +0.000 C 
ATOM     14  C   UNL     1       6.465   4.263  13.139  0.00  0.00    +0.000 C 
ATOM     15  C   UNL     1       7.678   5.038  13.605  0.00  0.00    +0.000 C 
ATOM     16  O   UNL     1       7.389   5.497  14.930  0.00  0.00    +0.000 OA
ENDBRANCH  11  12
ENDBRANCH   9  11
ENDBRANCH   1   8
BRANCH   6  17
ATOM     17  N   UNL     1       2.905   6.329  19.988  0.00  0.00    +0.000 N 
ATOM     18  H   UNL     1       3.641   6.710  20.578  0.00  0.00    +0.000 HD
BRANCH  17  19
ATOM     19  S   UNL     1       2.538   7.266  18.638  0.00  0.00    +0.000 S 
ATOM     20  O   UNL     1       3.764   7.809  18.105  0.00  0.00    +0.000 OA
ATOM     21  O   UNL     1       1.622   6.488  17.829  0.00  0.00    +0.000 OA
BRANCH  19  22
ATOM     22  C   UNL     1       1.585   8.616  19.279  0.00  0.00    +0.000 A 
ATOM     23  C   UNL     1       1.066   9.584  18.410  0.00  0.00    +0.000 A 
ATOM     24  C   UNL     1       0.258  10.602  18.916  0.00  0.00    +0.000 A 
ATOM     25  C   UNL     1      -0.024  10.660  20.282  0.00  0.00    +0.000 A 
ATOM     26  C   UNL     1       0.491   9.679  21.141  0.00  0.00    +0.000 A 
ATOM     27  C   UNL     1       1.286   8.640  20.644  0.00  0.00    +0.000 A 
BRANCH  26  28
ATOM     28  N   UNL     1       0.204   9.738  22.579  0.00  0.00    +0.000 N 
ATOM     29  O   UNL     1      -0.978   9.866  22.925  0.00  0.00    +0.000 OA
ATOM     30  O   UNL     1       1.167   9.680  23.356  0.00  0.00    +0.000 OA
ENDBRANCH  26  28
ENDBRANCH  19  22
ENDBRANCH  17  19
ENDBRANCH   6  17
TORSDOF 7
ENDMDL
MODEL 4
REMARK VINA RESULT:      -8.1      0.866      1.097
REMARK  Name = 
REMARK  7 active torsions:
REMARK  status: ('A' for Active; 'I' for Inactive)
REMARK    1  A    between atoms: C_2  and  C_10
REMARK    2  A    between atoms: N_3  and  C_4
REMARK    3  A    between atoms: C_4  and  C_5
REMARK    4  A    between atoms: C_15  and  N_16
REMARK    5  A    between atoms: N_16  and  S_17
REMARK    6  A    between atoms: S_17  and  C_20
REMARK    7  A    between atoms: C_24  and  N_25
REMARK                            x       y       z     vdW  Elec       q    Type
REMARK                         _______ _______ _______ _____ _____    ______ ____
ROOT
ATOM      1  C   UNL     1       3.110   3.325  19.069  0.00  0.00    +0.000 A 
ATOM      2  C   UNL     1       2.988   2.258  19.979  0.00  0.00    +0.000 A 
ATOM      3  C   UNL     1       2.002   2.263  20.965  0.00  0.00    +0.000 A 
ATOM      4  C   UNL     1       1.126   3.339  21.056  0.00  0.00    +0.000 A 
ATOM      5  C   UNL     1       1.228   4.405  20.157  0.00  0.00    +0.000 A 
ATOM      6  C   UNL     1       2.212   4.409  19.157  0.00  0.00    +0.000 A 
ENDROOT
BRANCH   1   8
ATOM      7  O   UNL     1       4.080   2.114  17.299  0.00  0.00    +0.000 OA
ATOM      8  C   UNL     1       4.126   3.126  17.995  0.00  0.00    +0.000 C 
ATOM      9  N   UNL     1       5.121   4.061  17.880  0.00  0.00    +0.000 N 
ATOM     10  H   UNL     1       5.274   4.719  18.641  0.00  0.00    +0.000 HD
BRANCH   9  11
ATOM     11  C   UNL     1       6.201   3.971  16.913  0.00  0.00    +0.000 C 
BRANCH  11  12
ATOM     12  C   UNL     1       7.298   5.012  17.155  0.00  0.00    +0.000 C 
ATOM     13  C   UNL     1       7.503   5.411  18.609  0.00  0.00    +0.000 C 
ATOM     14  C   UNL     1       7.984   6.835  18.487  0.00  0.00    +0.000 C 
ATOM     15  C   UNL     1       7.187   7.339  17.305  0.00  0.00    +0.000 C 
ATOM     16  O   UNL     1       7.008   6.225  16.424  0.00  0.00    +0.000 OA
ENDBRANCH  11  12
ENDBRANCH   9  11
ENDBRANCH   1   8
BRANCH   6  17
ATOM     17  N   UNL     1       2.158   5.465  18.193  0.00  0.00    +0.000 N 
ATOM     18  H   UNL     1       1.256   5.655  17.763  0.00  0.00    +0.000 HD
BRANCH  17  19
ATOM     19  S   UNL     1       3.171   6.806  18.309  0.00  0.00    +0.000 S 
ATOM     20  O   UNL     1       4.159   6.551  19.329  0.00  0.00    +0.000 OA
ATOM     21  O   UNL     1       3.534   7.170  16.955  0.00  0.00    +0.000 OA
BRANCH  19  22
ATOM     22  C   UNL     1       2.120   8.109  18.892  0.00  0.00    +0.000 A 
ATOM     23  C   UNL     1       1.604   9.050  17.992  0.00  0.00    +0.000 A 
ATOM     24  C   UNL     1       0.722  10.029  18.448  0.00  0.00    +0.000 A 
ATOM     25  C   UNL     1       0.362  10.075  19.797  0.00  0.00    +0.000 A 
ATOM     26  C   UNL     1       0.875   9.120  20.687  0.00  0.00    +0.000 A 
ATOM     27  C   UNL     1       1.745   8.120  20.238  0.00  0.00    +0.000 A 
BRANCH  26  28
ATOM     28  N   UNL     1       0.507   9.166  22.106  0.00  0.00    +0.000 N 
ATOM     29  O   UNL     1       1.383   9.494  22.918  0.00  0.00    +0.000 OA
ATOM     30  O   UNL     1      -0.653   8.851  22.406  0.00  0.00    +0.000 OA
ENDBRANCH  26  28
ENDBRANCH  19  22
ENDBRANCH  17  19
ENDBRANCH   6  17
TORSDOF 7
ENDMDL
MODEL 5
REMARK VINA RESULT:      -8.1      1.413      4.312
REMARK  Name = 
REMARK  7 active torsions:
REMARK  status: ('A' for Active; 'I' for Inactive)
REMARK    1  A    between atoms: C_2  and  C_10
REMARK    2  A    between atoms: N_3  and  C_4
REMARK    3  A    between atoms: C_4  and  C_5
REMARK    4  A    between atoms: C_15  and  N_16
REMARK    5  A    between atoms: N_16  and  S_17
REMARK    6  A    between atoms: S_17  and  C_20
REMARK    7  A    between atoms: C_24  and  N_25
REMARK                            x       y       z     vdW  Elec       q    Type
REMARK                         _______ _______ _______ _____ _____    ______ ____
ROOT
ATOM      1  C   UNL     1       5.533   4.883  17.442  0.00  0.00    +0.000 A 
ATOM      2  C   UNL     1       6.855   4.478  17.707  0.00  0.00    +0.000 A 
ATOM      3  C   UNL     1       7.855   5.413  17.971  0.00  0.00    +0.000 A 
ATOM      4  C   UNL     1       7.546   6.769  17.970  0.00  0.00    +0.000 A 
ATOM      5  C   UNL     1       6.237   7.190  17.717  0.00  0.00    +0.000 A 
ATOM      6  C   UNL     1       5.221   6.258  17.454  0.00  0.00    +0.000 A 
ENDROOT
BRANCH   1   8
ATOM      7  O   UNL     1       3.812   3.737  16.318  0.00  0.00    +0.000 OA
ATOM      8  C   UNL     1       4.549   3.771  17.301  0.00  0.00    +0.000 C 
ATOM      9  N   UNL     1       4.462   2.865  18.325  0.00  0.00    +0.000 N 
ATOM     10  H   UNL     1       4.887   3.088  19.223  0.00  0.00    +0.000 HD
BRANCH   9  11
ATOM     11  C   UNL     1       3.519   1.760  18.343  0.00  0.00    +0.000 C 
BRANCH  11  12
ATOM     12  C   UNL     1       2.529   1.850  19.509  0.00  0.00    +0.000 C 
ATOM     13  C   UNL     1       1.249   2.619  19.214  0.00  0.00    +0.000 C 
ATOM     14  C   UNL     1       0.892   3.179  20.568  0.00  0.00    +0.000 C 
ATOM     15  C   UNL     1       2.253   3.482  21.155  0.00  0.00    +0.000 C 
ATOM     16  O   UNL     1       3.150   2.489  20.646  0.00  0.00    +0.000 OA
ENDBRANCH  11  12
ENDBRANCH   9  11
ENDBRANCH   1   8
BRANCH   6  17
ATOM     17  N   UNL     1       3.886   6.762  17.346  0.00  0.00    +0.000 N 
ATOM     18  H   UNL     1       3.504   6.867  16.409  0.00  0.00    +0.000 HD
BRANCH  17  19
ATOM     19  S   UNL     1       2.737   6.452  18.537  0.00  0.00    +0.000 S 
ATOM     20  O   UNL     1       1.690   5.638  17.968  0.00  0.00    +0.000 OA
ATOM     21  O   UNL     1       3.465   6.055  19.724  0.00  0.00    +0.000 OA
BRANCH  19  22
ATOM     22  C   UNL     1       2.041   8.040  18.909  0.00  0.00    +0.000 A 
ATOM     23  C   UNL     1       1.857   8.981  17.889  0.00  0.00    +0.000 A 
ATOM     24  C   UNL     1       1.244  10.200  18.179  0.00  0.00    +0.000 A 
ATOM     25  C   UNL     1       0.824  10.482  19.481  0.00  0.00    +0.000 A 
ATOM     26  C   UNL     1       1.003   9.526  20.492  0.00  0.00    +0.000 A 
ATOM     27  C   UNL     1       1.598   8.292  20.210  0.00  0.00    +0.000 A 
BRANCH  26  28
ATOM     28  N   UNL     1       0.570   9.819  21.862  0.00  0.00    +0.000 N 
ATOM     29  O   UNL     1       1.328   9.494  22.787  0.00  0.00    +0.000 OA
ATOM     30  O   UNL     1      -0.538  10.351  22.010  0.00  0.00    +0.000 OA
ENDBRANCH  26  28
ENDBRANCH  19  22
ENDBRANCH  17  19
ENDBRANCH   6  17
TORSDOF 7
ENDMDL
MODEL 6
REMARK VINA RESULT:      -7.8      1.688      1.920
REMARK  Name = 
REMARK  7 active torsions:
REMARK  status: ('A' for Active; 'I' for Inactive)
REMARK    1  A    between atoms: C_2  and  C_10
REMARK    2  A    between atoms: N_3  and  C_4
REMARK    3  A    between atoms: C_4  and  C_5
REMARK    4  A    between atoms: C_15  and  N_16
REMARK    5  A    between atoms: N_16  and  S_17
REMARK    6  A    between atoms: S_17  and  C_20
REMARK    7  A    between atoms: C_24  and  N_25
REMARK                            x       y       z     vdW  Elec       q    Type
REMARK                         _______ _______ _______ _____ _____    ______ ____
ROOT
ATOM      1  C   UNL     1       3.342   3.500  19.286  0.00  0.00    +0.000 A 
ATOM      2  C   UNL     1       2.720   2.266  19.553  0.00  0.00    +0.000 A 
ATOM      3  C   UNL     1       1.783   2.139  20.578  0.00  0.00    +0.000 A 
ATOM      4  C   UNL     1       1.458   3.247  21.353  0.00  0.00    +0.000 A 
ATOM      5  C   UNL     1       2.061   4.483  21.099  0.00  0.00    +0.000 A 
ATOM      6  C   UNL     1       3.002   4.624  20.067  0.00  0.00    +0.000 A 
ENDROOT
BRANCH   1   8
ATOM      7  O   UNL     1       4.030   2.706  17.180  0.00  0.00    +0.000 OA
ATOM      8  C   UNL     1       4.227   3.514  18.085  0.00  0.00    +0.000 C 
ATOM      9  N   UNL     1       5.277   4.394  18.080  0.00  0.00    +0.000 N 
ATOM     10  H   UNL     1       5.557   4.838  18.952  0.00  0.00    +0.000 HD
BRANCH   9  11
ATOM     11  C   UNL     1       6.244   4.485  17.000  0.00  0.00    +0.000 C 
BRANCH  11  12
ATOM     12  C   UNL     1       7.432   5.387  17.346  0.00  0.00    +0.000 C 
ATOM     13  C   UNL     1       7.498   5.843  18.797  0.00  0.00    +0.000 C 
ATOM     14  C   UNL     1       8.182   7.182  18.683  0.00  0.00    +0.000 C 
ATOM     15  C   UNL     1       7.623   7.713  17.382  0.00  0.00    +0.000 C 
ATOM     16  O   UNL     1       7.409   6.581  16.532  0.00  0.00    +0.000 OA
ENDBRANCH  11  12
ENDBRANCH   9  11
ENDBRANCH   1   8
BRANCH   6  17
ATOM     17  N   UNL     1       3.463   5.948  19.782  0.00  0.00    +0.000 N 
ATOM     18  H   UNL     1       4.446   6.144  19.953  0.00  0.00    +0.000 HD
BRANCH  17  19
ATOM     19  S   UNL     1       2.771   6.868  18.553  0.00  0.00    +0.000 S 
ATOM     20  O   UNL     1       3.827   7.504  17.803  0.00  0.00    +0.000 OA
ATOM     21  O   UNL     1       1.771   6.032  17.922  0.00  0.00    +0.000 OA
BRANCH  19  22
ATOM     22  C   UNL     1       1.872   8.139  19.399  0.00  0.00    +0.000 A 
ATOM     23  C   UNL     1       1.521   7.974  20.745  0.00  0.00    +0.000 A 
ATOM     24  C   UNL     1       0.876   9.008  21.422  0.00  0.00    +0.000 A 
ATOM     25  C   UNL     1       0.574  10.199  20.758  0.00  0.00    +0.000 A 
ATOM     26  C   UNL     1       0.941  10.359  19.414  0.00  0.00    +0.000 A 
ATOM     27  C   UNL     1       1.607   9.336  18.729  0.00  0.00    +0.000 A 
BRANCH  26  28
ATOM     28  N   UNL     1       0.621  11.605  18.708  0.00  0.00    +0.000 N 
ATOM     29  O   UNL     1      -0.568  11.826  18.441  0.00  0.00    +0.000 OA
ATOM     30  O   UNL     1       1.565  12.346  18.402  0.00  0.00    +0.000 OA
ENDBRANCH  26  28
ENDBRANCH  19  22
ENDBRANCH  17  19
ENDBRANCH   6  17
TORSDOF 7
ENDMDL
MODEL 7
REMARK VINA RESULT:      -7.8      1.889      2.150
REMARK  Name = 
REMARK  7 active torsions:
REMARK  status: ('A' for Active; 'I' for Inactive)
REMARK    1  A    between atoms: C_2  and  C_10
REMARK    2  A    between atoms: N_3  and  C_4
REMARK    3  A    between atoms: C_4  and  C_5
REMARK    4  A    between atoms: C_15  and  N_16
REMARK    5  A    between atoms: N_16  and  S_17
REMARK    6  A    between atoms: S_17  and  C_20
REMARK    7  A    between atoms: C_24  and  N_25
REMARK                            x       y       z     vdW  Elec       q    Type
REMARK                         _______ _______ _______ _____ _____    ______ ____
ROOT
ATOM      1  C   UNL     1       3.236   3.468  17.887  0.00  0.00    +0.000 A 
ATOM      2  C   UNL     1       3.234   2.103  18.232  0.00  0.00    +0.000 A 
ATOM      3  C   UNL     1       2.242   1.570  19.055  0.00  0.00    +0.000 A 
ATOM      4  C   UNL     1       1.239   2.399  19.547  0.00  0.00    +0.000 A 
ATOM      5  C   UNL     1       1.221   3.755  19.210  0.00  0.00    +0.000 A 
ATOM      6  C   UNL     1       2.211   4.302  18.378  0.00  0.00    +0.000 A 
ENDROOT
BRANCH   1   8
ATOM      7  O   UNL     1       3.948   4.222  15.774  0.00  0.00    +0.000 OA
ATOM      8  C   UNL     1       4.283   3.868  16.903  0.00  0.00    +0.000 C 
ATOM      9  N   UNL     1       5.593   3.753  17.286  0.00  0.00    +0.000 N 
ATOM     10  H   UNL     1       5.822   3.204  18.113  0.00  0.00    +0.000 HD
BRANCH   9  11
ATOM     11  C   UNL     1       6.716   4.062  16.417  0.00  0.00    +0.000 C 
BRANCH  11  12
ATOM     12  C   UNL     1       7.671   5.089  17.032  0.00  0.00    +0.000 C 
ATOM     13  C   UNL     1       7.512   5.308  18.529  0.00  0.00    +0.000 C 
ATOM     14  C   UNL     1       7.936   6.746  18.691  0.00  0.00    +0.000 C 
ATOM     15  C   UNL     1       7.410   7.376  17.420  0.00  0.00    +0.000 C 
ATOM     16  O   UNL     1       7.498   6.377  16.399  0.00  0.00    +0.000 OA
ENDBRANCH  11  12
ENDBRANCH   9  11
ENDBRANCH   1   8
BRANCH   6  17
ATOM     17  N   UNL     1       2.040   5.662  17.969  0.00  0.00    +0.000 N 
ATOM     18  H   UNL     1       1.096   5.962  17.737  0.00  0.00    +0.000 HD
BRANCH  17  19
ATOM     19  S   UNL     1       3.034   6.885  18.564  0.00  0.00    +0.000 S 
ATOM     20  O   UNL     1       3.927   6.317  19.544  0.00  0.00    +0.000 OA
ATOM     21  O   UNL     1       3.516   7.625  17.416  0.00  0.00    +0.000 OA
BRANCH  19  22
ATOM     22  C   UNL     1       1.930   7.982  19.414  0.00  0.00    +0.000 A 
ATOM     23  C   UNL     1       1.608   7.751  20.757  0.00  0.00    +0.000 A 
ATOM     24  C   UNL     1       0.796   8.659  21.437  0.00  0.00    +0.000 A 
ATOM     25  C   UNL     1       0.300   9.786  20.778  0.00  0.00    +0.000 A 
ATOM     26  C   UNL     1       0.640  10.013  19.436  0.00  0.00    +0.000 A 
ATOM     27  C   UNL     1       1.470   9.121  18.749  0.00  0.00    +0.000 A 
BRANCH  26  28
ATOM     28  N   UNL     1       0.117  11.192  18.737  0.00  0.00    +0.000 N 
ATOM     29  O   UNL     1      -0.976  11.084  18.164  0.00  0.00    +0.000 OA
ATOM     30  O   UNL     1       0.815  12.215  18.742  0.00  0.00    +0.000 OA
ENDBRANCH  26  28
ENDBRANCH  19  22
ENDBRANCH  17  19
ENDBRANCH   6  17
TORSDOF 7
ENDMDL
MODEL 8
REMARK VINA RESULT:      -7.6      1.112      1.741
REMARK  Name = 
REMARK  7 active torsions:
REMARK  status: ('A' for Active; 'I' for Inactive)
REMARK    1  A    between atoms: C_2  and  C_10
REMARK    2  A    between atoms: N_3  and  C_4
REMARK    3  A    between atoms: C_4  and  C_5
REMARK    4  A    between atoms: C_15  and  N_16
REMARK    5  A    between atoms: N_16  and  S_17
REMARK    6  A    between atoms: S_17  and  C_20
REMARK    7  A    between atoms: C_24  and  N_25
REMARK                            x       y       z     vdW  Elec       q    Type
REMARK                         _______ _______ _______ _____ _____    ______ ____
ROOT
ATOM      1  C   UNL     1       3.587   3.624  19.452  0.00  0.00    +0.000 A 
ATOM      2  C   UNL     1       3.050   2.362  19.771  0.00  0.00    +0.000 A 
ATOM      3  C   UNL     1       2.065   2.226  20.749  0.00  0.00    +0.000 A 
ATOM      4  C   UNL     1       1.605   3.352  21.422  0.00  0.00    +0.000 A 
ATOM      5  C   UNL     1       2.121   4.614  21.114  0.00  0.00    +0.000 A 
ATOM      6  C   UNL     1       3.110   4.765  20.130  0.00  0.00    +0.000 A 
ENDROOT
BRANCH   1   8
ATOM      7  O   UNL     1       4.206   3.122  17.237  0.00  0.00    +0.000 OA
ATOM      8  C   UNL     1       4.541   3.632  18.305  0.00  0.00    +0.000 C 
ATOM      9  N   UNL     1       5.789   4.153  18.520  0.00  0.00    +0.000 N 
ATOM     10  H   UNL     1       6.106   4.306  19.475  0.00  0.00    +0.000 HD
BRANCH   9  11
ATOM     11  C   UNL     1       6.833   4.184  17.509  0.00  0.00    +0.000 C 
BRANCH  11  12
ATOM     12  C   UNL     1       6.329   4.698  16.158  0.00  0.00    +0.000 C 
ATOM     13  C   UNL     1       6.150   3.633  15.085  0.00  0.00    +0.000 C 
ATOM     14  C   UNL     1       6.410   4.407  13.817  0.00  0.00    +0.000 C 
ATOM     15  C   UNL     1       7.494   5.369  14.250  0.00  0.00    +0.000 C 
ATOM     16  O   UNL     1       7.243   5.682  15.623  0.00  0.00    +0.000 OA
ENDBRANCH  11  12
ENDBRANCH   9  11
ENDBRANCH   1   8
BRANCH   6  17
ATOM     17  N   UNL     1       3.481   6.101  19.777  0.00  0.00    +0.000 N 
ATOM     18  H   UNL     1       4.412   6.411  20.045  0.00  0.00    +0.000 HD
BRANCH  17  19
ATOM     19  S   UNL     1       2.873   6.839  18.390  0.00  0.00    +0.000 S 
ATOM     20  O   UNL     1       3.980   7.305  17.592  0.00  0.00    +0.000 OA
ATOM     21  O   UNL     1       1.858   5.952  17.860  0.00  0.00    +0.000 OA
BRANCH  19  22
ATOM     22  C   UNL     1       2.002   8.263  18.988  0.00  0.00    +0.000 A 
ATOM     23  C   UNL     1       1.805   9.367  18.150  0.00  0.00    +0.000 A 
ATOM     24  C   UNL     1       1.058  10.453  18.606  0.00  0.00    +0.000 A 
ATOM     25  C   UNL     1       0.517  10.442  19.893  0.00  0.00    +0.000 A 
ATOM     26  C   UNL     1       0.711   9.325  20.719  0.00  0.00    +0.000 A 
ATOM     27  C   UNL     1       1.441   8.221  20.267  0.00  0.00    +0.000 A 
BRANCH  26  28
ATOM     28  N   UNL     1       0.152   9.309  22.075  0.00  0.00    +0.000 N 
ATOM     29  O   UNL     1       0.585  10.140  22.886  0.00  0.00    +0.000 OA
ATOM     30  O   UNL     1      -0.702   8.449  22.331  0.00  0.00    +0.000 OA
ENDBRANCH  26  28
ENDBRANCH  19  22
ENDBRANCH  17  19
ENDBRANCH   6  17
TORSDOF 7
ENDMDL
MODEL 9
REMARK VINA RESULT:      -7.6      2.912      5.344
REMARK  Name = 
REMARK  7 active torsions:
REMARK  status: ('A' for Active; 'I' for Inactive)
REMARK    1  A    between atoms: C_2  and  C_10
REMARK    2  A    between atoms: N_3  and  C_4
REMARK    3  A    between atoms: C_4  and  C_5
REMARK    4  A    between atoms: C_15  and  N_16
REMARK    5  A    between atoms: N_16  and  S_17
REMARK    6  A    between atoms: S_17  and  C_20
REMARK    7  A    between atoms: C_24  and  N_25
REMARK                            x       y       z     vdW  Elec       q    Type
REMARK                         _______ _______ _______ _____ _____    ______ ____
ROOT
ATOM      1  C   UNL     1       6.676   5.816  16.980  0.00  0.00    +0.000 A 
ATOM      2  C   UNL     1       7.463   6.915  17.375  0.00  0.00    +0.000 A 
ATOM      3  C   UNL     1       7.902   7.050  18.691  0.00  0.00    +0.000 A 
ATOM      4  C   UNL     1       7.556   6.087  19.633  0.00  0.00    +0.000 A 
ATOM      5  C   UNL     1       6.780   4.986  19.259  0.00  0.00    +0.000 A 
ATOM      6  C   UNL     1       6.336   4.836  17.936  0.00  0.00    +0.000 A 
ENDROOT
BRANCH   1   8
ATOM      7  O   UNL     1       5.383   6.295  15.072  0.00  0.00    +0.000 OA
ATOM      8  C   UNL     1       6.385   5.740  15.519  0.00  0.00    +0.000 C 
ATOM      9  N   UNL     1       7.223   4.984  14.743  0.00  0.00    +0.000 N 
ATOM     10  H   UNL     1       7.863   4.332  15.193  0.00  0.00    +0.000 HD
BRANCH   9  11
ATOM     11  C   UNL     1       7.036   4.783  13.317  0.00  0.00    +0.000 C 
BRANCH  11  12
ATOM     12  C   UNL     1       6.233   3.518  13.000  0.00  0.00    +0.000 C 
ATOM     13  C   UNL     1       6.736   2.712  11.812  0.00  0.00    +0.000 C 
ATOM     14  C   UNL     1       5.470   2.080  11.292  0.00  0.00    +0.000 C 
ATOM     15  C   UNL     1       4.449   3.169  11.535  0.00  0.00    +0.000 C 
ATOM     16  O   UNL     1       4.854   3.855  12.725  0.00  0.00    +0.000 OA
ENDBRANCH  11  12
ENDBRANCH   9  11
ENDBRANCH   1   8
BRANCH   6  17
ATOM     17  N   UNL     1       5.670   3.614  17.606  0.00  0.00    +0.000 N 
ATOM     18  H   UNL     1       6.030   2.761  18.028  0.00  0.00    +0.000 HD
BRANCH  17  19
ATOM     19  S   UNL     1       4.021   3.582  17.266  0.00  0.00    +0.000 S 
ATOM     20  O   UNL     1       3.815   4.092  15.932  0.00  0.00    +0.000 OA
ATOM     21  O   UNL     1       3.537   2.281  17.679  0.00  0.00    +0.000 OA
BRANCH  19  22
ATOM     22  C   UNL     1       3.310   4.743  18.402  0.00  0.00    +0.000 A 
ATOM     23  C   UNL     1       3.114   4.384  19.741  0.00  0.00    +0.000 A 
ATOM     24  C   UNL     1       2.620   5.327  20.642  0.00  0.00    +0.000 A 
ATOM     25  C   UNL     1       2.316   6.619  20.208  0.00  0.00    +0.000 A 
ATOM     26  C   UNL     1       2.528   6.971  18.867  0.00  0.00    +0.000 A 
ATOM     27  C   UNL     1       3.041   6.040  17.958  0.00  0.00    +0.000 A 
BRANCH  26  28
ATOM     28  N   UNL     1       2.203   8.324  18.404  0.00  0.00    +0.000 N 
ATOM     29  O   UNL     1       1.573   9.061  19.174  0.00  0.00    +0.000 OA
ATOM     30  O   UNL     1       2.560   8.636  17.259  0.00  0.00    +0.000 OA
ENDBRANCH  26  28
ENDBRANCH  19  22
ENDBRANCH  17  19
ENDBRANCH   6  17
TORSDOF 7
ENDMDL
