MODEL 1
REMARK VINA RESULT:      -8.3      0.000      0.000
REMARK  Name = 
REMARK  11 active torsions:
REMARK  status: ('A' for Active; 'I' for Inactive)
REMARK    1  A    between atoms: C_2  and  O_3
REMARK    2  A    between atoms: C_2  and  C_24
REMARK    3  A    between atoms: O_3  and  C_4
REMARK    4  A    between atoms: C_7  and  O_8
REMARK    5  A    between atoms: C_10  and  O_11
REMARK    6  A    between atoms: C_15  and  C_16
REMARK    7  A    between atoms: C_19  and  O_20
REMARK    8  A    between atoms: C_21  and  O_22
REMARK    9  A    between atoms: C_26  and  O_27
REMARK   10  A    between atoms: C_28  and  O_29
REMARK   11  A    between atoms: C_30  and  O_31
REMARK                            x       y       z     vdW  Elec       q    Type
REMARK                         _______ _______ _______ _____ _____    ______ ____
ROOT
ATOM      1  C   UNL     1       2.292   7.402  17.652  0.00  0.00    +0.000 C 
ATOM      2  C   UNL     1       1.563   8.737  17.915  0.00  0.00    +0.000 C 
ATOM      3  C   UNL     1       1.362   9.055  19.381  0.00  0.00    +0.000 A 
ATOM      4  C   UNL     1       0.810  10.271  19.815  0.00  0.00    +0.000 A 
ATOM      5  C   UNL     1       0.583  10.529  21.169  0.00  0.00    +0.000 A 
ATOM      6  C   UNL     1       0.911   9.564  22.112  0.00  0.00    +0.000 A 
ATOM      7  C   UNL     1       1.465   8.356  21.717  0.00  0.00    +0.000 A 
ATOM      8  C   UNL     1       1.682   8.104  20.359  0.00  0.00    +0.000 A 
ATOM      9  O   UNL     1       2.240   6.891  20.063  0.00  0.00    +0.000 OA
ATOM     10  C   UNL     1       1.889   6.409  18.757  0.00  0.00    +0.000 C 
ENDROOT
BRANCH  10  11
ATOM     11  C   UNL     1       2.426   4.995  18.590  0.00  0.00    +0.000 A 
ATOM     12  C   UNL     1       1.830   4.070  17.710  0.00  0.00    +0.000 A 
ATOM     13  C   UNL     1       2.417   2.822  17.466  0.00  0.00    +0.000 A 
ATOM     14  C   UNL     1       3.600   2.492  18.113  0.00  0.00    +0.000 A 
ATOM     15  C   UNL     1       4.183   3.385  19.005  0.00  0.00    +0.000 A 
ATOM     16  C   UNL     1       3.605   4.623  19.258  0.00  0.00    +0.000 A 
BRANCH  14  17
ATOM     17  O   UNL     1       4.240   1.303  17.894  0.00  0.00    +0.000 OA
ATOM     18  H   UNL     1       3.769   0.833  17.183  0.00  0.00    +0.000 HD
ENDBRANCH  14  17
BRANCH  15  19
ATOM     19  O   UNL     1       5.357   3.063  19.622  0.00  0.00    +0.000 OA
ATOM     20  H   UNL     1       5.090   2.482  20.363  0.00  0.00    +0.000 HD
ENDBRANCH  15  19
ENDBRANCH  10  11
BRANCH   4  21
ATOM     21  O   UNL     1       0.446  11.273  18.959  0.00  0.00    +0.000 OA
ATOM     22  H   UNL     1      -0.285  11.784  19.337  0.00  0.00    +0.000 HD
ENDBRANCH   4  21
BRANCH   6  23
ATOM     23  O   UNL     1       0.698   9.767  23.444  0.00  0.00    +0.000 OA
ATOM     24  H   UNL     1      -0.256   9.714  23.618  0.00  0.00    +0.000 HD
ENDBRANCH   6  23
BRANCH   1  25
ATOM     25  O   UNL     1       3.723   7.650  17.625  0.00  0.00    +0.000 OA
BRANCH  25  27
ATOM     26  O   UNL     1       4.090   7.737  15.359  0.00  0.00    +0.000 OA
ATOM     27  C   UNL     1       4.359   7.308  16.468  0.00  0.00    +0.000 C 
BRANCH  27  28
ATOM     28  C   UNL     1       5.556   6.461  16.740  0.00  0.00    +0.000 A 
ATOM     29  C   UNL     1       6.429   6.833  17.785  0.00  0.00    +0.000 A 
ATOM     30  C   UNL     1       7.436   5.954  18.178  0.00  0.00    +0.000 A 
ATOM     31  C   UNL     1       7.601   4.740  17.526  0.00  0.00    +0.000 A 
ATOM     32  C   UNL     1       6.769   4.398  16.470  0.00  0.00    +0.000 A 
ATOM     33  C   UNL     1       5.753   5.250  16.061  0.00  0.00    +0.000 A 
BRANCH  30  34
ATOM     34  O   UNL     1       8.255   6.206  19.241  0.00  0.00    +0.000 OA
ATOM     35  H   UNL     1       9.050   5.653  19.131  0.00  0.00    +0.000 HD
ENDBRANCH  30  34
BRANCH  31  36
ATOM     36  O   UNL     1       8.544   3.844  17.949  0.00  0.00    +0.000 OA
ATOM     37  H   UNL     1       9.267   4.399  18.309  0.00  0.00    +0.000 HD
ENDBRANCH  31  36
BRANCH  32  38
ATOM     38  O   UNL     1       6.913   3.188  15.857  0.00  0.00    +0.000 OA
ATOM     39  H   UNL     1       6.074   3.054  15.373  0.00  0.00    +0.000 HD
ENDBRANCH  32  38
ENDBRANCH  27  28
ENDBRANCH  25  27
ENDBRANCH   1  25
TORSDOF 11
ENDMDL
MODEL 2
REMARK VINA RESULT:      -8.3      0.219      1.475
REMARK  Name = 
REMARK  11 active torsions:
REMARK  status: ('A' for Active; 'I' for Inactive)
REMARK    1  A    between atoms: C_2  and  O_3
REMARK    2  A    between atoms: C_2  and  C_24
REMARK    3  A    between atoms: O_3  and  C_4
REMARK    4  A    between atoms: C_7  and  O_8
REMARK    5  A    between atoms: C_10  and  O_11
REMARK    6  A    between atoms: C_15  and  C_16
REMARK    7  A    between atoms: C_19  and  O_20
REMARK    8  A    between atoms: C_21  and  O_22
REMARK    9  A    between atoms: C_26  and  O_27
REMARK   10  A    between atoms: C_28  and  O_29
REMARK   11  A    between atoms: C_30  and  O_31
REMARK                            x       y       z     vdW  Elec       q    Type
REMARK                         _______ _______ _______ _____ _____    ______ ____
ROOT
ATOM      1  C   UNL     1       2.221   7.513  17.760  0.00  0.00    +0.000 C 
ATOM      2  C   UNL     1       1.490   8.843  18.039  0.00  0.00    +0.000 C 
ATOM      3  C   UNL     1       1.262   9.129  19.507  0.00  0.00    +0.000 A 
ATOM      4  C   UNL     1       0.704  10.336  19.957  0.00  0.00    +0.000 A 
ATOM      5  C   UNL     1       0.451  10.565  21.312  0.00  0.00    +0.000 A 
ATOM      6  C   UNL     1       0.759   9.578  22.239  0.00  0.00    +0.000 A 
ATOM      7  C   UNL     1       1.318   8.378  21.828  0.00  0.00    +0.000 A 
ATOM      8  C   UNL     1       1.560   8.156  20.469  0.00  0.00    +0.000 A 
ATOM      9  O   UNL     1       2.121   6.948  20.158  0.00  0.00    +0.000 OA
ATOM     10  C   UNL     1       1.795   6.496  18.835  0.00  0.00    +0.000 C 
ENDROOT
BRANCH  10  11
ATOM     11  C   UNL     1       2.331   5.085  18.647  0.00  0.00    +0.000 A 
ATOM     12  C   UNL     1       1.799   4.207  17.682  0.00  0.00    +0.000 A 
ATOM     13  C   UNL     1       2.393   2.964  17.429  0.00  0.00    +0.000 A 
ATOM     14  C   UNL     1       3.519   2.592  18.150  0.00  0.00    +0.000 A 
ATOM     15  C   UNL     1       4.037   3.437  19.125  0.00  0.00    +0.000 A 
ATOM     16  C   UNL     1       3.451   4.669  19.388  0.00  0.00    +0.000 A 
BRANCH  14  17
ATOM     17  O   UNL     1       4.164   1.406  17.930  0.00  0.00    +0.000 OA
ATOM     18  H   UNL     1       3.639   0.696  18.339  0.00  0.00    +0.000 HD
ENDBRANCH  14  17
BRANCH  15  19
ATOM     19  O   UNL     1       5.156   3.074  19.818  0.00  0.00    +0.000 OA
ATOM     20  H   UNL     1       5.247   3.761  20.509  0.00  0.00    +0.000 HD
ENDBRANCH  15  19
ENDBRANCH  10  11
BRANCH   4  21
ATOM     21  O   UNL     1       0.359  11.358  19.117  0.00  0.00    +0.000 OA
ATOM     22  H   UNL     1       1.147  11.862  18.865  0.00  0.00    +0.000 HD
ENDBRANCH   4  21
BRANCH   6  23
ATOM     23  O   UNL     1       0.521   9.752  23.571  0.00  0.00    +0.000 OA
ATOM     24  H   UNL     1       1.154   9.213  24.074  0.00  0.00    +0.000 HD
ENDBRANCH   6  23
BRANCH   1  25
ATOM     25  O   UNL     1       3.652   7.757  17.766  0.00  0.00    +0.000 OA
BRANCH  25  27
ATOM     26  O   UNL     1       4.224   7.708  15.541  0.00  0.00    +0.000 OA
ATOM     27  C   UNL     1       4.336   7.290  16.681  0.00  0.00    +0.000 C 
BRANCH  27  28
ATOM     28  C   UNL     1       5.380   6.305  17.083  0.00  0.00    +0.000 A 
ATOM     29  C   UNL     1       5.548   5.138  16.306  0.00  0.00    +0.000 A 
ATOM     30  C   UNL     1       6.640   4.308  16.550  0.00  0.00    +0.000 A 
ATOM     31  C   UNL     1       7.535   4.607  17.568  0.00  0.00    +0.000 A 
ATOM     32  C   UNL     1       7.341   5.730  18.359  0.00  0.00    +0.000 A 
ATOM     33  C   UNL     1       6.266   6.580  18.135  0.00  0.00    +0.000 A 
BRANCH  30  34
ATOM     34  O   UNL     1       6.919   3.216  15.778  0.00  0.00    +0.000 OA
ATOM     35  H   UNL     1       7.887   3.113  15.762  0.00  0.00    +0.000 HD
ENDBRANCH  30  34
BRANCH  31  36
ATOM     36  O   UNL     1       8.645   3.834  17.770  0.00  0.00    +0.000 OA
ATOM     37  H   UNL     1       8.487   3.030  17.233  0.00  0.00    +0.000 HD
ENDBRANCH  31  36
BRANCH  32  38
ATOM     38  O   UNL     1       8.244   6.039  19.334  0.00  0.00    +0.000 OA
ATOM     39  H   UNL     1       8.308   7.015  19.313  0.00  0.00    +0.000 HD
ENDBRANCH  32  38
ENDBRANCH  27  28
ENDBRANCH  25  27
ENDBRANCH   1  25
TORSDOF 11
ENDMDL
MODEL 3
REMARK VINA RESULT:      -7.9      0.553      1.885
REMARK  Name = 
REMARK  11 active torsions:
REMARK  status: ('A' for Active; 'I' for Inactive)
REMARK    1  A    between atoms: C_2  and  O_3
REMARK    2  A    between atoms: C_2  and  C_24
REMARK    3  A    between atoms: O_3  and  C_4
REMARK    4  A    between atoms: C_7  and  O_8
REMARK    5  A    between atoms: C_10  and  O_11
REMARK    6  A    between atoms: C_15  and  C_16
REMARK    7  A    between atoms: C_19  and  O_20
REMARK    8  A    between atoms: C_21  and  O_22
REMARK    9  A    between atoms: C_26  and  O_27
REMARK   10  A    between atoms: C_28  and  O_29
REMARK   11  A    between atoms: C_30  and  O_31
REMARK                            x       y       z     vdW  Elec       q    Type
REMARK                         _______ _______ _______ _____ _____    ______ ____
ROOT
ATOM      1  C   UNL     1       2.246   7.412  17.773  0.00  0.00    +0.000 C 
ATOM      2  C   UNL     1       1.389   8.679  17.972  0.00  0.00    +0.000 C 
ATOM      3  C   UNL     1       1.166   9.057  19.421  0.00  0.00    +0.000 A 
ATOM      4  C   UNL     1       0.497  10.233  19.794  0.00  0.00    +0.000 A 
ATOM      5  C   UNL     1       0.254  10.542  21.135  0.00  0.00    +0.000 A 
ATOM      6  C   UNL     1       0.683   9.668  22.125  0.00  0.00    +0.000 A 
ATOM      7  C   UNL     1       1.353   8.501  21.790  0.00  0.00    +0.000 A 
ATOM      8  C   UNL     1       1.585   8.198  20.445  0.00  0.00    +0.000 A 
ATOM      9  O   UNL     1       2.260   7.032  20.209  0.00  0.00    +0.000 OA
ATOM     10  C   UNL     1       1.952   6.446  18.936  0.00  0.00    +0.000 C 
ENDROOT
BRANCH  10  11
ATOM     11  C   UNL     1       2.627   5.085  18.840  0.00  0.00    +0.000 A 
ATOM     12  C   UNL     1       3.728   4.741  19.649  0.00  0.00    +0.000 A 
ATOM     13  C   UNL     1       4.249   3.440  19.645  0.00  0.00    +0.000 A 
ATOM     14  C   UNL     1       3.673   2.482  18.822  0.00  0.00    +0.000 A 
ATOM     15  C   UNL     1       2.604   2.818  17.998  0.00  0.00    +0.000 A 
ATOM     16  C   UNL     1       2.085   4.106  17.990  0.00  0.00    +0.000 A 
BRANCH  14  17
ATOM     17  O   UNL     1       4.114   1.188  18.794  0.00  0.00    +0.000 OA
ATOM     18  H   UNL     1       4.888   1.145  18.205  0.00  0.00    +0.000 HD
ENDBRANCH  14  17
BRANCH  15  19
ATOM     19  O   UNL     1       2.029   1.866  17.205  0.00  0.00    +0.000 OA
ATOM     20  H   UNL     1       1.098   2.152  17.121  0.00  0.00    +0.000 HD
ENDBRANCH  15  19
ENDBRANCH  10  11
BRANCH   4  21
ATOM     21  O   UNL     1       0.029  11.145  18.889  0.00  0.00    +0.000 OA
ATOM     22  H   UNL     1      -0.840  10.872  18.561  0.00  0.00    +0.000 HD
ENDBRANCH   4  21
BRANCH   6  23
ATOM     23  O   UNL     1       0.459   9.922  23.446  0.00  0.00    +0.000 OA
ATOM     24  H   UNL     1       1.189   9.543  23.964  0.00  0.00    +0.000 HD
ENDBRANCH   6  23
BRANCH   1  25
ATOM     25  O   UNL     1       3.645   7.799  17.716  0.00  0.00    +0.000 OA
BRANCH  25  27
ATOM     26  O   UNL     1       4.249   7.741  15.501  0.00  0.00    +0.000 OA
ATOM     27  C   UNL     1       4.344   7.329  16.644  0.00  0.00    +0.000 C 
BRANCH  27  28
ATOM     28  C   UNL     1       5.382   6.345  17.065  0.00  0.00    +0.000 A 
ATOM     29  C   UNL     1       5.508   5.138  16.343  0.00  0.00    +0.000 A 
ATOM     30  C   UNL     1       6.593   4.301  16.598  0.00  0.00    +0.000 A 
ATOM     31  C   UNL     1       7.522   4.634  17.574  0.00  0.00    +0.000 A 
ATOM     32  C   UNL     1       7.370   5.798  18.312  0.00  0.00    +0.000 A 
ATOM     33  C   UNL     1       6.304   6.655  18.076  0.00  0.00    +0.000 A 
BRANCH  30  34
ATOM     34  O   UNL     1       6.830   3.168  15.874  0.00  0.00    +0.000 OA
ATOM     35  H   UNL     1       6.278   2.461  16.253  0.00  0.00    +0.000 HD
ENDBRANCH  30  34
BRANCH  31  36
ATOM     36  O   UNL     1       8.624   3.851  17.782  0.00  0.00    +0.000 OA
ATOM     37  H   UNL     1       8.602   3.644  18.740  0.00  0.00    +0.000 HD
ENDBRANCH  31  36
BRANCH  32  38
ATOM     38  O   UNL     1       8.306   6.138  19.244  0.00  0.00    +0.000 OA
ATOM     39  H   UNL     1       8.455   7.095  19.109  0.00  0.00    +0.000 HD
ENDBRANCH  32  38
ENDBRANCH  27  28
ENDBRANCH  25  27
ENDBRANCH   1  25
TORSDOF 11
ENDMDL
MODEL 4
REMARK VINA RESULT:      -7.8      0.522      1.179
REMARK  Name = 
REMARK  11 active torsions:
REMARK  status: ('A' for Active; 'I' for Inactive)
REMARK    1  A    between atoms: C_2  and  O_3
REMARK    2  A    between atoms: C_2  and  C_24
REMARK    3  A    between atoms: O_3  and  C_4
REMARK    4  A    between atoms: C_7  and  O_8
REMARK    5  A    between atoms: C_10  and  O_11
REMARK    6  A    between atoms: C_15  and  C_16
REMARK    7  A    between atoms: C_19  and  O_20
REMARK    8  A    between atoms: C_21  and  O_22
REMARK    9  A    between atoms: C_26  and  O_27
REMARK   10  A    between atoms: C_28  and  O_29
REMARK   11  A    between atoms: C_30  and  O_31
REMARK                            x       y       z     vdW  Elec       q    Type
REMARK                         _______ _______ _______ _____ _____    ______ ____
ROOT
ATOM      1  C   UNL     1       2.354   7.316  17.656  0.00  0.00    +0.000 C 
ATOM      2  C   UNL     1       1.506   8.591  17.853  0.00  0.00    +0.000 C 
ATOM      3  C   UNL     1       1.297   8.979  19.300  0.00  0.00    +0.000 A 
ATOM      4  C   UNL     1       0.638  10.162  19.670  0.00  0.00    +0.000 A 
ATOM      5  C   UNL     1       0.407  10.481  21.011  0.00  0.00    +0.000 A 
ATOM      6  C   UNL     1       0.838   9.611  22.004  0.00  0.00    +0.000 A 
ATOM      7  C   UNL     1       1.498   8.438  21.671  0.00  0.00    +0.000 A 
ATOM      8  C   UNL     1       1.718   8.124  20.327  0.00  0.00    +0.000 A 
ATOM      9  O   UNL     1       2.384   6.952  20.094  0.00  0.00    +0.000 OA
ATOM     10  C   UNL     1       2.062   6.360  18.827  0.00  0.00    +0.000 C 
ENDROOT
BRANCH  10  11
ATOM     11  C   UNL     1       2.728   4.995  18.735  0.00  0.00    +0.000 A 
ATOM     12  C   UNL     1       3.924   4.701  19.419  0.00  0.00    +0.000 A 
ATOM     13  C   UNL     1       4.448   3.402  19.435  0.00  0.00    +0.000 A 
ATOM     14  C   UNL     1       3.779   2.393  18.755  0.00  0.00    +0.000 A 
ATOM     15  C   UNL     1       2.613   2.677  18.053  0.00  0.00    +0.000 A 
ATOM     16  C   UNL     1       2.089   3.964  18.026  0.00  0.00    +0.000 A 
BRANCH  14  17
ATOM     17  O   UNL     1       4.221   1.099  18.756  0.00  0.00    +0.000 OA
ATOM     18  H   UNL     1       4.579   0.901  17.873  0.00  0.00    +0.000 HD
ENDBRANCH  14  17
BRANCH  15  19
ATOM     19  O   UNL     1       1.948   1.677  17.402  0.00  0.00    +0.000 OA
ATOM     20  H   UNL     1       1.549   1.145  18.120  0.00  0.00    +0.000 HD
ENDBRANCH  15  19
ENDBRANCH  10  11
BRANCH   4  21
ATOM     21  O   UNL     1       0.169  11.071  18.763  0.00  0.00    +0.000 OA
ATOM     22  H   UNL     1      -0.658  10.754  18.371  0.00  0.00    +0.000 HD
ENDBRANCH   4  21
BRANCH   6  23
ATOM     23  O   UNL     1       0.625   9.876  23.325  0.00  0.00    +0.000 OA
ATOM     24  H   UNL     1       1.256   9.357  23.851  0.00  0.00    +0.000 HD
ENDBRANCH   6  23
BRANCH   1  25
ATOM     25  O   UNL     1       3.755   7.694  17.586  0.00  0.00    +0.000 OA
BRANCH  25  27
ATOM     26  O   UNL     1       4.152   7.774  15.325  0.00  0.00    +0.000 OA
ATOM     27  C   UNL     1       4.404   7.345  16.438  0.00  0.00    +0.000 C 
BRANCH  27  28
ATOM     28  C   UNL     1       5.590   6.490  16.727  0.00  0.00    +0.000 A 
ATOM     29  C   UNL     1       6.458   6.863  17.777  0.00  0.00    +0.000 A 
ATOM     30  C   UNL     1       7.454   5.978  18.185  0.00  0.00    +0.000 A 
ATOM     31  C   UNL     1       7.613   4.757  17.544  0.00  0.00    +0.000 A 
ATOM     32  C   UNL     1       6.788   4.414  16.483  0.00  0.00    +0.000 A 
ATOM     33  C   UNL     1       5.782   5.272  16.059  0.00  0.00    +0.000 A 
BRANCH  30  34
ATOM     34  O   UNL     1       8.266   6.230  19.254  0.00  0.00    +0.000 OA
ATOM     35  H   UNL     1       7.690   6.383  20.025  0.00  0.00    +0.000 HD
ENDBRANCH  30  34
BRANCH  31  36
ATOM     36  O   UNL     1       8.544   3.856  17.983  0.00  0.00    +0.000 OA
ATOM     37  H   UNL     1       8.357   3.040  17.474  0.00  0.00    +0.000 HD
ENDBRANCH  31  36
BRANCH  32  38
ATOM     38  O   UNL     1       6.926   3.198  15.882  0.00  0.00    +0.000 OA
ATOM     39  H   UNL     1       6.119   3.097  15.339  0.00  0.00    +0.000 HD
ENDBRANCH  32  38
ENDBRANCH  27  28
ENDBRANCH  25  27
ENDBRANCH   1  25
TORSDOF 11
ENDMDL
MODEL 5
REMARK VINA RESULT:      -7.5      1.939      4.447
REMARK  Name = 
REMARK  11 active torsions:
REMARK  status: ('A' for Active; 'I' for Inactive)
REMARK    1  A    between atoms: C_2  and  O_3
REMARK    2  A    between atoms: C_2  and  C_24
REMARK    3  A    between atoms: O_3  and  C_4
REMARK    4  A    between atoms: C_7  and  O_8
REMARK    5  A    between atoms: C_10  and  O_11
REMARK    6  A    between atoms: C_15  and  C_16
REMARK    7  A    between atoms: C_19  and  O_20
REMARK    8  A    between atoms: C_21  and  O_22
REMARK    9  A    between atoms: C_26  and  O_27
REMARK   10  A    between atoms: C_28  and  O_29
REMARK   11  A    between atoms: C_30  and  O_31
REMARK                            x       y       z     vdW  Elec       q    Type
REMARK                         _______ _______ _______ _____ _____    ______ ____
ROOT
ATOM      1  C   UNL     1       2.579   6.250  19.027  0.00  0.00    +0.000 C 
ATOM      2  C   UNL     1       1.741   7.130  19.978  0.00  0.00    +0.000 C 
ATOM      3  C   UNL     1       1.547   8.551  19.498  0.00  0.00    +0.000 A 
ATOM      4  C   UNL     1       0.730   9.467  20.181  0.00  0.00    +0.000 A 
ATOM      5  C   UNL     1       0.602  10.792  19.754  0.00  0.00    +0.000 A 
ATOM      6  C   UNL     1       1.297  11.216  18.629  0.00  0.00    +0.000 A 
ATOM      7  C   UNL     1       2.105  10.335  17.928  0.00  0.00    +0.000 A 
ATOM      8  C   UNL     1       2.232   9.013  18.367  0.00  0.00    +0.000 A 
ATOM      9  O   UNL     1       3.044   8.214  17.610  0.00  0.00    +0.000 OA
ATOM     10  C   UNL     1       3.640   7.143  18.357  0.00  0.00    +0.000 C 
ENDROOT
BRANCH  10  11
ATOM     11  C   UNL     1       4.638   6.415  17.468  0.00  0.00    +0.000 A 
ATOM     12  C   UNL     1       4.669   6.603  16.072  0.00  0.00    +0.000 A 
ATOM     13  C   UNL     1       5.681   6.032  15.288  0.00  0.00    +0.000 A 
ATOM     14  C   UNL     1       6.659   5.261  15.901  0.00  0.00    +0.000 A 
ATOM     15  C   UNL     1       6.623   5.045  17.274  0.00  0.00    +0.000 A 
ATOM     16  C   UNL     1       5.620   5.601  18.059  0.00  0.00    +0.000 A 
BRANCH  14  17
ATOM     17  O   UNL     1       7.690   4.703  15.197  0.00  0.00    +0.000 OA
ATOM     18  H   UNL     1       8.002   5.358  14.548  0.00  0.00    +0.000 HD
ENDBRANCH  14  17
BRANCH  15  19
ATOM     19  O   UNL     1       7.599   4.302  17.873  0.00  0.00    +0.000 OA
ATOM     20  H   UNL     1       7.211   4.041  18.732  0.00  0.00    +0.000 HD
ENDBRANCH  15  19
ENDBRANCH  10  11
BRANCH   4  21
ATOM     21  O   UNL     1       0.019   9.143  21.302  0.00  0.00    +0.000 OA
ATOM     22  H   UNL     1      -0.721   9.757  21.416  0.00  0.00    +0.000 HD
ENDBRANCH   4  21
BRANCH   6  23
ATOM     23  O   UNL     1       1.210  12.502  18.181  0.00  0.00    +0.000 OA
ATOM     24  H   UNL     1       1.732  13.072  18.769  0.00  0.00    +0.000 HD
ENDBRANCH   6  23
BRANCH   1  25
ATOM     25  O   UNL     1       1.690   5.629  18.061  0.00  0.00    +0.000 OA
BRANCH  25  27
ATOM     26  O   UNL     1       1.725   3.698  16.816  0.00  0.00    +0.000 OA
ATOM     27  C   UNL     1       1.864   4.289  17.874  0.00  0.00    +0.000 C 
BRANCH  27  28
ATOM     28  C   UNL     1       2.419   3.640  19.096  0.00  0.00    +0.000 A 
ATOM     29  C   UNL     1       1.590   3.510  20.232  0.00  0.00    +0.000 A 
ATOM     30  C   UNL     1       2.023   2.738  21.308  0.00  0.00    +0.000 A 
ATOM     31  C   UNL     1       3.270   2.130  21.277  0.00  0.00    +0.000 A 
ATOM     32  C   UNL     1       4.100   2.296  20.178  0.00  0.00    +0.000 A 
ATOM     33  C   UNL     1       3.693   3.054  19.089  0.00  0.00    +0.000 A 
BRANCH  30  34
ATOM     34  O   UNL     1       1.237   2.491  22.397  0.00  0.00    +0.000 OA
ATOM     35  H   UNL     1       1.548   1.657  22.794  0.00  0.00    +0.000 HD
ENDBRANCH  30  34
BRANCH  31  36
ATOM     36  O   UNL     1       3.674   1.316  22.300  0.00  0.00    +0.000 OA
ATOM     37  H   UNL     1       2.923   1.320  22.929  0.00  0.00    +0.000 HD
ENDBRANCH  31  36
BRANCH  32  38
ATOM     38  O   UNL     1       5.309   1.667  20.139  0.00  0.00    +0.000 OA
ATOM     39  H   UNL     1       5.092   0.722  20.005  0.00  0.00    +0.000 HD
ENDBRANCH  32  38
ENDBRANCH  27  28
ENDBRANCH  25  27
ENDBRANCH   1  25
TORSDOF 11
ENDMDL
MODEL 6
REMARK VINA RESULT:      -7.5      1.941      4.506
REMARK  Name = 
REMARK  11 active torsions:
REMARK  status: ('A' for Active; 'I' for Inactive)
REMARK    1  A    between atoms: C_2  and  O_3
REMARK    2  A    between atoms: C_2  and  C_24
REMARK    3  A    between atoms: O_3  and  C_4
REMARK    4  A    between atoms: C_7  and  O_8
REMARK    5  A    between atoms: C_10  and  O_11
REMARK    6  A    between atoms: C_15  and  C_16
REMARK    7  A    between atoms: C_19  and  O_20
REMARK    8  A    between atoms: C_21  and  O_22
REMARK    9  A    between atoms: C_26  and  O_27
REMARK   10  A    between atoms: C_28  and  O_29
REMARK   11  A    between atoms: C_30  and  O_31
REMARK                            x       y       z     vdW  Elec       q    Type
REMARK                         _______ _______ _______ _____ _____    ______ ____
ROOT
ATOM      1  C   UNL     1       2.625   6.042  18.942  0.00  0.00    +0.000 C 
ATOM      2  C   UNL     1       1.759   6.894  19.894  0.00  0.00    +0.000 C 
ATOM      3  C   UNL     1       1.572   8.327  19.446  0.00  0.00    +0.000 A 
ATOM      4  C   UNL     1       0.735   9.222  20.131  0.00  0.00    +0.000 A 
ATOM      5  C   UNL     1       0.613  10.557  19.735  0.00  0.00    +0.000 A 
ATOM      6  C   UNL     1       1.334  11.012  18.640  0.00  0.00    +0.000 A 
ATOM      7  C   UNL     1       2.163  10.152  17.937  0.00  0.00    +0.000 A 
ATOM      8  C   UNL     1       2.285   8.820  18.345  0.00  0.00    +0.000 A 
ATOM      9  O   UNL     1       3.119   8.043  17.589  0.00  0.00    +0.000 OA
ATOM     10  C   UNL     1       3.700   6.955  18.323  0.00  0.00    +0.000 C 
ENDROOT
BRANCH  10  11
ATOM     11  C   UNL     1       4.723   6.254  17.442  0.00  0.00    +0.000 A 
ATOM     12  C   UNL     1       4.752   6.434  16.045  0.00  0.00    +0.000 A 
ATOM     13  C   UNL     1       5.783   5.891  15.267  0.00  0.00    +0.000 A 
ATOM     14  C   UNL     1       6.784   5.156  15.887  0.00  0.00    +0.000 A 
ATOM     15  C   UNL     1       6.751   4.947  17.261  0.00  0.00    +0.000 A 
ATOM     16  C   UNL     1       5.729   5.476  18.040  0.00  0.00    +0.000 A 
BRANCH  14  17
ATOM     17  O   UNL     1       7.834   4.626  15.189  0.00  0.00    +0.000 OA
ATOM     18  H   UNL     1       7.766   3.656  15.231  0.00  0.00    +0.000 HD
ENDBRANCH  14  17
BRANCH  15  19
ATOM     19  O   UNL     1       7.748   4.240  17.868  0.00  0.00    +0.000 OA
ATOM     20  H   UNL     1       7.742   4.557  18.793  0.00  0.00    +0.000 HD
ENDBRANCH  15  19
ENDBRANCH  10  11
BRANCH   4  21
ATOM     21  O   UNL     1      -0.003   8.866  21.225  0.00  0.00    +0.000 OA
ATOM     22  H   UNL     1       0.186   9.465  21.963  0.00  0.00    +0.000 HD
ENDBRANCH   4  21
BRANCH   6  23
ATOM     23  O   UNL     1       1.254  12.309  18.223  0.00  0.00    +0.000 OA
ATOM     24  H   UNL     1       1.909  12.451  17.520  0.00  0.00    +0.000 HD
ENDBRANCH   6  23
BRANCH   1  25
ATOM     25  O   UNL     1       1.763   5.443  17.938  0.00  0.00    +0.000 OA
BRANCH  25  27
ATOM     26  O   UNL     1       2.189   3.730  16.466  0.00  0.00    +0.000 OA
ATOM     27  C   UNL     1       2.055   4.153  17.602  0.00  0.00    +0.000 C 
BRANCH  27  28
ATOM     28  C   UNL     1       2.365   3.337  18.811  0.00  0.00    +0.000 A 
ATOM     29  C   UNL     1       3.652   2.770  18.937  0.00  0.00    +0.000 A 
ATOM     30  C   UNL     1       4.019   2.174  20.141  0.00  0.00    +0.000 A 
ATOM     31  C   UNL     1       3.117   2.107  21.194  0.00  0.00    +0.000 A 
ATOM     32  C   UNL     1       1.839   2.625  21.051  0.00  0.00    +0.000 A 
ATOM     33  C   UNL     1       1.447   3.231  19.866  0.00  0.00    +0.000 A 
BRANCH  30  34
ATOM     34  O   UNL     1       5.277   1.691  20.368  0.00  0.00    +0.000 OA
ATOM     35  H   UNL     1       5.185   0.889  20.912  0.00  0.00    +0.000 HD
ENDBRANCH  30  34
BRANCH  31  36
ATOM     36  O   UNL     1       3.493   1.583  22.401  0.00  0.00    +0.000 OA
ATOM     37  H   UNL     1       3.098   0.686  22.414  0.00  0.00    +0.000 HD
ENDBRANCH  31  36
BRANCH  32  38
ATOM     38  O   UNL     1       0.970   2.588  22.102  0.00  0.00    +0.000 OA
ATOM     39  H   UNL     1       0.230   3.169  21.832  0.00  0.00    +0.000 HD
ENDBRANCH  32  38
ENDBRANCH  27  28
ENDBRANCH  25  27
ENDBRANCH   1  25
TORSDOF 11
ENDMDL
MODEL 7
REMARK VINA RESULT:      -7.2      1.629      4.203
REMARK  Name = 
REMARK  11 active torsions:
REMARK  status: ('A' for Active; 'I' for Inactive)
REMARK    1  A    between atoms: C_2  and  O_3
REMARK    2  A    between atoms: C_2  and  C_24
REMARK    3  A    between atoms: O_3  and  C_4
REMARK    4  A    between atoms: C_7  and  O_8
REMARK    5  A    between atoms: C_10  and  O_11
REMARK    6  A    between atoms: C_15  and  C_16
REMARK    7  A    between atoms: C_19  and  O_20
REMARK    8  A    between atoms: C_21  and  O_22
REMARK    9  A    between atoms: C_26  and  O_27
REMARK   10  A    between atoms: C_28  and  O_29
REMARK   11  A    between atoms: C_30  and  O_31
REMARK                            x       y       z     vdW  Elec       q    Type
REMARK                         _______ _______ _______ _____ _____    ______ ____
ROOT
ATOM      1  C   UNL     1       2.749   6.145  19.714  0.00  0.00    +0.000 C 
ATOM      2  C   UNL     1       1.906   7.056  20.631  0.00  0.00    +0.000 C 
ATOM      3  C   UNL     1       1.412   8.322  19.964  0.00  0.00    +0.000 A 
ATOM      4  C   UNL     1       0.549   9.221  20.610  0.00  0.00    +0.000 A 
ATOM      5  C   UNL     1       0.143  10.411  20.000  0.00  0.00    +0.000 A 
ATOM      6  C   UNL     1       0.602  10.715  18.725  0.00  0.00    +0.000 A 
ATOM      7  C   UNL     1       1.449   9.844  18.058  0.00  0.00    +0.000 A 
ATOM      8  C   UNL     1       1.855   8.660  18.679  0.00  0.00    +0.000 A 
ATOM      9  O   UNL     1       2.684   7.859  17.943  0.00  0.00    +0.000 OA
ATOM     10  C   UNL     1       3.546   7.042  18.748  0.00  0.00    +0.000 C 
ENDROOT
BRANCH  10  11
ATOM     11  C   UNL     1       4.528   6.314  17.842  0.00  0.00    +0.000 A 
ATOM     12  C   UNL     1       4.531   6.498  16.446  0.00  0.00    +0.000 A 
ATOM     13  C   UNL     1       5.528   5.927  15.643  0.00  0.00    +0.000 A 
ATOM     14  C   UNL     1       6.520   5.160  16.238  0.00  0.00    +0.000 A 
ATOM     15  C   UNL     1       6.511   4.948  17.612  0.00  0.00    +0.000 A 
ATOM     16  C   UNL     1       5.523   5.504  18.416  0.00  0.00    +0.000 A 
BRANCH  14  17
ATOM     17  O   UNL     1       7.538   4.601  15.515  0.00  0.00    +0.000 OA
ATOM     18  H   UNL     1       7.145   4.018  14.842  0.00  0.00    +0.000 HD
ENDBRANCH  14  17
BRANCH  15  19
ATOM     19  O   UNL     1       7.500   4.208  18.194  0.00  0.00    +0.000 OA
ATOM     20  H   UNL     1       8.307   4.449  17.696  0.00  0.00    +0.000 HD
ENDBRANCH  15  19
ENDBRANCH  10  11
BRANCH   4  21
ATOM     21  O   UNL     1       0.057   9.010  21.869  0.00  0.00    +0.000 OA
ATOM     22  H   UNL     1       0.638   8.409  22.356  0.00  0.00    +0.000 HD
ENDBRANCH   4  21
BRANCH   6  23
ATOM     23  O   UNL     1       0.241  11.869  18.095  0.00  0.00    +0.000 OA
ATOM     24  H   UNL     1       0.813  11.993  17.320  0.00  0.00    +0.000 HD
ENDBRANCH   6  23
BRANCH   1  25
ATOM     25  O   UNL     1       1.859   5.235  19.015  0.00  0.00    +0.000 OA
BRANCH  25  27
ATOM     26  O   UNL     1       0.466   3.800  20.146  0.00  0.00    +0.000 OA
ATOM     27  C   UNL     1       1.556   4.081  19.678  0.00  0.00    +0.000 C 
BRANCH  27  28
ATOM     28  C   UNL     1       2.685   3.111  19.618  0.00  0.00    +0.000 A 
ATOM     29  C   UNL     1       3.380   2.802  20.808  0.00  0.00    +0.000 A 
ATOM     30  C   UNL     1       4.303   1.758  20.807  0.00  0.00    +0.000 A 
ATOM     31  C   UNL     1       4.562   1.051  19.641  0.00  0.00    +0.000 A 
ATOM     32  C   UNL     1       3.910   1.387  18.463  0.00  0.00    +0.000 A 
ATOM     33  C   UNL     1       2.980   2.417  18.435  0.00  0.00    +0.000 A 
BRANCH  30  34
ATOM     34  O   UNL     1       4.941   1.342  21.941  0.00  0.00    +0.000 OA
ATOM     35  H   UNL     1       4.352   1.538  22.692  0.00  0.00    +0.000 HD
ENDBRANCH  30  34
BRANCH  31  36
ATOM     36  O   UNL     1       5.417  -0.017  19.648  0.00  0.00    +0.000 OA
ATOM     37  H   UNL     1       4.833  -0.801  19.587  0.00  0.00    +0.000 HD
ENDBRANCH  31  36
BRANCH  32  38
ATOM     38  O   UNL     1       4.142   0.665  17.330  0.00  0.00    +0.000 OA
ATOM     39  H   UNL     1       3.287   0.231  17.133  0.00  0.00    +0.000 HD
ENDBRANCH  32  38
ENDBRANCH  27  28
ENDBRANCH  25  27
ENDBRANCH   1  25
TORSDOF 11
ENDMDL
MODEL 8
REMARK VINA RESULT:      -7.2      1.593      2.342
REMARK  Name = 
REMARK  11 active torsions:
REMARK  status: ('A' for Active; 'I' for Inactive)
REMARK    1  A    between atoms: C_2  and  O_3
REMARK    2  A    between atoms: C_2  and  C_24
REMARK    3  A    between atoms: O_3  and  C_4
REMARK    4  A    between atoms: C_7  and  O_8
REMARK    5  A    between atoms: C_10  and  O_11
REMARK    6  A    between atoms: C_15  and  C_16
REMARK    7  A    between atoms: C_19  and  O_20
REMARK    8  A    between atoms: C_21  and  O_22
REMARK    9  A    between atoms: C_26  and  O_27
REMARK   10  A    between atoms: C_28  and  O_29
REMARK   11  A    between atoms: C_30  and  O_31
REMARK                            x       y       z     vdW  Elec       q    Type
REMARK                         _______ _______ _______ _____ _____    ______ ____
ROOT
ATOM      1  C   UNL     1       3.664   6.549  17.469  0.00  0.00    +0.000 C 
ATOM      2  C   UNL     1       3.159   7.997  17.292  0.00  0.00    +0.000 C 
ATOM      3  C   UNL     1       2.352   8.520  18.460  0.00  0.00    +0.000 A 
ATOM      4  C   UNL     1       1.897   9.846  18.521  0.00  0.00    +0.000 A 
ATOM      5  C   UNL     1       1.109  10.300  19.582  0.00  0.00    +0.000 A 
ATOM      6  C   UNL     1       0.766   9.423  20.602  0.00  0.00    +0.000 A 
ATOM      7  C   UNL     1       1.207   8.108  20.575  0.00  0.00    +0.000 A 
ATOM      8  C   UNL     1       1.989   7.662  19.506  0.00  0.00    +0.000 A 
ATOM      9  O   UNL     1       2.384   6.354  19.567  0.00  0.00    +0.000 OA
ATOM     10  C   UNL     1       2.610   5.769  18.276  0.00  0.00    +0.000 C 
ENDROOT
BRANCH  10  11
ATOM     11  C   UNL     1       2.890   4.283  18.448  0.00  0.00    +0.000 A 
ATOM     12  C   UNL     1       2.285   3.311  17.626  0.00  0.00    +0.000 A 
ATOM     13  C   UNL     1       2.657   1.963  17.707  0.00  0.00    +0.000 A 
ATOM     14  C   UNL     1       3.631   1.582  18.619  0.00  0.00    +0.000 A 
ATOM     15  C   UNL     1       4.215   2.528  19.455  0.00  0.00    +0.000 A 
ATOM     16  C   UNL     1       3.848   3.866  19.387  0.00  0.00    +0.000 A 
BRANCH  14  17
ATOM     17  O   UNL     1       4.061   0.288  18.726  0.00  0.00    +0.000 OA
ATOM     18  H   UNL     1       3.330  -0.295  18.456  0.00  0.00    +0.000 HD
ENDBRANCH  14  17
BRANCH  15  19
ATOM     19  O   UNL     1       5.187   2.151  20.337  0.00  0.00    +0.000 OA
ATOM     20  H   UNL     1       4.802   2.339  21.216  0.00  0.00    +0.000 HD
ENDBRANCH  15  19
ENDBRANCH  10  11
BRANCH   4  21
ATOM     21  O   UNL     1       2.174  10.777  17.558  0.00  0.00    +0.000 OA
ATOM     22  H   UNL     1       2.099  11.669  17.927  0.00  0.00    +0.000 HD
ENDBRANCH   4  21
BRANCH   6  23
ATOM     23  O   UNL     1      -0.009   9.818  21.652  0.00  0.00    +0.000 OA
ATOM     24  H   UNL     1      -0.777  10.303  21.307  0.00  0.00    +0.000 HD
ENDBRANCH   6  23
BRANCH   1  25
ATOM     25  O   UNL     1       4.955   6.584  18.134  0.00  0.00    +0.000 OA
BRANCH  25  27
ATOM     26  O   UNL     1       6.730   7.901  17.506  0.00  0.00    +0.000 OA
ATOM     27  C   UNL     1       6.016   6.926  17.346  0.00  0.00    +0.000 C 
BRANCH  27  28
ATOM     28  C   UNL     1       6.313   5.861  16.347  0.00  0.00    +0.000 A 
ATOM     29  C   UNL     1       5.830   4.555  16.581  0.00  0.00    +0.000 A 
ATOM     30  C   UNL     1       5.928   3.600  15.572  0.00  0.00    +0.000 A 
ATOM     31  C   UNL     1       6.525   3.919  14.360  0.00  0.00    +0.000 A 
ATOM     32  C   UNL     1       7.039   5.190  14.150  0.00  0.00    +0.000 A 
ATOM     33  C   UNL     1       6.948   6.165  15.134  0.00  0.00    +0.000 A 
BRANCH  30  34
ATOM     34  O   UNL     1       5.398   2.347  15.693  0.00  0.00    +0.000 OA
ATOM     35  H   UNL     1       5.963   1.854  16.315  0.00  0.00    +0.000 HD
ENDBRANCH  30  34
BRANCH  31  36
ATOM     36  O   UNL     1       6.566   3.007  13.341  0.00  0.00    +0.000 OA
ATOM     37  H   UNL     1       7.208   2.331  13.641  0.00  0.00    +0.000 HD
ENDBRANCH  31  36
BRANCH  32  38
ATOM     38  O   UNL     1       7.591   5.509  12.944  0.00  0.00    +0.000 OA
ATOM     39  H   UNL     1       8.401   6.010  13.167  0.00  0.00    +0.000 HD
ENDBRANCH  32  38
ENDBRANCH  27  28
ENDBRANCH  25  27
ENDBRANCH   1  25
TORSDOF 11
ENDMDL
MODEL 9
REMARK VINA RESULT:      -7.0      1.538      2.213
REMARK  Name = 
REMARK  11 active torsions:
REMARK  status: ('A' for Active; 'I' for Inactive)
REMARK    1  A    between atoms: C_2  and  O_3
REMARK    2  A    between atoms: C_2  and  C_24
REMARK    3  A    between atoms: O_3  and  C_4
REMARK    4  A    between atoms: C_7  and  O_8
REMARK    5  A    between atoms: C_10  and  O_11
REMARK    6  A    between atoms: C_15  and  C_16
REMARK    7  A    between atoms: C_19  and  O_20
REMARK    8  A    between atoms: C_21  and  O_22
REMARK    9  A    between atoms: C_26  and  O_27
REMARK   10  A    between atoms: C_28  and  O_29
REMARK   11  A    between atoms: C_30  and  O_31
REMARK                            x       y       z     vdW  Elec       q    Type
REMARK                         _______ _______ _______ _____ _____    ______ ____
ROOT
ATOM      1  C   UNL     1       3.505   6.625  17.599  0.00  0.00    +0.000 C 
ATOM      2  C   UNL     1       2.970   8.068  17.491  0.00  0.00    +0.000 C 
ATOM      3  C   UNL     1       2.209   8.541  18.711  0.00  0.00    +0.000 A 
ATOM      4  C   UNL     1       1.736   9.857  18.835  0.00  0.00    +0.000 A 
ATOM      5  C   UNL     1       0.990  10.263  19.944  0.00  0.00    +0.000 A 
ATOM      6  C   UNL     1       0.709   9.349  20.950  0.00  0.00    +0.000 A 
ATOM      7  C   UNL     1       1.168   8.044  20.861  0.00  0.00    +0.000 A 
ATOM      8  C   UNL     1       1.907   7.644  19.744  0.00  0.00    +0.000 A 
ATOM      9  O   UNL     1       2.325   6.342  19.745  0.00  0.00    +0.000 OA
ATOM     10  C   UNL     1       2.501   5.801  18.428  0.00  0.00    +0.000 C 
ENDROOT
BRANCH  10  11
ATOM     11  C   UNL     1       2.811   4.316  18.539  0.00  0.00    +0.000 A 
ATOM     12  C   UNL     1       2.205   3.363  17.696  0.00  0.00    +0.000 A 
ATOM     13  C   UNL     1       2.603   2.020  17.719  0.00  0.00    +0.000 A 
ATOM     14  C   UNL     1       3.605   1.625  18.595  0.00  0.00    +0.000 A 
ATOM     15  C   UNL     1       4.192   2.551  19.451  0.00  0.00    +0.000 A 
ATOM     16  C   UNL     1       3.799   3.884  19.440  0.00  0.00    +0.000 A 
BRANCH  14  17
ATOM     17  O   UNL     1       4.061   0.337  18.645  0.00  0.00    +0.000 OA
ATOM     18  H   UNL     1       5.003   0.340  18.399  0.00  0.00    +0.000 HD
ENDBRANCH  14  17
BRANCH  15  19
ATOM     19  O   UNL     1       5.190   2.161  20.296  0.00  0.00    +0.000 OA
ATOM     20  H   UNL     1       5.974   2.664  19.994  0.00  0.00    +0.000 HD
ENDBRANCH  15  19
ENDBRANCH  10  11
BRANCH   4  21
ATOM     21  O   UNL     1       1.954  10.821  17.891  0.00  0.00    +0.000 OA
ATOM     22  H   UNL     1       1.120  11.260  17.665  0.00  0.00    +0.000 HD
ENDBRANCH   4  21
BRANCH   6  23
ATOM     23  O   UNL     1      -0.024   9.698  22.047  0.00  0.00    +0.000 OA
ATOM     24  H   UNL     1       0.582   9.852  22.790  0.00  0.00    +0.000 HD
ENDBRANCH   6  23
BRANCH   1  25
ATOM     25  O   UNL     1       4.824   6.661  18.205  0.00  0.00    +0.000 OA
BRANCH  25  27
ATOM     26  O   UNL     1       6.720   7.757  17.512  0.00  0.00    +0.000 OA
ATOM     27  C   UNL     1       5.859   6.909  17.352  0.00  0.00    +0.000 C 
BRANCH  27  28
ATOM     28  C   UNL     1       5.917   5.894  16.262  0.00  0.00    +0.000 A 
ATOM     29  C   UNL     1       6.466   6.265  15.015  0.00  0.00    +0.000 A 
ATOM     30  C   UNL     1       6.706   5.283  14.056  0.00  0.00    +0.000 A 
ATOM     31  C   UNL     1       6.378   3.959  14.311  0.00  0.00    +0.000 A 
ATOM     32  C   UNL     1       5.797   3.605  15.520  0.00  0.00    +0.000 A 
ATOM     33  C   UNL     1       5.553   4.560  16.497  0.00  0.00    +0.000 A 
BRANCH  30  34
ATOM     34  O   UNL     1       7.321   5.554  12.868  0.00  0.00    +0.000 OA
ATOM     35  H   UNL     1       7.036   6.442  12.590  0.00  0.00    +0.000 HD
ENDBRANCH  30  34
BRANCH  31  36
ATOM     36  O   UNL     1       6.671   2.980  13.401  0.00  0.00    +0.000 OA
ATOM     37  H   UNL     1       5.816   2.785  12.965  0.00  0.00    +0.000 HD
ENDBRANCH  31  36
BRANCH  32  38
ATOM     38  O   UNL     1       5.510   2.297  15.779  0.00  0.00    +0.000 OA
ATOM     39  H   UNL     1       5.564   1.854  14.908  0.00  0.00    +0.000 HD
ENDBRANCH  32  38
ENDBRANCH  27  28
ENDBRANCH  25  27
ENDBRANCH   1  25
TORSDOF 11
ENDMDL
