MODEL 1
REMARK VINA RESULT:      -8.2      0.000      0.000
REMARK  Name = 
REMARK  3 active torsions:
REMARK  status: ('A' for Active; 'I' for Inactive)
REMARK    1  A    between atoms: C_7  and  C_8
REMARK    2  A    between atoms: N_12  and  C_13
REMARK    3  A    between atoms: C_13  and  C_14
REMARK                            x       y       z     vdW  Elec       q    Type
REMARK                         _______ _______ _______ _____ _____    ______ ____
ROOT
ATOM      1  C   UNL     1       2.244   8.136  18.605  0.00  0.00    +0.000 C 
ATOM      2  N   UNL     1       1.997   9.140  17.824  0.00  0.00    +0.000 NA
ATOM      3  N   UNL     1       1.265  10.243  18.230  0.00  0.00    +0.000 NA
ATOM      4  C   UNL     1       0.598  10.319  19.335  0.00  0.00    +0.000 C 
ATOM      5  N   UNL     1      -0.154  11.406  19.686  0.00  0.00    +0.000 N 
ATOM      6  S   UNL     1       0.496   9.088  20.548  0.00  0.00    +0.000 S 
ATOM      7  C   UNL     1       1.775   7.979  20.021  0.00  0.00    +0.000 C 
ATOM      8  H   UNL     1      -0.665  11.292  20.553  0.00  0.00    +0.000 HD
ENDROOT
BRANCH   1  15
ATOM      9  O   UNL     1       7.705   4.413  15.743  0.00  0.00    +0.000 OA
ATOM     10  C   UNL     1       6.659   4.814  16.220  0.00  0.00    +0.000 A 
ATOM     11  N   UNL     1       5.632   4.034  16.773  0.00  0.00    +0.000 N 
ATOM     12  C   UNL     1       4.629   4.876  17.237  0.00  0.00    +0.000 A 
ATOM     13  C   UNL     1       3.449   4.580  17.874  0.00  0.00    +0.000 A 
ATOM     14  C   UNL     1       2.664   5.668  18.280  0.00  0.00    +0.000 A 
ATOM     15  C   UNL     1       3.075   7.010  18.049  0.00  0.00    +0.000 A 
ATOM     16  C   UNL     1       4.266   7.273  17.351  0.00  0.00    +0.000 A 
ATOM     17  C   UNL     1       5.019   6.187  16.972  0.00  0.00    +0.000 A 
ATOM     18  N   UNL     1       6.253   6.150  16.340  0.00  0.00    +0.000 N 
ATOM     19  H   UNL     1       5.669   3.030  16.835  0.00  0.00    +0.000 HD
ATOM     20  H   UNL     1       6.816   6.928  16.034  0.00  0.00    +0.000 HD
ENDBRANCH   1  15
BRANCH   5  21
ATOM     21  C   UNL     1      -0.798  12.246  18.703  0.00  0.00    +0.000 C 
BRANCH  21  22
ATOM     22  C   UNL     1      -2.266  11.886  18.609  0.00  0.00    +0.000 A 
ATOM     23  C   UNL     1      -2.730  11.042  17.590  0.00  0.00    +0.000 A 
ATOM     24  C   UNL     1      -4.087  10.719  17.497  0.00  0.00    +0.000 A 
ATOM     25  C   UNL     1      -4.989  11.244  18.423  0.00  0.00    +0.000 A 
ATOM     26 CL   UNL     1      -6.657  10.836  18.312  0.00  0.00    +0.000 Cl
ATOM     27  C   UNL     1      -4.548  12.096  19.431  0.00  0.00    +0.000 A 
ATOM     28  C   UNL     1      -3.190  12.421  19.522  0.00  0.00    +0.000 A 
ENDBRANCH  21  22
ENDBRANCH   5  21
TORSDOF 3
ENDMDL
MODEL 2
REMARK VINA RESULT:      -8.1      0.925      1.357
REMARK  Name = 
REMARK  3 active torsions:
REMARK  status: ('A' for Active; 'I' for Inactive)
REMARK    1  A    between atoms: C_7  and  C_8
REMARK    2  A    between atoms: N_12  and  C_13
REMARK    3  A    between atoms: C_13  and  C_14
REMARK                            x       y       z     vdW  Elec       q    Type
REMARK                         _______ _______ _______ _____ _____    ______ ____
ROOT
ATOM      1  C   UNL     1       2.125   7.982  18.975  0.00  0.00    +0.000 C 
ATOM      2  N   UNL     1       1.737   8.671  17.950  0.00  0.00    +0.000 NA
ATOM      3  N   UNL     1       0.833   9.716  18.048  0.00  0.00    +0.000 NA
ATOM      4  C   UNL     1       0.143   9.997  19.104  0.00  0.00    +0.000 C 
ATOM      5  N   UNL     1      -0.777  11.007  19.154  0.00  0.00    +0.000 N 
ATOM      6  S   UNL     1       0.215   9.161  20.618  0.00  0.00    +0.000 S 
ATOM      7  C   UNL     1       1.662   8.162  20.391  0.00  0.00    +0.000 C 
ATOM      8  H   UNL     1      -1.279  11.067  20.032  0.00  0.00    +0.000 HD
ENDROOT
BRANCH   1  15
ATOM      9  O   UNL     1       7.868   4.356  16.578  0.00  0.00    +0.000 OA
ATOM     10  C   UNL     1       6.842   4.746  17.105  0.00  0.00    +0.000 A 
ATOM     11  N   UNL     1       6.169   4.150  18.182  0.00  0.00    +0.000 N 
ATOM     12  C   UNL     1       5.062   4.925  18.503  0.00  0.00    +0.000 A 
ATOM     13  C   UNL     1       4.124   4.761  19.494  0.00  0.00    +0.000 A 
ATOM     14  C   UNL     1       3.147   5.760  19.604  0.00  0.00    +0.000 A 
ATOM     15  C   UNL     1       3.133   6.888  18.738  0.00  0.00    +0.000 A 
ATOM     16  C   UNL     1       4.080   6.996  17.705  0.00  0.00    +0.000 A 
ATOM     17  C   UNL     1       5.030   6.007  17.626  0.00  0.00    +0.000 A 
ATOM     18  N   UNL     1       6.111   5.892  16.763  0.00  0.00    +0.000 N 
ATOM     19  H   UNL     1       6.488   3.314  18.643  0.00  0.00    +0.000 HD
ATOM     20  H   UNL     1       6.384   6.522  16.026  0.00  0.00    +0.000 HD
ENDBRANCH   1  15
BRANCH   5  21
ATOM     21  C   UNL     1      -1.528  11.423  17.992  0.00  0.00    +0.000 C 
BRANCH  21  22
ATOM     22  C   UNL     1      -2.994  11.546  18.351  0.00  0.00    +0.000 A 
ATOM     23  C   UNL     1      -3.397  12.309  19.456  0.00  0.00    +0.000 A 
ATOM     24  C   UNL     1      -4.749  12.413  19.794  0.00  0.00    +0.000 A 
ATOM     25  C   UNL     1      -5.707  11.748  19.029  0.00  0.00    +0.000 A 
ATOM     26 CL   UNL     1      -7.372  11.886  19.441  0.00  0.00    +0.000 Cl
ATOM     27  C   UNL     1      -5.324  10.972  17.938  0.00  0.00    +0.000 A 
ATOM     28  C   UNL     1      -3.970  10.868  17.602  0.00  0.00    +0.000 A 
ENDBRANCH  21  22
ENDBRANCH   5  21
TORSDOF 3
ENDMDL
MODEL 3
REMARK VINA RESULT:      -8.1      1.620      2.376
REMARK  Name = 
REMARK  3 active torsions:
REMARK  status: ('A' for Active; 'I' for Inactive)
REMARK    1  A    between atoms: C_7  and  C_8
REMARK    2  A    between atoms: N_12  and  C_13
REMARK    3  A    between atoms: C_13  and  C_14
REMARK                            x       y       z     vdW  Elec       q    Type
REMARK                         _______ _______ _______ _____ _____    ______ ____
ROOT
ATOM      1  C   UNL     1       2.047   7.973  19.102  0.00  0.00    +0.000 C 
ATOM      2  N   UNL     1       1.893   8.865  18.175  0.00  0.00    +0.000 NA
ATOM      3  N   UNL     1       1.273  10.082  18.402  0.00  0.00    +0.000 NA
ATOM      4  C   UNL     1       0.624  10.390  19.476  0.00  0.00    +0.000 C 
ATOM      5  N   UNL     1      -0.018  11.585  19.650  0.00  0.00    +0.000 N 
ATOM      6  S   UNL     1       0.412   9.375  20.862  0.00  0.00    +0.000 S 
ATOM      7  C   UNL     1       1.575   8.081  20.522  0.00  0.00    +0.000 C 
ATOM      8  H   UNL     1      -0.532  11.656  20.520  0.00  0.00    +0.000 HD
ENDROOT
BRANCH   1  15
ATOM      9  O   UNL     1       3.767   1.006  18.496  0.00  0.00    +0.000 OA
ATOM     10  C   UNL     1       3.693   2.221  18.460  0.00  0.00    +0.000 A 
ATOM     11  N   UNL     1       4.379   3.081  17.590  0.00  0.00    +0.000 N 
ATOM     12  C   UNL     1       3.990   4.388  17.851  0.00  0.00    +0.000 A 
ATOM     13  C   UNL     1       4.364   5.562  17.244  0.00  0.00    +0.000 A 
ATOM     14  C   UNL     1       3.739   6.731  17.699  0.00  0.00    +0.000 A 
ATOM     15  C   UNL     1       2.762   6.701  18.732  0.00  0.00    +0.000 A 
ATOM     16  C   UNL     1       2.440   5.486  19.363  0.00  0.00    +0.000 A 
ATOM     17  C   UNL     1       3.062   4.356  18.890  0.00  0.00    +0.000 A 
ATOM     18  N   UNL     1       2.890   3.033  19.271  0.00  0.00    +0.000 N 
ATOM     19  H   UNL     1       5.018   2.761  16.880  0.00  0.00    +0.000 HD
ATOM     20  H   UNL     1       2.274   2.668  19.981  0.00  0.00    +0.000 HD
ENDBRANCH   1  15
BRANCH   5  21
ATOM     21  C   UNL     1      -0.585  12.323  18.545  0.00  0.00    +0.000 C 
BRANCH  21  22
ATOM     22  C   UNL     1      -2.062  12.010  18.429  0.00  0.00    +0.000 A 
ATOM     23  C   UNL     1      -2.951  12.373  19.451  0.00  0.00    +0.000 A 
ATOM     24  C   UNL     1      -4.312  12.073  19.348  0.00  0.00    +0.000 A 
ATOM     25  C   UNL     1      -4.792  11.403  18.222  0.00  0.00    +0.000 A 
ATOM     26 CL   UNL     1      -6.470  11.045  18.094  0.00  0.00    +0.000 Cl
ATOM     27  C   UNL     1      -3.920  11.021  17.206  0.00  0.00    +0.000 A 
ATOM     28  C   UNL     1      -2.558  11.319  17.311  0.00  0.00    +0.000 A 
ENDBRANCH  21  22
ENDBRANCH   5  21
TORSDOF 3
ENDMDL
MODEL 4
REMARK VINA RESULT:      -8.0      3.027      3.367
REMARK  Name = 
REMARK  3 active torsions:
REMARK  status: ('A' for Active; 'I' for Inactive)
REMARK    1  A    between atoms: C_7  and  C_8
REMARK    2  A    between atoms: N_12  and  C_13
REMARK    3  A    between atoms: C_13  and  C_14
REMARK                            x       y       z     vdW  Elec       q    Type
REMARK                         _______ _______ _______ _____ _____    ______ ____
ROOT
ATOM      1  C   UNL     1       2.144   7.808  18.761  0.00  0.00    +0.000 C 
ATOM      2  N   UNL     1       1.865   7.711  20.022  0.00  0.00    +0.000 NA
ATOM      3  N   UNL     1       1.022   8.596  20.673  0.00  0.00    +0.000 NA
ATOM      4  C   UNL     1       0.579   9.699  20.167  0.00  0.00    +0.000 C 
ATOM      5  N   UNL     1      -0.216  10.576  20.854  0.00  0.00    +0.000 N 
ATOM      6  S   UNL     1       0.911  10.295  18.576  0.00  0.00    +0.000 S 
ATOM      7  C   UNL     1       1.649   8.870  17.823  0.00  0.00    +0.000 C 
ATOM      8  H   UNL     1      -0.434  11.424  20.344  0.00  0.00    +0.000 HD
ENDROOT
BRANCH   1  15
ATOM      9  O   UNL     1       7.810   4.621  15.661  0.00  0.00    +0.000 OA
ATOM     10  C   UNL     1       6.752   4.921  16.183  0.00  0.00    +0.000 A 
ATOM     11  N   UNL     1       5.828   4.047  16.775  0.00  0.00    +0.000 N 
ATOM     12  C   UNL     1       4.770   4.789  17.284  0.00  0.00    +0.000 A 
ATOM     13  C   UNL     1       3.650   4.382  17.969  0.00  0.00    +0.000 A 
ATOM     14  C   UNL     1       2.783   5.391  18.410  0.00  0.00    +0.000 A 
ATOM     15  C   UNL     1       3.054   6.766  18.167  0.00  0.00    +0.000 A 
ATOM     16  C   UNL     1       4.185   7.141  17.421  0.00  0.00    +0.000 A 
ATOM     17  C   UNL     1       5.021   6.132  17.008  0.00  0.00    +0.000 A 
ATOM     18  N   UNL     1       6.226   6.211  16.325  0.00  0.00    +0.000 N 
ATOM     19  H   UNL     1       5.962   3.050  16.833  0.00  0.00    +0.000 HD
ATOM     20  H   UNL     1       6.699   7.040  15.999  0.00  0.00    +0.000 HD
ENDBRANCH   1  15
BRANCH   5  21
ATOM     21  C   UNL     1      -0.131  10.731  22.288  0.00  0.00    +0.000 C 
BRANCH  21  22
ATOM     22  C   UNL     1      -1.026  11.869  22.731  0.00  0.00    +0.000 A 
ATOM     23  C   UNL     1      -2.292  11.611  23.276  0.00  0.00    +0.000 A 
ATOM     24  C   UNL     1      -3.123  12.662  23.673  0.00  0.00    +0.000 A 
ATOM     25  C   UNL     1      -2.692  13.981  23.522  0.00  0.00    +0.000 A 
ATOM     26 CL   UNL     1      -3.713  15.273  24.022  0.00  0.00    +0.000 Cl
ATOM     27  C   UNL     1      -1.445  14.256  22.967  0.00  0.00    +0.000 A 
ATOM     28  C   UNL     1      -0.616  13.202  22.568  0.00  0.00    +0.000 A 
ENDBRANCH  21  22
ENDBRANCH   5  21
TORSDOF 3
ENDMDL
MODEL 5
REMARK VINA RESULT:      -8.0      2.322      2.701
REMARK  Name = 
REMARK  3 active torsions:
REMARK  status: ('A' for Active; 'I' for Inactive)
REMARK    1  A    between atoms: C_7  and  C_8
REMARK    2  A    between atoms: N_12  and  C_13
REMARK    3  A    between atoms: C_13  and  C_14
REMARK                            x       y       z     vdW  Elec       q    Type
REMARK                         _______ _______ _______ _____ _____    ______ ____
ROOT
ATOM      1  C   UNL     1       2.256   7.824  19.059  0.00  0.00    +0.000 C 
ATOM      2  N   UNL     1       1.830   7.914  20.279  0.00  0.00    +0.000 NA
ATOM      3  N   UNL     1       0.890   8.849  20.678  0.00  0.00    +0.000 NA
ATOM      4  C   UNL     1       0.480   9.837  19.953  0.00  0.00    +0.000 C 
ATOM      5  N   UNL     1      -0.416  10.772  20.394  0.00  0.00    +0.000 N 
ATOM      6  S   UNL     1       0.984  10.190  18.335  0.00  0.00    +0.000 S 
ATOM      7  C   UNL     1       1.847   8.700  17.912  0.00  0.00    +0.000 C 
ATOM      8  H   UNL     1      -0.595  11.518  19.732  0.00  0.00    +0.000 HD
ENDROOT
BRANCH   1  15
ATOM      9  O   UNL     1       7.938   4.323  16.352  0.00  0.00    +0.000 OA
ATOM     10  C   UNL     1       6.927   4.687  16.924  0.00  0.00    +0.000 A 
ATOM     11  N   UNL     1       6.289   4.047  17.997  0.00  0.00    +0.000 N 
ATOM     12  C   UNL     1       5.189   4.802  18.381  0.00  0.00    +0.000 A 
ATOM     13  C   UNL     1       4.282   4.596  19.393  0.00  0.00    +0.000 A 
ATOM     14  C   UNL     1       3.305   5.585  19.570  0.00  0.00    +0.000 A 
ATOM     15  C   UNL     1       3.260   6.746  18.749  0.00  0.00    +0.000 A 
ATOM     16  C   UNL     1       4.175   6.898  17.693  0.00  0.00    +0.000 A 
ATOM     17  C   UNL     1       5.127   5.917  17.548  0.00  0.00    +0.000 A 
ATOM     18  N   UNL     1       6.181   5.841  16.649  0.00  0.00    +0.000 N 
ATOM     19  H   UNL     1       6.625   3.195  18.416  0.00  0.00    +0.000 HD
ATOM     20  H   UNL     1       6.429   6.500  15.928  0.00  0.00    +0.000 HD
ENDBRANCH   1  15
BRANCH   5  21
ATOM     21  C   UNL     1      -0.509  11.154  21.784  0.00  0.00    +0.000 C 
BRANCH  21  22
ATOM     22  C   UNL     1      -1.817  11.876  22.027  0.00  0.00    +0.000 A 
ATOM     23  C   UNL     1      -2.449  12.578  20.990  0.00  0.00    +0.000 A 
ATOM     24  C   UNL     1      -3.651  13.253  21.218  0.00  0.00    +0.000 A 
ATOM     25  C   UNL     1      -4.226  13.235  22.488  0.00  0.00    +0.000 A 
ATOM     26 CL   UNL     1      -5.712  14.059  22.763  0.00  0.00    +0.000 Cl
ATOM     27  C   UNL     1      -3.605  12.557  23.534  0.00  0.00    +0.000 A 
ATOM     28  C   UNL     1      -2.400  11.883  23.305  0.00  0.00    +0.000 A 
ENDBRANCH  21  22
ENDBRANCH   5  21
TORSDOF 3
ENDMDL
MODEL 6
REMARK VINA RESULT:      -7.8      1.802      2.276
REMARK  Name = 
REMARK  3 active torsions:
REMARK  status: ('A' for Active; 'I' for Inactive)
REMARK    1  A    between atoms: C_7  and  C_8
REMARK    2  A    between atoms: N_12  and  C_13
REMARK    3  A    between atoms: C_13  and  C_14
REMARK                            x       y       z     vdW  Elec       q    Type
REMARK                         _______ _______ _______ _____ _____    ______ ____
ROOT
ATOM      1  C   UNL     1       2.259   7.827  18.929  0.00  0.00    +0.000 C 
ATOM      2  N   UNL     1       1.874   8.916  18.342  0.00  0.00    +0.000 NA
ATOM      3  N   UNL     1       1.179   9.917  18.999  0.00  0.00    +0.000 NA
ATOM      4  C   UNL     1       0.678   9.809  20.186  0.00  0.00    +0.000 C 
ATOM      5  N   UNL     1      -0.045  10.801  20.790  0.00  0.00    +0.000 N 
ATOM      6  S   UNL     1       0.787   8.420  21.213  0.00  0.00    +0.000 S 
ATOM      7  C   UNL     1       2.005   7.456  20.360  0.00  0.00    +0.000 C 
ATOM      8  H   UNL     1      -0.421  10.546  21.695  0.00  0.00    +0.000 HD
ENDROOT
BRANCH   1  15
ATOM      9  O   UNL     1       7.438   4.723  15.003  0.00  0.00    +0.000 OA
ATOM     10  C   UNL     1       6.437   5.024  15.627  0.00  0.00    +0.000 A 
ATOM     11  N   UNL     1       5.444   4.153  16.098  0.00  0.00    +0.000 N 
ATOM     12  C   UNL     1       4.490   4.889  16.789  0.00  0.00    +0.000 A 
ATOM     13  C   UNL     1       3.357   4.476  17.447  0.00  0.00    +0.000 A 
ATOM     14  C   UNL     1       2.620   5.467  18.110  0.00  0.00    +0.000 A 
ATOM     15  C   UNL     1       3.030   6.828  18.107  0.00  0.00    +0.000 A 
ATOM     16  C   UNL     1       4.169   7.221  17.383  0.00  0.00    +0.000 A 
ATOM     17  C   UNL     1       4.876   6.228  16.749  0.00  0.00    +0.000 A 
ATOM     18  N   UNL     1       6.059   6.312  16.029  0.00  0.00    +0.000 N 
ATOM     19  H   UNL     1       5.471   3.155  15.965  0.00  0.00    +0.000 HD
ATOM     20  H   UNL     1       6.607   7.135  15.834  0.00  0.00    +0.000 HD
ENDBRANCH   1  15
BRANCH   5  21
ATOM     21  C   UNL     1      -0.847  11.737  20.037  0.00  0.00    +0.000 C 
BRANCH  21  22
ATOM     22  C   UNL     1      -2.036  12.171  20.868  0.00  0.00    +0.000 A 
ATOM     23  C   UNL     1      -2.007  12.066  22.266  0.00  0.00    +0.000 A 
ATOM     24  C   UNL     1      -3.109  12.456  23.031  0.00  0.00    +0.000 A 
ATOM     25  C   UNL     1      -4.252  12.949  22.400  0.00  0.00    +0.000 A 
ATOM     26 CL   UNL     1      -5.604  13.437  23.346  0.00  0.00    +0.000 Cl
ATOM     27  C   UNL     1      -4.305  13.043  21.012  0.00  0.00    +0.000 A 
ATOM     28  C   UNL     1      -3.201  12.651  20.247  0.00  0.00    +0.000 A 
ENDBRANCH  21  22
ENDBRANCH   5  21
TORSDOF 3
ENDMDL
MODEL 7
REMARK VINA RESULT:      -7.8      2.631      3.298
REMARK  Name = 
REMARK  3 active torsions:
REMARK  status: ('A' for Active; 'I' for Inactive)
REMARK    1  A    between atoms: C_7  and  C_8
REMARK    2  A    between atoms: N_12  and  C_13
REMARK    3  A    between atoms: C_13  and  C_14
REMARK                            x       y       z     vdW  Elec       q    Type
REMARK                         _______ _______ _______ _____ _____    ______ ____
ROOT
ATOM      1  C   UNL     1       2.103   8.029  18.877  0.00  0.00    +0.000 C 
ATOM      2  N   UNL     1       1.572   8.154  20.051  0.00  0.00    +0.000 NA
ATOM      3  N   UNL     1       0.867   9.281  20.439  0.00  0.00    +0.000 NA
ATOM      4  C   UNL     1       0.817  10.385  19.769  0.00  0.00    +0.000 C 
ATOM      5  N   UNL     1       0.148  11.498  20.202  0.00  0.00    +0.000 N 
ATOM      6  S   UNL     1       1.586  10.688  18.248  0.00  0.00    +0.000 S 
ATOM      7  C   UNL     1       2.077   9.051  17.779  0.00  0.00    +0.000 C 
ATOM      8  H   UNL     1       0.250  12.303  19.596  0.00  0.00    +0.000 HD
ENDROOT
BRANCH   1  15
ATOM      9  O   UNL     1       3.744   1.029  18.450  0.00  0.00    +0.000 OA
ATOM     10  C   UNL     1       3.694   2.245  18.401  0.00  0.00    +0.000 A 
ATOM     11  N   UNL     1       4.461   3.087  17.582  0.00  0.00    +0.000 N 
ATOM     12  C   UNL     1       4.075   4.402  17.804  0.00  0.00    +0.000 A 
ATOM     13  C   UNL     1       4.516   5.565  17.221  0.00  0.00    +0.000 A 
ATOM     14  C   UNL     1       3.878   6.748  17.619  0.00  0.00    +0.000 A 
ATOM     15  C   UNL     1       2.823   6.742  18.572  0.00  0.00    +0.000 A 
ATOM     16  C   UNL     1       2.431   5.538  19.183  0.00  0.00    +0.000 A 
ATOM     17  C   UNL     1       3.069   4.393  18.768  0.00  0.00    +0.000 A 
ATOM     18  N   UNL     1       2.844   3.076  19.142  0.00  0.00    +0.000 N 
ATOM     19  H   UNL     1       5.148   2.751  16.927  0.00  0.00    +0.000 HD
ATOM     20  H   UNL     1       2.169   2.727  19.803  0.00  0.00    +0.000 HD
ENDBRANCH   1  15
BRANCH   5  21
ATOM     21  C   UNL     1      -0.008  11.804  21.605  0.00  0.00    +0.000 C 
BRANCH  21  22
ATOM     22  C   UNL     1      -1.459  12.125  21.896  0.00  0.00    +0.000 A 
ATOM     23  C   UNL     1      -2.312  12.567  20.875  0.00  0.00    +0.000 A 
ATOM     24  C   UNL     1      -3.648  12.874  21.147  0.00  0.00    +0.000 A 
ATOM     25  C   UNL     1      -4.138  12.745  22.446  0.00  0.00    +0.000 A 
ATOM     26 CL   UNL     1      -5.787  13.113  22.776  0.00  0.00    +0.000 Cl
ATOM     27  C   UNL     1      -3.301  12.323  23.477  0.00  0.00    +0.000 A 
ATOM     28  C   UNL     1      -1.963  12.019  23.203  0.00  0.00    +0.000 A 
ENDBRANCH  21  22
ENDBRANCH   5  21
TORSDOF 3
ENDMDL
MODEL 8
REMARK VINA RESULT:      -7.7      3.203      3.540
REMARK  Name = 
REMARK  3 active torsions:
REMARK  status: ('A' for Active; 'I' for Inactive)
REMARK    1  A    between atoms: C_7  and  C_8
REMARK    2  A    between atoms: N_12  and  C_13
REMARK    3  A    between atoms: C_13  and  C_14
REMARK                            x       y       z     vdW  Elec       q    Type
REMARK                         _______ _______ _______ _____ _____    ______ ____
ROOT
ATOM      1  C   UNL     1       2.305   7.750  18.974  0.00  0.00    +0.000 C 
ATOM      2  N   UNL     1       1.889   7.673  20.198  0.00  0.00    +0.000 NA
ATOM      3  N   UNL     1       0.929   8.524  20.718  0.00  0.00    +0.000 NA
ATOM      4  C   UNL     1       0.486   9.584  20.127  0.00  0.00    +0.000 C 
ATOM      5  N   UNL     1      -0.430  10.432  20.688  0.00  0.00    +0.000 N 
ATOM      6  S   UNL     1       0.967  10.153  18.564  0.00  0.00    +0.000 S 
ATOM      7  C   UNL     1       1.864   8.754  17.950  0.00  0.00    +0.000 C 
ATOM      8  H   UNL     1      -0.634  11.250  20.128  0.00  0.00    +0.000 HD
ENDROOT
BRANCH   1  15
ATOM      9  O   UNL     1       7.811   4.667  15.502  0.00  0.00    +0.000 OA
ATOM     10  C   UNL     1       6.862   4.958  16.207  0.00  0.00    +0.000 A 
ATOM     11  N   UNL     1       6.422   4.275  17.351  0.00  0.00    +0.000 N 
ATOM     12  C   UNL     1       5.332   4.949  17.885  0.00  0.00    +0.000 A 
ATOM     13  C   UNL     1       4.586   4.679  19.007  0.00  0.00    +0.000 A 
ATOM     14  C   UNL     1       3.573   5.594  19.322  0.00  0.00    +0.000 A 
ATOM     15  C   UNL     1       3.334   6.747  18.524  0.00  0.00    +0.000 A 
ATOM     16  C   UNL     1       4.086   6.964  17.356  0.00  0.00    +0.000 A 
ATOM     17  C   UNL     1       5.078   6.055  17.076  0.00  0.00    +0.000 A 
ATOM     18  N   UNL     1       6.005   6.054  16.044  0.00  0.00    +0.000 N 
ATOM     19  H   UNL     1       6.872   3.450  17.714  0.00  0.00    +0.000 HD
ATOM     20  H   UNL     1       6.105   6.728  15.302  0.00  0.00    +0.000 HD
ENDBRANCH   1  15
BRANCH   5  21
ATOM     21  C   UNL     1      -0.519  10.631  22.117  0.00  0.00    +0.000 C 
BRANCH  21  22
ATOM     22  C   UNL     1      -0.851  12.080  22.408  0.00  0.00    +0.000 A 
ATOM     23  C   UNL     1      -0.067  13.113  21.874  0.00  0.00    +0.000 A 
ATOM     24  C   UNL     1      -0.367  14.449  22.153  0.00  0.00    +0.000 A 
ATOM     25  C   UNL     1      -1.452  14.760  22.972  0.00  0.00    +0.000 A 
ATOM     26 CL   UNL     1      -1.825  16.407  23.305  0.00  0.00    +0.000 Cl
ATOM     27  C   UNL     1      -2.231  13.746  23.524  0.00  0.00    +0.000 A 
ATOM     28  C   UNL     1      -1.928  12.409  23.246  0.00  0.00    +0.000 A 
ENDBRANCH  21  22
ENDBRANCH   5  21
TORSDOF 3
ENDMDL
MODEL 9
REMARK VINA RESULT:      -7.6      3.029      3.927
REMARK  Name = 
REMARK  3 active torsions:
REMARK  status: ('A' for Active; 'I' for Inactive)
REMARK    1  A    between atoms: C_7  and  C_8
REMARK    2  A    between atoms: N_12  and  C_13
REMARK    3  A    between atoms: C_13  and  C_14
REMARK                            x       y       z     vdW  Elec       q    Type
REMARK                         _______ _______ _______ _____ _____    ______ ____
ROOT
ATOM      1  C   UNL     1       0.942   9.268  19.540  0.00  0.00    +0.000 C 
ATOM      2  N   UNL     1       0.510   9.259  20.761  0.00  0.00    +0.000 NA
ATOM      3  N   UNL     1      -0.443  10.149  21.226  0.00  0.00    +0.000 NA
ATOM      4  C   UNL     1      -0.864  11.184  20.577  0.00  0.00    +0.000 C 
ATOM      5  N   UNL     1      -1.773  12.072  21.083  0.00  0.00    +0.000 N 
ATOM      6  S   UNL     1      -0.357  11.666  18.993  0.00  0.00    +0.000 S 
ATOM      7  C   UNL     1       0.527  10.225  18.461  0.00  0.00    +0.000 C 
ATOM      8  H   UNL     1      -1.959  12.864  20.480  0.00  0.00    +0.000 HD
ENDROOT
BRANCH   1  15
ATOM      9  O   UNL     1       4.867   3.231  19.416  0.00  0.00    +0.000 OA
ATOM     10  C   UNL     1       4.354   4.320  19.237  0.00  0.00    +0.000 A 
ATOM     11  N   UNL     1       4.463   5.124  18.093  0.00  0.00    +0.000 N 
ATOM     12  C   UNL     1       3.700   6.271  18.275  0.00  0.00    +0.000 A 
ATOM     13  C   UNL     1       3.475   7.329  17.429  0.00  0.00    +0.000 A 
ATOM     14  C   UNL     1       2.594   8.320  17.883  0.00  0.00    +0.000 A 
ATOM     15  C   UNL     1       1.961   8.229  19.153  0.00  0.00    +0.000 A 
ATOM     16  C   UNL     1       2.253   7.155  20.012  0.00  0.00    +0.000 A 
ATOM     17  C   UNL     1       3.113   6.195  19.537  0.00  0.00    +0.000 A 
ATOM     18  N   UNL     1       3.522   5.009  20.130  0.00  0.00    +0.000 N 
ATOM     19  H   UNL     1       4.992   4.862  17.277  0.00  0.00    +0.000 HD
ATOM     20  H   UNL     1       3.261   4.647  21.033  0.00  0.00    +0.000 HD
ENDBRANCH   1  15
BRANCH   5  21
ATOM     21  C   UNL     1      -1.876  12.345  22.499  0.00  0.00    +0.000 C 
BRANCH  21  22
ATOM     22  C   UNL     1      -3.330  12.546  22.873  0.00  0.00    +0.000 A 
ATOM     23  C   UNL     1      -3.748  12.421  24.205  0.00  0.00    +0.000 A 
ATOM     24  C   UNL     1      -5.092  12.596  24.548  0.00  0.00    +0.000 A 
ATOM     25  C   UNL     1      -6.027  12.892  23.556  0.00  0.00    +0.000 A 
ATOM     26 CL   UNL     1      -7.679  13.116  23.982  0.00  0.00    +0.000 Cl
ATOM     27  C   UNL     1      -5.632  13.003  22.225  0.00  0.00    +0.000 A 
ATOM     28  C   UNL     1      -4.287  12.825  21.883  0.00  0.00    +0.000 A 
ENDBRANCH  21  22
ENDBRANCH   5  21
TORSDOF 3
ENDMDL
