MODEL 1
REMARK VINA RESULT:      -7.7      0.000      0.000
REMARK  Name = 
REMARK  2 active torsions:
REMARK  status: ('A' for Active; 'I' for Inactive)
REMARK    1  A    between atoms: O_1  and  C_2
REMARK    2  A    between atoms: C_5  and  C_6
REMARK                            x       y       z     vdW  Elec       q    Type
REMARK                         _______ _______ _______ _____ _____    ______ ____
ROOT
ATOM      1  C   UNL     1       4.971   4.902  18.446  0.00  0.00    +0.000 A 
ATOM      2  C   UNL     1       5.959   5.286  19.328  0.00  0.00    +0.000 A 
ATOM      3  S   UNL     1       7.291   5.943  18.460  0.00  0.00    +0.000 S 
ATOM      4  C   UNL     1       6.476   5.629  16.969  0.00  0.00    +0.000 A 
ATOM      5  N   UNL     1       7.093   5.838  15.784  0.00  0.00    +0.000 N 
ATOM      6  C   UNL     1       6.781   5.161  14.600  0.00  0.00    +0.000 A 
ATOM      7  C   UNL     1       5.507   4.674  14.306  0.00  0.00    +0.000 A 
ATOM      8  C   UNL     1       5.298   3.905  13.165  0.00  0.00    +0.000 A 
ATOM      9  C   UNL     1       6.361   3.673  12.310  0.00  0.00    +0.000 A 
ATOM     10  C   UNL     1       7.582   4.240  12.630  0.00  0.00    +0.000 A 
ATOM     11  N   UNL     1       7.811   4.973  13.746  0.00  0.00    +0.000 NA
ATOM     12  N   UNL     1       5.260   5.160  17.125  0.00  0.00    +0.000 NA
ATOM     13  H   UNL     1       8.084   6.044  15.790  0.00  0.00    +0.000 HD
ENDROOT
BRANCH   1  17
ATOM     14  C   UNL     1       1.245   3.132  19.472  0.00  0.00    +0.000 A 
ATOM     15  C   UNL     1       1.802   4.096  20.302  0.00  0.00    +0.000 A 
ATOM     16  C   UNL     1       3.034   4.661  19.959  0.00  0.00    +0.000 A 
ATOM     17  C   UNL     1       3.714   4.259  18.797  0.00  0.00    +0.000 A 
ATOM     18  C   UNL     1       3.127   3.293  17.971  0.00  0.00    +0.000 A 
ATOM     19  C   UNL     1       1.895   2.730  18.310  0.00  0.00    +0.000 A 
BRANCH  14  20
ATOM     20  O   UNL     1       0.044   2.553  19.757  0.00  0.00    +0.000 OA
ATOM     21  H   UNL     1      -0.029   1.729  19.250  0.00  0.00    +0.000 HD
ENDBRANCH  14  20
ENDBRANCH   1  17
TORSDOF 2
ENDMDL
MODEL 2
REMARK VINA RESULT:      -7.6      0.083      1.111
REMARK  Name = 
REMARK  2 active torsions:
REMARK  status: ('A' for Active; 'I' for Inactive)
REMARK    1  A    between atoms: O_1  and  C_2
REMARK    2  A    between atoms: C_5  and  C_6
REMARK                            x       y       z     vdW  Elec       q    Type
REMARK                         _______ _______ _______ _____ _____    ______ ____
ROOT
ATOM      1  C   UNL     1       4.929   4.991  18.443  0.00  0.00    +0.000 A 
ATOM      2  C   UNL     1       5.927   5.330  19.332  0.00  0.00    +0.000 A 
ATOM      3  S   UNL     1       7.294   5.925  18.474  0.00  0.00    +0.000 S 
ATOM      4  C   UNL     1       6.477   5.649  16.977  0.00  0.00    +0.000 A 
ATOM      5  N   UNL     1       7.111   5.829  15.797  0.00  0.00    +0.000 N 
ATOM      6  C   UNL     1       6.777   5.167  14.611  0.00  0.00    +0.000 A 
ATOM      7  C   UNL     1       5.485   4.739  14.307  0.00  0.00    +0.000 A 
ATOM      8  C   UNL     1       5.250   3.981  13.164  0.00  0.00    +0.000 A 
ATOM      9  C   UNL     1       6.307   3.700  12.317  0.00  0.00    +0.000 A 
ATOM     10  C   UNL     1       7.551   4.210  12.646  0.00  0.00    +0.000 A 
ATOM     11  N   UNL     1       7.804   4.933  13.764  0.00  0.00    +0.000 NA
ATOM     12  N   UNL     1       5.240   5.235  17.124  0.00  0.00    +0.000 NA
ATOM     13  H   UNL     1       8.111   5.990  15.810  0.00  0.00    +0.000 HD
ENDROOT
BRANCH   1  17
ATOM     14  C   UNL     1       1.218   3.172  19.435  0.00  0.00    +0.000 A 
ATOM     15  C   UNL     1       1.855   2.837  18.247  0.00  0.00    +0.000 A 
ATOM     16  C   UNL     1       3.068   3.451  17.927  0.00  0.00    +0.000 A 
ATOM     17  C   UNL     1       3.642   4.407  18.784  0.00  0.00    +0.000 A 
ATOM     18  C   UNL     1       2.986   4.719  19.981  0.00  0.00    +0.000 A 
ATOM     19  C   UNL     1       1.776   4.103  20.305  0.00  0.00    +0.000 A 
BRANCH  14  20
ATOM     20  O   UNL     1       0.036   2.598  19.797  0.00  0.00    +0.000 OA
ATOM     21  H   UNL     1      -0.671   2.976  19.250  0.00  0.00    +0.000 HD
ENDBRANCH  14  20
ENDBRANCH   1  17
TORSDOF 2
ENDMDL
MODEL 3
REMARK VINA RESULT:      -7.1      3.606      4.535
REMARK  Name = 
REMARK  2 active torsions:
REMARK  status: ('A' for Active; 'I' for Inactive)
REMARK    1  A    between atoms: O_1  and  C_2
REMARK    2  A    between atoms: C_5  and  C_6
REMARK                            x       y       z     vdW  Elec       q    Type
REMARK                         _______ _______ _______ _____ _____    ______ ____
ROOT
ATOM      1  C   UNL     1       2.666   6.045  19.720  0.00  0.00    +0.000 A 
ATOM      2  C   UNL     1       2.205   4.985  20.471  0.00  0.00    +0.000 A 
ATOM      3  S   UNL     1       3.146   3.584  20.141  0.00  0.00    +0.000 S 
ATOM      4  C   UNL     1       4.074   4.477  18.989  0.00  0.00    +0.000 A 
ATOM      5  N   UNL     1       5.002   3.863  18.221  0.00  0.00    +0.000 N 
ATOM      6  C   UNL     1       5.409   4.314  16.960  0.00  0.00    +0.000 A 
ATOM      7  C   UNL     1       5.409   5.659  16.588  0.00  0.00    +0.000 A 
ATOM      8  C   UNL     1       5.710   6.021  15.279  0.00  0.00    +0.000 A 
ATOM      9  C   UNL     1       6.053   5.035  14.372  0.00  0.00    +0.000 A 
ATOM     10  C   UNL     1       6.096   3.728  14.826  0.00  0.00    +0.000 A 
ATOM     11  N   UNL     1       5.785   3.352  16.090  0.00  0.00    +0.000 NA
ATOM     12  N   UNL     1       3.758   5.750  18.936  0.00  0.00    +0.000 NA
ATOM     13  H   UNL     1       5.042   2.852  18.234  0.00  0.00    +0.000 HD
ENDROOT
BRANCH   1  17
ATOM     14  C   UNL     1       0.927   9.919  19.532  0.00  0.00    +0.000 A 
ATOM     15  C   UNL     1       1.562   9.393  18.414  0.00  0.00    +0.000 A 
ATOM     16  C   UNL     1       2.140   8.124  18.493  0.00  0.00    +0.000 A 
ATOM     17  C   UNL     1       2.095   7.383  19.687  0.00  0.00    +0.000 A 
ATOM     18  C   UNL     1       1.440   7.930  20.797  0.00  0.00    +0.000 A 
ATOM     19  C   UNL     1       0.858   9.197  20.719  0.00  0.00    +0.000 A 
BRANCH  14  20
ATOM     20  O   UNL     1       0.342  11.150  19.507  0.00  0.00    +0.000 OA
ATOM     21  H   UNL     1       0.793  11.692  18.840  0.00  0.00    +0.000 HD
ENDBRANCH  14  20
ENDBRANCH   1  17
TORSDOF 2
ENDMDL
MODEL 4
REMARK VINA RESULT:      -7.0      3.545      4.394
REMARK  Name = 
REMARK  2 active torsions:
REMARK  status: ('A' for Active; 'I' for Inactive)
REMARK    1  A    between atoms: O_1  and  C_2
REMARK    2  A    between atoms: C_5  and  C_6
REMARK                            x       y       z     vdW  Elec       q    Type
REMARK                         _______ _______ _______ _____ _____    ______ ____
ROOT
ATOM      1  C   UNL     1       2.663   5.921  19.809  0.00  0.00    +0.000 A 
ATOM      2  C   UNL     1       2.256   4.840  20.562  0.00  0.00    +0.000 A 
ATOM      3  S   UNL     1       3.245   3.478  20.208  0.00  0.00    +0.000 S 
ATOM      4  C   UNL     1       4.118   4.413  19.046  0.00  0.00    +0.000 A 
ATOM      5  N   UNL     1       5.056   3.839  18.260  0.00  0.00    +0.000 N 
ATOM      6  C   UNL     1       5.424   4.312  16.995  0.00  0.00    +0.000 A 
ATOM      7  C   UNL     1       5.365   5.658  16.630  0.00  0.00    +0.000 A 
ATOM      8  C   UNL     1       5.631   6.039  15.318  0.00  0.00    +0.000 A 
ATOM      9  C   UNL     1       5.997   5.070  14.400  0.00  0.00    +0.000 A 
ATOM     10  C   UNL     1       6.097   3.764  14.846  0.00  0.00    +0.000 A 
ATOM     11  N   UNL     1       5.823   3.370  16.113  0.00  0.00    +0.000 NA
ATOM     12  N   UNL     1       3.752   5.672  19.006  0.00  0.00    +0.000 NA
ATOM     13  H   UNL     1       5.136   2.830  18.265  0.00  0.00    +0.000 HD
ENDROOT
BRANCH   1  17
ATOM     14  C   UNL     1       0.916   9.795  19.855  0.00  0.00    +0.000 A 
ATOM     15  C   UNL     1       0.882   9.010  21.000  0.00  0.00    +0.000 A 
ATOM     16  C   UNL     1       1.449   7.734  20.968  0.00  0.00    +0.000 A 
ATOM     17  C   UNL     1       2.040   7.235  19.794  0.00  0.00    +0.000 A 
ATOM     18  C   UNL     1       2.071   8.050  18.656  0.00  0.00    +0.000 A 
ATOM     19  C   UNL     1       1.508   9.328  18.687  0.00  0.00    +0.000 A 
BRANCH  14  20
ATOM     20  O   UNL     1       0.382  11.050  19.834  0.00  0.00    +0.000 OA
ATOM     21  H   UNL     1       0.432  11.391  18.927  0.00  0.00    +0.000 HD
ENDBRANCH  14  20
ENDBRANCH   1  17
TORSDOF 2
ENDMDL
MODEL 5
REMARK VINA RESULT:      -6.9      1.294      1.475
REMARK  Name = 
REMARK  2 active torsions:
REMARK  status: ('A' for Active; 'I' for Inactive)
REMARK    1  A    between atoms: O_1  and  C_2
REMARK    2  A    between atoms: C_5  and  C_6
REMARK                            x       y       z     vdW  Elec       q    Type
REMARK                         _______ _______ _______ _____ _____    ______ ____
ROOT
ATOM      1  C   UNL     1       4.858   4.652  17.151  0.00  0.00    +0.000 A 
ATOM      2  C   UNL     1       5.843   5.242  17.915  0.00  0.00    +0.000 A 
ATOM      3  S   UNL     1       7.107   5.813  16.898  0.00  0.00    +0.000 S 
ATOM      4  C   UNL     1       6.274   5.197  15.515  0.00  0.00    +0.000 A 
ATOM      5  N   UNL     1       6.844   5.231  14.290  0.00  0.00    +0.000 N 
ATOM      6  C   UNL     1       6.545   4.340  13.253  0.00  0.00    +0.000 A 
ATOM      7  C   UNL     1       5.297   3.736  13.095  0.00  0.00    +0.000 A 
ATOM      8  C   UNL     1       5.108   2.769  12.113  0.00  0.00    +0.000 A 
ATOM      9  C   UNL     1       6.160   2.454  11.271  0.00  0.00    +0.000 A 
ATOM     10  C   UNL     1       7.351   3.138  11.443  0.00  0.00    +0.000 A 
ATOM     11  N   UNL     1       7.561   4.067  12.406  0.00  0.00    +0.000 NA
ATOM     12  N   UNL     1       5.095   4.692  15.795  0.00  0.00    +0.000 NA
ATOM     13  H   UNL     1       7.820   5.492  14.223  0.00  0.00    +0.000 HD
ENDROOT
BRANCH   1  17
ATOM     14  C   UNL     1       1.281   2.818  18.530  0.00  0.00    +0.000 A 
ATOM     15  C   UNL     1       1.339   4.199  18.392  0.00  0.00    +0.000 A 
ATOM     16  C   UNL     1       2.525   4.790  17.949  0.00  0.00    +0.000 A 
ATOM     17  C   UNL     1       3.655   4.008  17.654  0.00  0.00    +0.000 A 
ATOM     18  C   UNL     1       3.568   2.618  17.791  0.00  0.00    +0.000 A 
ATOM     19  C   UNL     1       2.382   2.025  18.229  0.00  0.00    +0.000 A 
BRANCH  14  20
ATOM     20  O   UNL     1       0.147   2.191  18.952  0.00  0.00    +0.000 OA
ATOM     21  H   UNL     1      -0.559   2.362  18.308  0.00  0.00    +0.000 HD
ENDBRANCH  14  20
ENDBRANCH   1  17
TORSDOF 2
ENDMDL
MODEL 6
REMARK VINA RESULT:      -6.7      2.967      6.521
REMARK  Name = 
REMARK  2 active torsions:
REMARK  status: ('A' for Active; 'I' for Inactive)
REMARK    1  A    between atoms: O_1  and  C_2
REMARK    2  A    between atoms: C_5  and  C_6
REMARK                            x       y       z     vdW  Elec       q    Type
REMARK                         _______ _______ _______ _____ _____    ______ ____
ROOT
ATOM      1  C   UNL     1       6.669   4.874  16.592  0.00  0.00    +0.000 A 
ATOM      2  C   UNL     1       7.352   5.827  17.319  0.00  0.00    +0.000 A 
ATOM      3  S   UNL     1       6.917   5.716  18.979  0.00  0.00    +0.000 S 
ATOM      4  C   UNL     1       5.817   4.436  18.607  0.00  0.00    +0.000 A 
ATOM      5  N   UNL     1       4.999   3.928  19.555  0.00  0.00    +0.000 N 
ATOM      6  C   UNL     1       3.767   3.319  19.292  0.00  0.00    +0.000 A 
ATOM      7  C   UNL     1       3.487   2.629  18.112  0.00  0.00    +0.000 A 
ATOM      8  C   UNL     1       2.202   2.153  17.869  0.00  0.00    +0.000 A 
ATOM      9  C   UNL     1       1.226   2.335  18.832  0.00  0.00    +0.000 A 
ATOM     10  C   UNL     1       1.589   2.971  20.007  0.00  0.00    +0.000 A 
ATOM     11  N   UNL     1       2.829   3.460  20.254  0.00  0.00    +0.000 NA
ATOM     12  N   UNL     1       5.855   4.063  17.349  0.00  0.00    +0.000 NA
ATOM     13  H   UNL     1       4.942   4.406  20.445  0.00  0.00    +0.000 HD
ENDROOT
BRANCH   1  17
ATOM     14  C   UNL     1       6.974   4.296  12.393  0.00  0.00    +0.000 A 
ATOM     15  C   UNL     1       7.832   5.183  13.030  0.00  0.00    +0.000 A 
ATOM     16  C   UNL     1       7.713   5.373  14.410  0.00  0.00    +0.000 A 
ATOM     17  C   UNL     1       6.734   4.688  15.151  0.00  0.00    +0.000 A 
ATOM     18  C   UNL     1       5.889   3.792  14.486  0.00  0.00    +0.000 A 
ATOM     19  C   UNL     1       6.008   3.598  13.109  0.00  0.00    +0.000 A 
BRANCH  14  20
ATOM     20  O   UNL     1       7.052   4.071  11.050  0.00  0.00    +0.000 OA
ATOM     21  H   UNL     1       6.744   4.865  10.585  0.00  0.00    +0.000 HD
ENDBRANCH  14  20
ENDBRANCH   1  17
TORSDOF 2
ENDMDL
MODEL 7
REMARK VINA RESULT:      -6.7      2.968      6.527
REMARK  Name = 
REMARK  2 active torsions:
REMARK  status: ('A' for Active; 'I' for Inactive)
REMARK    1  A    between atoms: O_1  and  C_2
REMARK    2  A    between atoms: C_5  and  C_6
REMARK                            x       y       z     vdW  Elec       q    Type
REMARK                         _______ _______ _______ _____ _____    ______ ____
ROOT
ATOM      1  C   UNL     1       6.735   4.839  16.659  0.00  0.00    +0.000 A 
ATOM      2  C   UNL     1       7.398   5.796  17.399  0.00  0.00    +0.000 A 
ATOM      3  S   UNL     1       6.915   5.697  19.046  0.00  0.00    +0.000 S 
ATOM      4  C   UNL     1       5.825   4.415  18.651  0.00  0.00    +0.000 A 
ATOM      5  N   UNL     1       4.979   3.914  19.579  0.00  0.00    +0.000 N 
ATOM      6  C   UNL     1       3.754   3.304  19.284  0.00  0.00    +0.000 A 
ATOM      7  C   UNL     1       3.507   2.607  18.101  0.00  0.00    +0.000 A 
ATOM      8  C   UNL     1       2.229   2.131  17.824  0.00  0.00    +0.000 A 
ATOM      9  C   UNL     1       1.226   2.320  18.758  0.00  0.00    +0.000 A 
ATOM     10  C   UNL     1       1.557   2.963  19.938  0.00  0.00    +0.000 A 
ATOM     11  N   UNL     1       2.789   3.453  20.218  0.00  0.00    +0.000 NA
ATOM     12  N   UNL     1       5.898   4.034  17.397  0.00  0.00    +0.000 NA
ATOM     13  H   UNL     1       4.897   4.397  20.464  0.00  0.00    +0.000 HD
ENDROOT
BRANCH   1  17
ATOM     14  C   UNL     1       6.929   4.303  12.447  0.00  0.00    +0.000 A 
ATOM     15  C   UNL     1       5.993   3.594  13.190  0.00  0.00    +0.000 A 
ATOM     16  C   UNL     1       5.948   3.770  14.575  0.00  0.00    +0.000 A 
ATOM     17  C   UNL     1       6.841   4.644  15.222  0.00  0.00    +0.000 A 
ATOM     18  C   UNL     1       7.767   5.355  14.449  0.00  0.00    +0.000 A 
ATOM     19  C   UNL     1       7.811   5.183  13.064  0.00  0.00    +0.000 A 
BRANCH  14  20
ATOM     20  O   UNL     1       7.011   4.172  11.093  0.00  0.00    +0.000 OA
ATOM     21  H   UNL     1       7.782   4.672  10.780  0.00  0.00    +0.000 HD
ENDBRANCH  14  20
ENDBRANCH   1  17
TORSDOF 2
ENDMDL
MODEL 8
REMARK VINA RESULT:      -6.6     11.578     13.211
REMARK  Name = 
REMARK  2 active torsions:
REMARK  status: ('A' for Active; 'I' for Inactive)
REMARK    1  A    between atoms: O_1  and  C_2
REMARK    2  A    between atoms: C_5  and  C_6
REMARK                            x       y       z     vdW  Elec       q    Type
REMARK                         _______ _______ _______ _____ _____    ______ ____
ROOT
ATOM      1  C   UNL     1      -6.327  12.830  20.352  0.00  0.00    +0.000 A 
ATOM      2  C   UNL     1      -7.265  13.706  19.846  0.00  0.00    +0.000 A 
ATOM      3  S   UNL     1      -7.487  13.415  18.165  0.00  0.00    +0.000 S 
ATOM      4  C   UNL     1      -6.287  12.173  18.221  0.00  0.00    +0.000 A 
ATOM      5  N   UNL     1      -5.871  11.559  17.090  0.00  0.00    +0.000 N 
ATOM      6  C   UNL     1      -4.612  10.971  16.926  0.00  0.00    +0.000 A 
ATOM      7  C   UNL     1      -3.883  10.410  17.975  0.00  0.00    +0.000 A 
ATOM      8  C   UNL     1      -2.587   9.952  17.760  0.00  0.00    +0.000 A 
ATOM      9  C   UNL     1      -2.055  10.022  16.485  0.00  0.00    +0.000 A 
ATOM     10  C   UNL     1      -2.856  10.531  15.478  0.00  0.00    +0.000 A 
ATOM     11  N   UNL     1      -4.112  11.001  15.671  0.00  0.00    +0.000 NA
ATOM     12  N   UNL     1      -5.833  11.936  19.429  0.00  0.00    +0.000 NA
ATOM     13  H   UNL     1      -6.171  11.939  16.201  0.00  0.00    +0.000 HD
ENDROOT
BRANCH   1  17
ATOM     14  C   UNL     1      -4.953  12.640  24.369  0.00  0.00    +0.000 A 
ATOM     15  C   UNL     1      -6.317  12.679  24.108  0.00  0.00    +0.000 A 
ATOM     16  C   UNL     1      -6.755  12.754  22.784  0.00  0.00    +0.000 A 
ATOM     17  C   UNL     1      -5.836  12.800  21.720  0.00  0.00    +0.000 A 
ATOM     18  C   UNL     1      -4.467  12.749  22.010  0.00  0.00    +0.000 A 
ATOM     19  C   UNL     1      -4.027  12.670  23.333  0.00  0.00    +0.000 A 
BRANCH  14  20
ATOM     20  O   UNL     1      -4.473  12.561  25.643  0.00  0.00    +0.000 OA
ATOM     21  H   UNL     1      -3.675  13.110  25.707  0.00  0.00    +0.000 HD
ENDBRANCH  14  20
ENDBRANCH   1  17
TORSDOF 2
ENDMDL
MODEL 9
REMARK VINA RESULT:      -6.5      3.540      6.737
REMARK  Name = 
REMARK  2 active torsions:
REMARK  status: ('A' for Active; 'I' for Inactive)
REMARK    1  A    between atoms: O_1  and  C_2
REMARK    2  A    between atoms: C_5  and  C_6
REMARK                            x       y       z     vdW  Elec       q    Type
REMARK                         _______ _______ _______ _____ _____    ______ ____
ROOT
ATOM      1  C   UNL     1       6.232   5.443  16.896  0.00  0.00    +0.000 A 
ATOM      2  C   UNL     1       6.721   4.541  15.975  0.00  0.00    +0.000 A 
ATOM      3  S   UNL     1       5.488   3.423  15.542  0.00  0.00    +0.000 S 
ATOM      4  C   UNL     1       4.402   4.193  16.644  0.00  0.00    +0.000 A 
ATOM      5  N   UNL     1       3.175   3.677  16.880  0.00  0.00    +0.000 N 
ATOM      6  C   UNL     1       2.454   3.864  18.065  0.00  0.00    +0.000 A 
ATOM      7  C   UNL     1       2.569   5.002  18.864  0.00  0.00    +0.000 A 
ATOM      8  C   UNL     1       1.913   5.065  20.089  0.00  0.00    +0.000 A 
ATOM      9  C   UNL     1       1.112   4.006  20.476  0.00  0.00    +0.000 A 
ATOM     10  C   UNL     1       0.991   2.937  19.606  0.00  0.00    +0.000 A 
ATOM     11  N   UNL     1       1.638   2.846  18.419  0.00  0.00    +0.000 NA
ATOM     12  N   UNL     1       4.905   5.263  17.214  0.00  0.00    +0.000 NA
ATOM     13  H   UNL     1       2.960   2.760  16.510  0.00  0.00    +0.000 HD
ENDROOT
BRANCH   1  17
ATOM     14  C   UNL     1       8.544   8.488  18.753  0.00  0.00    +0.000 A 
ATOM     15  C   UNL     1       8.542   7.204  19.283  0.00  0.00    +0.000 A 
ATOM     16  C   UNL     1       7.767   6.216  18.670  0.00  0.00    +0.000 A 
ATOM     17  C   UNL     1       6.988   6.507  17.537  0.00  0.00    +0.000 A 
ATOM     18  C   UNL     1       7.016   7.807  17.016  0.00  0.00    +0.000 A 
ATOM     19  C   UNL     1       7.792   8.795  17.624  0.00  0.00    +0.000 A 
BRANCH  14  20
ATOM     20  O   UNL     1       9.285   9.488  19.309  0.00  0.00    +0.000 OA
ATOM     21  H   UNL     1       8.932  10.339  19.006  0.00  0.00    +0.000 HD
ENDBRANCH  14  20
ENDBRANCH   1  17
TORSDOF 2
ENDMDL
