MODEL 1
REMARK VINA RESULT:      -7.7      0.000      0.000
REMARK  Name = 
REMARK  6 active torsions:
REMARK  status: ('A' for Active; 'I' for Inactive)
REMARK    1  A    between atoms: C_1  and  C_2
REMARK    2  A    between atoms: C_2  and  C_3
REMARK    3  A    between atoms: C_2  and  C_4
REMARK    4  A    between atoms: C_2  and  C_5
REMARK    5  A    between atoms: C_9  and  C_10
REMARK    6  A    between atoms: C_10  and  C_11
REMARK                            x       y       z     vdW  Elec       q    Type
REMARK                         _______ _______ _______ _____ _____    ______ ____
ROOT
ATOM      1  C   UNL     1       3.356   5.663  18.670  0.00  0.00    +0.000 C 
ATOM      2  C   UNL     1       2.848   4.680  17.562  0.00  0.00    +0.000 C 
ATOM      3  C   UNL     1       1.405   4.206  17.761  0.00  0.00    +0.000 C 
ATOM      4  N   UNL     1       1.198   3.572  19.057  0.00  0.00    +0.000 NA
ATOM      5  C   UNL     1       1.551   4.490  20.137  0.00  0.00    +0.000 C 
ATOM      6  C   UNL     1       3.007   4.927  20.022  0.00  0.00    +0.000 C 
ATOM      7  H   UNL     1       1.777   2.734  19.124  0.00  0.00    +0.000 HD
ENDROOT
BRANCH   1   8
ATOM      8  C   UNL     1       4.913   5.842  18.501  0.00  0.00    +0.000 A 
ATOM      9  C   UNL     1       5.787   5.490  19.563  0.00  0.00    +0.000 A 
ATOM     10  C   UNL     1       7.181   5.556  19.455  0.00  0.00    +0.000 A 
ATOM     11  C   UNL     1       7.768   6.014  18.289  0.00  0.00    +0.000 A 
ATOM     12  C   UNL     1       6.953   6.400  17.235  0.00  0.00    +0.000 A 
ATOM     13  C   UNL     1       5.551   6.311  17.326  0.00  0.00    +0.000 A 
ATOM     14 CL   UNL     1       4.738   6.795  15.880  0.00  0.00    +0.000 Cl
ENDBRANCH   1   8
BRANCH   1  19
ATOM     15  C   UNL     1       1.475   8.655  19.910  0.00  0.00    +0.000 A 
ATOM     16  N   UNL     1       1.441   9.516  18.879  0.00  0.00    +0.000 NA
ATOM     17  C   UNL     1       1.992   9.099  17.734  0.00  0.00    +0.000 A 
ATOM     18  C   UNL     1       2.573   7.863  17.575  0.00  0.00    +0.000 A 
ATOM     19  C   UNL     1       2.643   7.041  18.687  0.00  0.00    +0.000 A 
ATOM     20  N   UNL     1       2.093   7.450  19.862  0.00  0.00    +0.000 NA
BRANCH  15  22
ATOM     21  C   UNL     1      -0.417   8.238  21.544  0.00  0.00    +0.000 C 
ATOM     22  C   UNL     1       0.824   9.099  21.219  0.00  0.00    +0.000 C 
ATOM     23  C   UNL     1       0.389  10.565  21.075  0.00  0.00    +0.000 C 
ATOM     24  C   UNL     1       1.809   8.961  22.394  0.00  0.00    +0.000 C 
ENDBRANCH  15  22
ENDBRANCH   1  19
TORSDOF 3
ENDMDL
MODEL 2
REMARK VINA RESULT:      -7.5      2.197      5.792
REMARK  Name = 
REMARK  6 active torsions:
REMARK  status: ('A' for Active; 'I' for Inactive)
REMARK    1  A    between atoms: C_1  and  C_2
REMARK    2  A    between atoms: C_2  and  C_3
REMARK    3  A    between atoms: C_2  and  C_4
REMARK    4  A    between atoms: C_2  and  C_5
REMARK    5  A    between atoms: C_9  and  C_10
REMARK    6  A    between atoms: C_10  and  C_11
REMARK                            x       y       z     vdW  Elec       q    Type
REMARK                         _______ _______ _______ _____ _____    ______ ____
ROOT
ATOM      1  C   UNL     1       2.709   4.904  19.094  0.00  0.00    +0.000 C 
ATOM      2  C   UNL     1       2.409   3.883  20.244  0.00  0.00    +0.000 C 
ATOM      3  C   UNL     1       2.647   2.421  19.856  0.00  0.00    +0.000 C 
ATOM      4  N   UNL     1       1.880   2.019  18.684  0.00  0.00    +0.000 NA
ATOM      5  C   UNL     1       2.206   2.873  17.544  0.00  0.00    +0.000 C 
ATOM      6  C   UNL     1       1.908   4.335  17.859  0.00  0.00    +0.000 C 
ATOM      7  H   UNL     1       0.882   2.094  18.887  0.00  0.00    +0.000 HD
ENDROOT
BRANCH   1   8
ATOM      8  C   UNL     1       2.160   6.318  19.529  0.00  0.00    +0.000 A 
ATOM      9  C   UNL     1       1.499   6.469  20.775  0.00  0.00    +0.000 A 
ATOM     10  C   UNL     1       1.052   7.707  21.254  0.00  0.00    +0.000 A 
ATOM     11  C   UNL     1       1.213   8.848  20.489  0.00  0.00    +0.000 A 
ATOM     12  C   UNL     1       1.826   8.744  19.249  0.00  0.00    +0.000 A 
ATOM     13  C   UNL     1       2.303   7.508  18.772  0.00  0.00    +0.000 A 
ATOM     14 CL   UNL     1       3.075   7.620  17.231  0.00  0.00    +0.000 Cl
ENDBRANCH   1   8
BRANCH   1  19
ATOM     15  C   UNL     1       5.791   5.018  16.971  0.00  0.00    +0.000 A 
ATOM     16  N   UNL     1       6.808   5.256  17.818  0.00  0.00    +0.000 NA
ATOM     17  C   UNL     1       6.499   5.328  19.117  0.00  0.00    +0.000 A 
ATOM     18  C   UNL     1       5.222   5.172  19.605  0.00  0.00    +0.000 A 
ATOM     19  C   UNL     1       4.203   4.997  18.685  0.00  0.00    +0.000 A 
ATOM     20  N   UNL     1       4.497   4.926  17.359  0.00  0.00    +0.000 NA
BRANCH  15  22
ATOM     21  C   UNL     1       7.636   5.117  15.236  0.00  0.00    +0.000 C 
ATOM     22  C   UNL     1       6.127   4.901  15.485  0.00  0.00    +0.000 C 
ATOM     23  C   UNL     1       5.338   5.975  14.721  0.00  0.00    +0.000 C 
ATOM     24  C   UNL     1       5.759   3.505  14.949  0.00  0.00    +0.000 C 
ENDBRANCH  15  22
ENDBRANCH   1  19
TORSDOF 3
ENDMDL
MODEL 3
REMARK VINA RESULT:      -7.4      2.763      5.065
REMARK  Name = 
REMARK  6 active torsions:
REMARK  status: ('A' for Active; 'I' for Inactive)
REMARK    1  A    between atoms: C_1  and  C_2
REMARK    2  A    between atoms: C_2  and  C_3
REMARK    3  A    between atoms: C_2  and  C_4
REMARK    4  A    between atoms: C_2  and  C_5
REMARK    5  A    between atoms: C_9  and  C_10
REMARK    6  A    between atoms: C_10  and  C_11
REMARK                            x       y       z     vdW  Elec       q    Type
REMARK                         _______ _______ _______ _____ _____    ______ ____
ROOT
ATOM      1  C   UNL     1       6.585   5.755  16.888  0.00  0.00    +0.000 C 
ATOM      2  C   UNL     1       7.385   4.798  17.835  0.00  0.00    +0.000 C 
ATOM      3  C   UNL     1       7.735   5.414  19.193  0.00  0.00    +0.000 C 
ATOM      4  N   UNL     1       8.485   6.658  19.067  0.00  0.00    +0.000 NA
ATOM      5  C   UNL     1       7.730   7.632  18.283  0.00  0.00    +0.000 C 
ATOM      6  C   UNL     1       7.428   7.088  16.890  0.00  0.00    +0.000 C 
ATOM      7  H   UNL     1       9.378   6.472  18.608  0.00  0.00    +0.000 HD
ENDROOT
BRANCH   1   8
ATOM      8  C   UNL     1       6.541   5.108  15.449  0.00  0.00    +0.000 A 
ATOM      9  C   UNL     1       7.421   5.572  14.437  0.00  0.00    +0.000 A 
ATOM     10  C   UNL     1       7.485   4.996  13.162  0.00  0.00    +0.000 A 
ATOM     11  C   UNL     1       6.642   3.951  12.828  0.00  0.00    +0.000 A 
ATOM     12  C   UNL     1       5.742   3.485  13.775  0.00  0.00    +0.000 A 
ATOM     13  C   UNL     1       5.690   4.041  15.068  0.00  0.00    +0.000 A 
ATOM     14 CL   UNL     1       4.533   3.275  16.098  0.00  0.00    +0.000 Cl
ENDBRANCH   1   8
BRANCH   1  19
ATOM     15  C   UNL     1       3.291   5.488  18.648  0.00  0.00    +0.000 A 
ATOM     16  N   UNL     1       2.653   6.646  18.405  0.00  0.00    +0.000 NA
ATOM     17  C   UNL     1       3.280   7.516  17.606  0.00  0.00    +0.000 A 
ATOM     18  C   UNL     1       4.511   7.280  17.040  0.00  0.00    +0.000 A 
ATOM     19  C   UNL     1       5.154   6.101  17.378  0.00  0.00    +0.000 A 
ATOM     20  N   UNL     1       4.535   5.206  18.194  0.00  0.00    +0.000 NA
BRANCH  15  22
ATOM     21  C   UNL     1       2.065   5.121  20.836  0.00  0.00    +0.000 C 
ATOM     22  C   UNL     1       2.580   4.466  19.535  0.00  0.00    +0.000 C 
ATOM     23  C   UNL     1       3.578   3.356  19.897  0.00  0.00    +0.000 C 
ATOM     24  C   UNL     1       1.368   3.859  18.806  0.00  0.00    +0.000 C 
ENDBRANCH  15  22
ENDBRANCH   1  19
TORSDOF 3
ENDMDL
MODEL 4
REMARK VINA RESULT:      -7.2      1.763      3.769
REMARK  Name = 
REMARK  6 active torsions:
REMARK  status: ('A' for Active; 'I' for Inactive)
REMARK    1  A    between atoms: C_1  and  C_2
REMARK    2  A    between atoms: C_2  and  C_3
REMARK    3  A    between atoms: C_2  and  C_4
REMARK    4  A    between atoms: C_2  and  C_5
REMARK    5  A    between atoms: C_9  and  C_10
REMARK    6  A    between atoms: C_10  and  C_11
REMARK                            x       y       z     vdW  Elec       q    Type
REMARK                         _______ _______ _______ _____ _____    ______ ____
ROOT
ATOM      1  C   UNL     1       3.571   5.525  18.763  0.00  0.00    +0.000 C 
ATOM      2  C   UNL     1       5.000   5.560  19.403  0.00  0.00    +0.000 C 
ATOM      3  C   UNL     1       6.035   6.329  18.576  0.00  0.00    +0.000 C 
ATOM      4  N   UNL     1       6.160   5.816  17.218  0.00  0.00    +0.000 NA
ATOM      5  C   UNL     1       4.871   5.865  16.532  0.00  0.00    +0.000 C 
ATOM      6  C   UNL     1       3.827   5.044  17.282  0.00  0.00    +0.000 C 
ATOM      7  H   UNL     1       6.490   4.850  17.247  0.00  0.00    +0.000 HD
ENDROOT
BRANCH   1   8
ATOM      8  C   UNL     1       2.694   4.482  19.559  0.00  0.00    +0.000 A 
ATOM      9  C   UNL     1       3.012   4.171  20.907  0.00  0.00    +0.000 A 
ATOM     10  C   UNL     1       2.236   3.311  21.693  0.00  0.00    +0.000 A 
ATOM     11  C   UNL     1       1.123   2.692  21.154  0.00  0.00    +0.000 A 
ATOM     12  C   UNL     1       0.791   2.940  19.830  0.00  0.00    +0.000 A 
ATOM     13  C   UNL     1       1.551   3.825  19.041  0.00  0.00    +0.000 A 
ATOM     14 CL   UNL     1       0.928   4.024  17.442  0.00  0.00    +0.000 Cl
ENDBRANCH   1   8
BRANCH   1  19
ATOM     15  C   UNL     1       1.604   8.541  19.789  0.00  0.00    +0.000 A 
ATOM     16  N   UNL     1       1.647   9.379  18.739  0.00  0.00    +0.000 NA
ATOM     17  C   UNL     1       2.283   8.937  17.649  0.00  0.00    +0.000 A 
ATOM     18  C   UNL     1       2.874   7.698  17.562  0.00  0.00    +0.000 A 
ATOM     19  C   UNL     1       2.859   6.902  18.695  0.00  0.00    +0.000 A 
ATOM     20  N   UNL     1       2.223   7.337  19.816  0.00  0.00    +0.000 NA
BRANCH  15  22
ATOM     21  C   UNL     1      -0.380   8.131  21.312  0.00  0.00    +0.000 C 
ATOM     22  C   UNL     1       0.857   9.014  21.036  0.00  0.00    +0.000 C 
ATOM     23  C   UNL     1       0.394  10.461  20.807  0.00  0.00    +0.000 C 
ATOM     24  C   UNL     1       1.765   8.948  22.277  0.00  0.00    +0.000 C 
ENDBRANCH  15  22
ENDBRANCH   1  19
TORSDOF 3
ENDMDL
MODEL 5
REMARK VINA RESULT:      -7.1      1.157      1.433
REMARK  Name = 
REMARK  6 active torsions:
REMARK  status: ('A' for Active; 'I' for Inactive)
REMARK    1  A    between atoms: C_1  and  C_2
REMARK    2  A    between atoms: C_2  and  C_3
REMARK    3  A    between atoms: C_2  and  C_4
REMARK    4  A    between atoms: C_2  and  C_5
REMARK    5  A    between atoms: C_9  and  C_10
REMARK    6  A    between atoms: C_10  and  C_11
REMARK                            x       y       z     vdW  Elec       q    Type
REMARK                         _______ _______ _______ _____ _____    ______ ____
ROOT
ATOM      1  C   UNL     1       3.149   5.705  18.703  0.00  0.00    +0.000 C 
ATOM      2  C   UNL     1       2.498   4.658  17.736  0.00  0.00    +0.000 C 
ATOM      3  C   UNL     1       1.088   4.222  18.148  0.00  0.00    +0.000 C 
ATOM      4  N   UNL     1       1.042   3.679  19.499  0.00  0.00    +0.000 NA
ATOM      5  C   UNL     1       1.535   4.662  20.461  0.00  0.00    +0.000 C 
ATOM      6  C   UNL     1       2.969   5.067  20.135  0.00  0.00    +0.000 C 
ATOM      7  H   UNL     1       1.619   2.838  19.550  0.00  0.00    +0.000 HD
ENDROOT
BRANCH   1   8
ATOM      8  C   UNL     1       4.674   5.848  18.327  0.00  0.00    +0.000 A 
ATOM      9  C   UNL     1       5.133   7.012  17.657  0.00  0.00    +0.000 A 
ATOM     10  C   UNL     1       6.483   7.236  17.358  0.00  0.00    +0.000 A 
ATOM     11  C   UNL     1       7.434   6.286  17.685  0.00  0.00    +0.000 A 
ATOM     12  C   UNL     1       7.028   5.118  18.313  0.00  0.00    +0.000 A 
ATOM     13  C   UNL     1       5.676   4.897  18.641  0.00  0.00    +0.000 A 
ATOM     14 CL   UNL     1       5.406   3.402  19.463  0.00  0.00    +0.000 Cl
ENDBRANCH   1   8
BRANCH   1  19
ATOM     15  C   UNL     1       1.361   8.752  19.945  0.00  0.00    +0.000 A 
ATOM     16  N   UNL     1       1.291   9.587  18.895  0.00  0.00    +0.000 NA
ATOM     17  C   UNL     1       1.787   9.134  17.738  0.00  0.00    +0.000 A 
ATOM     18  C   UNL     1       2.345   7.887  17.586  0.00  0.00    +0.000 A 
ATOM     19  C   UNL     1       2.454   7.093  18.715  0.00  0.00    +0.000 A 
ATOM     20  N   UNL     1       1.961   7.538  19.902  0.00  0.00    +0.000 NA
BRANCH  15  22
ATOM     21  C   UNL     1      -0.482   8.422  21.655  0.00  0.00    +0.000 C 
ATOM     22  C   UNL     1       0.773   9.237  21.270  0.00  0.00    +0.000 C 
ATOM     23  C   UNL     1       0.380  10.714  21.117  0.00  0.00    +0.000 C 
ATOM     24  C   UNL     1       1.796   9.086  22.410  0.00  0.00    +0.000 C 
ENDBRANCH  15  22
ENDBRANCH   1  19
TORSDOF 3
ENDMDL
MODEL 6
REMARK VINA RESULT:      -7.1      3.089      6.356
REMARK  Name = 
REMARK  6 active torsions:
REMARK  status: ('A' for Active; 'I' for Inactive)
REMARK    1  A    between atoms: C_1  and  C_2
REMARK    2  A    between atoms: C_2  and  C_3
REMARK    3  A    between atoms: C_2  and  C_4
REMARK    4  A    between atoms: C_2  and  C_5
REMARK    5  A    between atoms: C_9  and  C_10
REMARK    6  A    between atoms: C_10  and  C_11
REMARK                            x       y       z     vdW  Elec       q    Type
REMARK                         _______ _______ _______ _____ _____    ______ ____
ROOT
ATOM      1  C   UNL     1       3.715   4.413  18.449  0.00  0.00    +0.000 C 
ATOM      2  C   UNL     1       3.704   3.620  19.800  0.00  0.00    +0.000 C 
ATOM      3  C   UNL     1       3.999   2.125  19.647  0.00  0.00    +0.000 C 
ATOM      4  N   UNL     1       3.083   1.464  18.726  0.00  0.00    +0.000 NA
ATOM      5  C   UNL     1       3.136   2.096  17.411  0.00  0.00    +0.000 C 
ATOM      6  C   UNL     1       2.771   3.574  17.504  0.00  0.00    +0.000 C 
ATOM      7  H   UNL     1       2.131   1.523  19.091  0.00  0.00    +0.000 HD
ENDROOT
BRANCH   1   8
ATOM      8  C   UNL     1       3.128   5.853  18.712  0.00  0.00    +0.000 A 
ATOM      9  C   UNL     1       3.361   6.896  17.778  0.00  0.00    +0.000 A 
ATOM     10  C   UNL     1       2.810   8.176  17.913  0.00  0.00    +0.000 A 
ATOM     11  C   UNL     1       2.028   8.484  19.012  0.00  0.00    +0.000 A 
ATOM     12  C   UNL     1       1.799   7.506  19.968  0.00  0.00    +0.000 A 
ATOM     13  C   UNL     1       2.327   6.208  19.826  0.00  0.00    +0.000 A 
ATOM     14 CL   UNL     1       1.875   5.140  21.107  0.00  0.00    +0.000 Cl
ENDBRANCH   1   8
BRANCH   1  19
ATOM     15  C   UNL     1       6.332   4.675  15.784  0.00  0.00    +0.000 A 
ATOM     16  N   UNL     1       7.505   4.777  16.433  0.00  0.00    +0.000 NA
ATOM     17  C   UNL     1       7.456   4.706  17.768  0.00  0.00    +0.000 A 
ATOM     18  C   UNL     1       6.291   4.535  18.479  0.00  0.00    +0.000 A 
ATOM     19  C   UNL     1       5.105   4.504  17.765  0.00  0.00    +0.000 A 
ATOM     20  N   UNL     1       5.134   4.581  16.407  0.00  0.00    +0.000 NA
BRANCH  15  22
ATOM     21  C   UNL     1       7.727   5.255  13.748  0.00  0.00    +0.000 C 
ATOM     22  C   UNL     1       6.368   4.724  14.257  0.00  0.00    +0.000 C 
ATOM     23  C   UNL     1       5.253   5.664  13.773  0.00  0.00    +0.000 C 
ATOM     24  C   UNL     1       6.161   3.320  13.659  0.00  0.00    +0.000 C 
ENDBRANCH  15  22
ENDBRANCH   1  19
TORSDOF 3
ENDMDL
MODEL 7
REMARK VINA RESULT:      -7.0      2.331      5.656
REMARK  Name = 
REMARK  6 active torsions:
REMARK  status: ('A' for Active; 'I' for Inactive)
REMARK    1  A    between atoms: C_1  and  C_2
REMARK    2  A    between atoms: C_2  and  C_3
REMARK    3  A    between atoms: C_2  and  C_4
REMARK    4  A    between atoms: C_2  and  C_5
REMARK    5  A    between atoms: C_9  and  C_10
REMARK    6  A    between atoms: C_10  and  C_11
REMARK                            x       y       z     vdW  Elec       q    Type
REMARK                         _______ _______ _______ _____ _____    ______ ____
ROOT
ATOM      1  C   UNL     1       2.288   5.575  19.417  0.00  0.00    +0.000 C 
ATOM      2  C   UNL     1       2.552   5.356  20.945  0.00  0.00    +0.000 C 
ATOM      3  C   UNL     1       2.546   3.885  21.374  0.00  0.00    +0.000 C 
ATOM      4  N   UNL     1       1.305   3.205  21.027  0.00  0.00    +0.000 NA
ATOM      5  C   UNL     1       1.065   3.282  19.588  0.00  0.00    +0.000 C 
ATOM      6  C   UNL     1       0.984   4.734  19.129  0.00  0.00    +0.000 C 
ATOM      7  H   UNL     1       0.527   3.642  21.523  0.00  0.00    +0.000 HD
ENDROOT
BRANCH   1   8
ATOM      8  C   UNL     1       2.042   7.113  19.170  0.00  0.00    +0.000 A 
ATOM      9  C   UNL     1       2.450   7.709  17.948  0.00  0.00    +0.000 A 
ATOM     10  C   UNL     1       2.199   9.051  17.634  0.00  0.00    +0.000 A 
ATOM     11  C   UNL     1       1.560   9.870  18.546  0.00  0.00    +0.000 A 
ATOM     12  C   UNL     1       1.171   9.340  19.768  0.00  0.00    +0.000 A 
ATOM     13  C   UNL     1       1.395   7.985  20.080  0.00  0.00    +0.000 A 
ATOM     14 CL   UNL     1       0.785   7.529  21.631  0.00  0.00    +0.000 Cl
ENDBRANCH   1   8
BRANCH   1  19
ATOM     15  C   UNL     1       5.680   4.995  17.940  0.00  0.00    +0.000 A 
ATOM     16  N   UNL     1       5.503   4.083  16.968  0.00  0.00    +0.000 NA
ATOM     17  C   UNL     1       4.246   3.683  16.747  0.00  0.00    +0.000 A 
ATOM     18  C   UNL     1       3.162   4.155  17.450  0.00  0.00    +0.000 A 
ATOM     19  C   UNL     1       3.408   5.041  18.484  0.00  0.00    +0.000 A 
ATOM     20  N   UNL     1       4.680   5.455  18.729  0.00  0.00    +0.000 NA
BRANCH  15  22
ATOM     21  C   UNL     1       7.349   6.854  17.509  0.00  0.00    +0.000 C 
ATOM     22  C   UNL     1       7.104   5.489  18.190  0.00  0.00    +0.000 C 
ATOM     23  C   UNL     1       8.086   4.460  17.609  0.00  0.00    +0.000 C 
ATOM     24  C   UNL     1       7.366   5.665  19.697  0.00  0.00    +0.000 C 
ENDBRANCH  15  22
ENDBRANCH   1  19
TORSDOF 3
ENDMDL
MODEL 8
REMARK VINA RESULT:      -6.9      2.398      5.921
REMARK  Name = 
REMARK  6 active torsions:
REMARK  status: ('A' for Active; 'I' for Inactive)
REMARK    1  A    between atoms: C_1  and  C_2
REMARK    2  A    between atoms: C_2  and  C_3
REMARK    3  A    between atoms: C_2  and  C_4
REMARK    4  A    between atoms: C_2  and  C_5
REMARK    5  A    between atoms: C_9  and  C_10
REMARK    6  A    between atoms: C_10  and  C_11
REMARK                            x       y       z     vdW  Elec       q    Type
REMARK                         _______ _______ _______ _____ _____    ______ ____
ROOT
ATOM      1  C   UNL     1       2.473   5.697  18.983  0.00  0.00    +0.000 C 
ATOM      2  C   UNL     1       1.993   5.160  20.374  0.00  0.00    +0.000 C 
ATOM      3  C   UNL     1       2.001   3.633  20.490  0.00  0.00    +0.000 C 
ATOM      4  N   UNL     1       1.201   2.988  19.456  0.00  0.00    +0.000 NA
ATOM      5  C   UNL     1       1.680   3.368  18.129  0.00  0.00    +0.000 C 
ATOM      6  C   UNL     1       1.614   4.880  17.941  0.00  0.00    +0.000 C 
ATOM      7  H   UNL     1       0.225   3.269  19.556  0.00  0.00    +0.000 HD
ENDROOT
BRANCH   1   8
ATOM      8  C   UNL     1       2.149   7.239  18.906  0.00  0.00    +0.000 A 
ATOM      9  C   UNL     1       2.453   7.969  17.728  0.00  0.00    +0.000 A 
ATOM     10  C   UNL     1       2.128   9.322  17.565  0.00  0.00    +0.000 A 
ATOM     11  C   UNL     1       1.516  10.018  18.592  0.00  0.00    +0.000 A 
ATOM     12  C   UNL     1       1.229   9.354  19.775  0.00  0.00    +0.000 A 
ATOM     13  C   UNL     1       1.528   7.987  19.937  0.00  0.00    +0.000 A 
ATOM     14 CL   UNL     1       1.038   7.354  21.468  0.00  0.00    +0.000 Cl
ENDBRANCH   1   8
BRANCH   1  19
ATOM     15  C   UNL     1       5.624   5.069  17.060  0.00  0.00    +0.000 A 
ATOM     16  N   UNL     1       6.612   5.068  17.971  0.00  0.00    +0.000 NA
ATOM     17  C   UNL     1       6.247   5.220  19.249  0.00  0.00    +0.000 A 
ATOM     18  C   UNL     1       4.941   5.371  19.654  0.00  0.00    +0.000 A 
ATOM     19  C   UNL     1       3.969   5.434  18.670  0.00  0.00    +0.000 A 
ATOM     20  N   UNL     1       4.322   5.287  17.364  0.00  0.00    +0.000 NA
BRANCH  15  22
ATOM     21  C   UNL     1       7.541   5.018  15.403  0.00  0.00    +0.000 C 
ATOM     22  C   UNL     1       6.016   4.867  15.597  0.00  0.00    +0.000 C 
ATOM     23  C   UNL     1       5.299   5.929  14.749  0.00  0.00    +0.000 C 
ATOM     24  C   UNL     1       5.620   3.460  15.114  0.00  0.00    +0.000 C 
ENDBRANCH  15  22
ENDBRANCH   1  19
TORSDOF 3
ENDMDL
MODEL 9
REMARK VINA RESULT:      -6.9      1.502      2.272
REMARK  Name = 
REMARK  6 active torsions:
REMARK  status: ('A' for Active; 'I' for Inactive)
REMARK    1  A    between atoms: C_1  and  C_2
REMARK    2  A    between atoms: C_2  and  C_3
REMARK    3  A    between atoms: C_2  and  C_4
REMARK    4  A    between atoms: C_2  and  C_5
REMARK    5  A    between atoms: C_9  and  C_10
REMARK    6  A    between atoms: C_10  and  C_11
REMARK                            x       y       z     vdW  Elec       q    Type
REMARK                         _______ _______ _______ _____ _____    ______ ____
ROOT
ATOM      1  C   UNL     1       4.162   4.813  18.580  0.00  0.00    +0.000 C 
ATOM      2  C   UNL     1       3.722   4.329  17.157  0.00  0.00    +0.000 C 
ATOM      3  C   UNL     1       2.547   3.346  17.168  0.00  0.00    +0.000 C 
ATOM      4  N   UNL     1       2.810   2.168  17.985  0.00  0.00    +0.000 NA
ATOM      5  C   UNL     1       3.118   2.558  19.359  0.00  0.00    +0.000 C 
ATOM      6  C   UNL     1       4.334   3.477  19.403  0.00  0.00    +0.000 C 
ATOM      7  H   UNL     1       3.601   1.652  17.596  0.00  0.00    +0.000 HD
ENDROOT
BRANCH   1   8
ATOM      8  C   UNL     1       5.532   5.581  18.443  0.00  0.00    +0.000 A 
ATOM      9  C   UNL     1       6.558   5.378  19.403  0.00  0.00    +0.000 A 
ATOM     10  C   UNL     1       7.823   5.970  19.303  0.00  0.00    +0.000 A 
ATOM     11  C   UNL     1       8.108   6.826  18.255  0.00  0.00    +0.000 A 
ATOM     12  C   UNL     1       7.126   7.081  17.309  0.00  0.00    +0.000 A 
ATOM     13  C   UNL     1       5.861   6.468  17.388  0.00  0.00    +0.000 A 
ATOM     14 CL   UNL     1       4.813   6.887  16.080  0.00  0.00    +0.000 Cl
ENDBRANCH   1   8
BRANCH   1  19
ATOM     15  C   UNL     1       1.864   7.662  19.372  0.00  0.00    +0.000 A 
ATOM     16  N   UNL     1       1.186   7.289  20.471  0.00  0.00    +0.000 NA
ATOM     17  C   UNL     1       1.517   6.108  21.004  0.00  0.00    +0.000 A 
ATOM     18  C   UNL     1       2.494   5.287  20.489  0.00  0.00    +0.000 A 
ATOM     19  C   UNL     1       3.114   5.688  19.318  0.00  0.00    +0.000 A 
ATOM     20  N   UNL     1       2.786   6.883  18.757  0.00  0.00    +0.000 NA
BRANCH  15  22
ATOM     21  C   UNL     1       0.274   8.931  17.860  0.00  0.00    +0.000 C 
ATOM     22  C   UNL     1       1.524   9.022  18.764  0.00  0.00    +0.000 C 
ATOM     23  C   UNL     1       2.717   9.491  17.917  0.00  0.00    +0.000 C 
ATOM     24  C   UNL     1       1.229  10.056  19.865  0.00  0.00    +0.000 C 
ENDBRANCH  15  22
ENDBRANCH   1  19
TORSDOF 3
ENDMDL
