MODEL 1
REMARK VINA RESULT:      -6.5      0.000      0.000
REMARK  Name = 
REMARK  1 active torsions:
REMARK  status: ('A' for Active; 'I' for Inactive)
REMARK    1  A    between atoms: C_1  and  C_2
REMARK                            x       y       z     vdW  Elec       q    Type
REMARK                         _______ _______ _______ _____ _____    ______ ____
ROOT
ATOM      1  C   UNL     1       4.186   3.943  16.813  0.00  0.00    +0.000 C 
ATOM      2  C   UNL     1       4.742   4.397  18.166  0.00  0.00    +0.000 C 
ATOM      3  N   UNL     1       5.312   3.237  18.848  0.00  0.00    +0.000 N 
ATOM      4  C   UNL     1       4.568   2.581  19.769  0.00  0.00    +0.000 C 
ATOM      5  N   UNL     1       5.061   1.346  20.018  0.00  0.00    +0.000 N 
ATOM      6  N   UNL     1       3.520   3.019  20.376  0.00  0.00    +0.000 NA
ATOM      7  C   UNL     1       3.105   4.326  20.062  0.00  0.00    +0.000 A 
ATOM      8  C   UNL     1       2.084   4.888  20.834  0.00  0.00    +0.000 A 
ATOM      9  C   UNL     1       1.614   6.172  20.571  0.00  0.00    +0.000 A 
ATOM     10  C   UNL     1       2.178   6.910  19.534  0.00  0.00    +0.000 A 
ATOM     11  C   UNL     1       3.210   6.363  18.765  0.00  0.00    +0.000 A 
ATOM     12 CL   UNL     1       3.879   7.361  17.519  0.00  0.00    +0.000 Cl
ATOM     13  C   UNL     1       3.679   5.062  19.009  0.00  0.00    +0.000 A 
ATOM     14  H   UNL     1       5.827   2.620  18.235  0.00  0.00    +0.000 HD
ATOM     15  H   UNL     1       6.064   1.342  20.152  0.00  0.00    +0.000 HD
ATOM     16  H   UNL     1       4.592   0.945  20.825  0.00  0.00    +0.000 HD
ENDROOT
TORSDOF 0
ENDMDL
MODEL 2
REMARK VINA RESULT:      -6.4      2.226      3.147
REMARK  Name = 
REMARK  1 active torsions:
REMARK  status: ('A' for Active; 'I' for Inactive)
REMARK    1  A    between atoms: C_1  and  C_2
REMARK                            x       y       z     vdW  Elec       q    Type
REMARK                         _______ _______ _______ _____ _____    ______ ____
ROOT
ATOM      1  C   UNL     1       3.477   6.799  17.919  0.00  0.00    +0.000 C 
ATOM      2  C   UNL     1       4.000   5.613  18.736  0.00  0.00    +0.000 C 
ATOM      3  N   UNL     1       5.221   5.116  18.105  0.00  0.00    +0.000 N 
ATOM      4  C   UNL     1       5.147   4.054  17.269  0.00  0.00    +0.000 C 
ATOM      5  N   UNL     1       6.247   3.959  16.488  0.00  0.00    +0.000 N 
ATOM      6  N   UNL     1       4.186   3.201  17.181  0.00  0.00    +0.000 NA
ATOM      7  C   UNL     1       3.100   3.376  18.056  0.00  0.00    +0.000 A 
ATOM      8  C   UNL     1       2.133   2.366  18.106  0.00  0.00    +0.000 A 
ATOM      9  C   UNL     1       1.024   2.480  18.939  0.00  0.00    +0.000 A 
ATOM     10  C   UNL     1       0.882   3.608  19.743  0.00  0.00    +0.000 A 
ATOM     11  C   UNL     1       1.849   4.618  19.712  0.00  0.00    +0.000 A 
ATOM     12 CL   UNL     1       1.613   5.968  20.768  0.00  0.00    +0.000 Cl
ATOM     13  C   UNL     1       2.962   4.522  18.861  0.00  0.00    +0.000 A 
ATOM     14  H   UNL     1       5.831   5.849  17.770  0.00  0.00    +0.000 HD
ATOM     15  H   UNL     1       7.109   4.075  17.005  0.00  0.00    +0.000 HD
ATOM     16  H   UNL     1       6.243   3.071  15.996  0.00  0.00    +0.000 HD
ENDROOT
TORSDOF 0
ENDMDL
MODEL 3
REMARK VINA RESULT:      -6.3      2.427      3.003
REMARK  Name = 
REMARK  1 active torsions:
REMARK  status: ('A' for Active; 'I' for Inactive)
REMARK    1  A    between atoms: C_1  and  C_2
REMARK                            x       y       z     vdW  Elec       q    Type
REMARK                         _______ _______ _______ _____ _____    ______ ____
ROOT
ATOM      1  C   UNL     1       3.858   1.286  18.539  0.00  0.00    +0.000 C 
ATOM      2  C   UNL     1       3.470   2.589  17.834  0.00  0.00    +0.000 C 
ATOM      3  N   UNL     1       4.666   3.156  17.214  0.00  0.00    +0.000 N 
ATOM      4  C   UNL     1       5.353   4.124  17.866  0.00  0.00    +0.000 C 
ATOM      5  N   UNL     1       6.603   4.266  17.370  0.00  0.00    +0.000 N 
ATOM      6  N   UNL     1       4.928   4.858  18.835  0.00  0.00    +0.000 NA
ATOM      7  C   UNL     1       3.604   4.646  19.258  0.00  0.00    +0.000 A 
ATOM      8  C   UNL     1       3.063   5.548  20.182  0.00  0.00    +0.000 A 
ATOM      9  C   UNL     1       1.763   5.391  20.655  0.00  0.00    +0.000 A 
ATOM     10  C   UNL     1       0.988   4.331  20.192  0.00  0.00    +0.000 A 
ATOM     11  C   UNL     1       1.513   3.432  19.258  0.00  0.00    +0.000 A 
ATOM     12 CL   UNL     1       0.470   2.166  18.710  0.00  0.00    +0.000 Cl
ATOM     13  C   UNL     1       2.830   3.569  18.789  0.00  0.00    +0.000 A 
ATOM     14  H   UNL     1       5.262   2.466  16.779  0.00  0.00    +0.000 HD
ATOM     15  H   UNL     1       6.626   4.290  16.359  0.00  0.00    +0.000 HD
ATOM     16  H   UNL     1       7.033   5.101  17.757  0.00  0.00    +0.000 HD
ENDROOT
TORSDOF 0
ENDMDL
MODEL 4
REMARK VINA RESULT:      -6.2      1.732      2.513
REMARK  Name = 
REMARK  1 active torsions:
REMARK  status: ('A' for Active; 'I' for Inactive)
REMARK    1  A    between atoms: C_1  and  C_2
REMARK                            x       y       z     vdW  Elec       q    Type
REMARK                         _______ _______ _______ _____ _____    ______ ____
ROOT
ATOM      1  C   UNL     1       2.752   2.198  18.019  0.00  0.00    +0.000 C 
ATOM      2  C   UNL     1       3.629   3.024  18.965  0.00  0.00    +0.000 C 
ATOM      3  N   UNL     1       3.294   2.668  20.341  0.00  0.00    +0.000 N 
ATOM      4  C   UNL     1       2.428   3.446  21.033  0.00  0.00    +0.000 C 
ATOM      5  N   UNL     1       1.932   2.799  22.112  0.00  0.00    +0.000 N 
ATOM      6  N   UNL     1       2.083   4.656  20.759  0.00  0.00    +0.000 NA
ATOM      7  C   UNL     1       2.676   5.244  19.628  0.00  0.00    +0.000 A 
ATOM      8  C   UNL     1       2.457   6.609  19.414  0.00  0.00    +0.000 A 
ATOM      9  C   UNL     1       3.003   7.254  18.306  0.00  0.00    +0.000 A 
ATOM     10  C   UNL     1       3.787   6.534  17.410  0.00  0.00    +0.000 A 
ATOM     11  C   UNL     1       4.024   5.172  17.622  0.00  0.00    +0.000 A 
ATOM     12 CL   UNL     1       5.038   4.360  16.479  0.00  0.00    +0.000 Cl
ATOM     13  C   UNL     1       3.463   4.506  18.724  0.00  0.00    +0.000 A 
ATOM     14  H   UNL     1       3.141   1.678  20.477  0.00  0.00    +0.000 HD
ATOM     15  H   UNL     1       2.645   2.320  22.647  0.00  0.00    +0.000 HD
ATOM     16  H   UNL     1       1.424   3.452  22.700  0.00  0.00    +0.000 HD
ENDROOT
TORSDOF 0
ENDMDL
MODEL 5
REMARK VINA RESULT:      -6.2      1.969      3.521
REMARK  Name = 
REMARK  1 active torsions:
REMARK  status: ('A' for Active; 'I' for Inactive)
REMARK    1  A    between atoms: C_1  and  C_2
REMARK                            x       y       z     vdW  Elec       q    Type
REMARK                         _______ _______ _______ _____ _____    ______ ____
ROOT
ATOM      1  C   UNL     1       2.427   5.378  20.126  0.00  0.00    +0.000 C 
ATOM      2  C   UNL     1       2.058   5.093  18.667  0.00  0.00    +0.000 C 
ATOM      3  N   UNL     1       1.497   3.746  18.583  0.00  0.00    +0.000 N 
ATOM      4  C   UNL     1       2.298   2.718  18.214  0.00  0.00    +0.000 C 
ATOM      5  N   UNL     1       1.759   1.524  18.549  0.00  0.00    +0.000 N 
ATOM      6  N   UNL     1       3.433   2.798  17.611  0.00  0.00    +0.000 NA
ATOM      7  C   UNL     1       3.891   4.087  17.287  0.00  0.00    +0.000 A 
ATOM      8  C   UNL     1       5.027   4.190  16.477  0.00  0.00    +0.000 A 
ATOM      9  C   UNL     1       5.544   5.434  16.127  0.00  0.00    +0.000 A 
ATOM     10  C   UNL     1       4.913   6.591  16.577  0.00  0.00    +0.000 A 
ATOM     11  C   UNL     1       3.768   6.500  17.376  0.00  0.00    +0.000 A 
ATOM     12 CL   UNL     1       3.027   7.985  17.863  0.00  0.00    +0.000 Cl
ATOM     13  C   UNL     1       3.250   5.249  17.751  0.00  0.00    +0.000 A 
ATOM     14  H   UNL     1       0.878   3.517  19.349  0.00  0.00    +0.000 HD
ATOM     15  H   UNL     1       0.780   1.451  18.306  0.00  0.00    +0.000 HD
ATOM     16  H   UNL     1       2.290   0.775  18.116  0.00  0.00    +0.000 HD
ENDROOT
TORSDOF 0
ENDMDL
MODEL 6
REMARK VINA RESULT:      -6.2      1.958      2.661
REMARK  Name = 
REMARK  1 active torsions:
REMARK  status: ('A' for Active; 'I' for Inactive)
REMARK    1  A    between atoms: C_1  and  C_2
REMARK                            x       y       z     vdW  Elec       q    Type
REMARK                         _______ _______ _______ _____ _____    ______ ____
ROOT
ATOM      1  C   UNL     1       5.094   6.429  15.766  0.00  0.00    +0.000 C 
ATOM      2  C   UNL     1       5.489   6.631  17.233  0.00  0.00    +0.000 C 
ATOM      3  N   UNL     1       6.810   6.044  17.444  0.00  0.00    +0.000 N 
ATOM      4  C   UNL     1       6.903   4.794  17.957  0.00  0.00    +0.000 C 
ATOM      5  N   UNL     1       8.125   4.257  17.737  0.00  0.00    +0.000 N 
ATOM      6  N   UNL     1       5.989   4.145  18.591  0.00  0.00    +0.000 NA
ATOM      7  C   UNL     1       4.763   4.805  18.788  0.00  0.00    +0.000 A 
ATOM      8  C   UNL     1       3.822   4.196  19.625  0.00  0.00    +0.000 A 
ATOM      9  C   UNL     1       2.582   4.786  19.853  0.00  0.00    +0.000 A 
ATOM     10  C   UNL     1       2.281   6.005  19.252  0.00  0.00    +0.000 A 
ATOM     11  C   UNL     1       3.219   6.630  18.424  0.00  0.00    +0.000 A 
ATOM     12 CL   UNL     1       2.777   8.158  17.745  0.00  0.00    +0.000 Cl
ATOM     13  C   UNL     1       4.466   6.034  18.171  0.00  0.00    +0.000 A 
ATOM     14  H   UNL     1       7.455   6.215  16.685  0.00  0.00    +0.000 HD
ATOM     15  H   UNL     1       8.881   4.896  17.948  0.00  0.00    +0.000 HD
ATOM     16  H   UNL     1       8.224   3.399  18.271  0.00  0.00    +0.000 HD
ENDROOT
TORSDOF 0
ENDMDL
MODEL 7
REMARK VINA RESULT:      -6.2      2.174      3.097
REMARK  Name = 
REMARK  1 active torsions:
REMARK  status: ('A' for Active; 'I' for Inactive)
REMARK    1  A    between atoms: C_1  and  C_2
REMARK                            x       y       z     vdW  Elec       q    Type
REMARK                         _______ _______ _______ _____ _____    ______ ____
ROOT
ATOM      1  C   UNL     1       4.509   2.194  20.038  0.00  0.00    +0.000 C 
ATOM      2  C   UNL     1       3.531   2.688  18.967  0.00  0.00    +0.000 C 
ATOM      3  N   UNL     1       4.204   2.653  17.671  0.00  0.00    +0.000 N 
ATOM      4  C   UNL     1       4.761   3.788  17.185  0.00  0.00    +0.000 C 
ATOM      5  N   UNL     1       5.651   3.523  16.202  0.00  0.00    +0.000 N 
ATOM      6  N   UNL     1       4.513   4.996  17.559  0.00  0.00    +0.000 NA
ATOM      7  C   UNL     1       3.552   5.162  18.572  0.00  0.00    +0.000 A 
ATOM      8  C   UNL     1       3.137   6.464  18.868  0.00  0.00    +0.000 A 
ATOM      9  C   UNL     1       2.198   6.704  19.868  0.00  0.00    +0.000 A 
ATOM     10  C   UNL     1       1.657   5.633  20.573  0.00  0.00    +0.000 A 
ATOM     11  C   UNL     1       2.055   4.325  20.275  0.00  0.00    +0.000 A 
ATOM     12 CL   UNL     1       1.307   3.050  21.175  0.00  0.00    +0.000 Cl
ATOM     13  C   UNL     1       3.015   4.073  19.282  0.00  0.00    +0.000 A 
ATOM     14  H   UNL     1       4.781   1.834  17.536  0.00  0.00    +0.000 HD
ATOM     15  H   UNL     1       5.304   2.857  15.524  0.00  0.00    +0.000 HD
ATOM     16  H   UNL     1       5.925   4.387  15.745  0.00  0.00    +0.000 HD
ENDROOT
TORSDOF 0
ENDMDL
MODEL 8
REMARK VINA RESULT:      -6.2      1.834      2.778
REMARK  Name = 
REMARK  1 active torsions:
REMARK  status: ('A' for Active; 'I' for Inactive)
REMARK    1  A    between atoms: C_1  and  C_2
REMARK                            x       y       z     vdW  Elec       q    Type
REMARK                         _______ _______ _______ _____ _____    ______ ____
ROOT
ATOM      1  C   UNL     1       3.451   6.559  17.940  0.00  0.00    +0.000 C 
ATOM      2  C   UNL     1       4.066   6.031  19.239  0.00  0.00    +0.000 C 
ATOM      3  N   UNL     1       5.449   5.642  18.975  0.00  0.00    +0.000 N 
ATOM      4  C   UNL     1       5.735   4.343  18.724  0.00  0.00    +0.000 C 
ATOM      5  N   UNL     1       6.944   4.205  18.135  0.00  0.00    +0.000 N 
ATOM      6  N   UNL     1       4.998   3.321  18.994  0.00  0.00    +0.000 NA
ATOM      7  C   UNL     1       3.770   3.573  19.629  0.00  0.00    +0.000 A 
ATOM      8  C   UNL     1       3.038   2.475  20.092  0.00  0.00    +0.000 A 
ATOM      9  C   UNL     1       1.807   2.650  20.719  0.00  0.00    +0.000 A 
ATOM     10  C   UNL     1       1.306   3.936  20.899  0.00  0.00    +0.000 A 
ATOM     11  C   UNL     1       2.035   5.043  20.453  0.00  0.00    +0.000 A 
ATOM     12 CL   UNL     1       1.356   6.606  20.748  0.00  0.00    +0.000 Cl
ATOM     13  C   UNL     1       3.269   4.877  19.802  0.00  0.00    +0.000 A 
ATOM     14  H   UNL     1       5.941   6.285  18.370  0.00  0.00    +0.000 HD
ATOM     15  H   UNL     1       7.666   4.754  18.583  0.00  0.00    +0.000 HD
ATOM     16  H   UNL     1       7.204   3.223  18.112  0.00  0.00    +0.000 HD
ENDROOT
TORSDOF 0
ENDMDL
MODEL 9
REMARK VINA RESULT:      -6.2      1.098      1.382
REMARK  Name = 
REMARK  1 active torsions:
REMARK  status: ('A' for Active; 'I' for Inactive)
REMARK    1  A    between atoms: C_1  and  C_2
REMARK                            x       y       z     vdW  Elec       q    Type
REMARK                         _______ _______ _______ _____ _____    ______ ____
ROOT
ATOM      1  C   UNL     1       4.802   3.746  16.327  0.00  0.00    +0.000 C 
ATOM      2  C   UNL     1       5.298   4.479  17.577  0.00  0.00    +0.000 C 
ATOM      3  N   UNL     1       5.583   3.489  18.613  0.00  0.00    +0.000 N 
ATOM      4  C   UNL     1       4.649   3.236  19.561  0.00  0.00    +0.000 C 
ATOM      5  N   UNL     1       4.887   2.065  20.193  0.00  0.00    +0.000 N 
ATOM      6  N   UNL     1       3.644   3.977  19.876  0.00  0.00    +0.000 NA
ATOM      7  C   UNL     1       3.502   5.187  19.174  0.00  0.00    +0.000 A 
ATOM      8  C   UNL     1       2.529   6.088  19.619  0.00  0.00    +0.000 A 
ATOM      9  C   UNL     1       2.324   7.299  18.963  0.00  0.00    +0.000 A 
ATOM     10  C   UNL     1       3.108   7.623  17.859  0.00  0.00    +0.000 A 
ATOM     11  C   UNL     1       4.094   6.736  17.414  0.00  0.00    +0.000 A 
ATOM     12 CL   UNL     1       5.047   7.231  16.058  0.00  0.00    +0.000 Cl
ATOM     13  C   UNL     1       4.296   5.503  18.056  0.00  0.00    +0.000 A 
ATOM     14  H   UNL     1       6.036   2.655  18.263  0.00  0.00    +0.000 HD
ATOM     15  H   UNL     1       5.856   1.952  20.463  0.00  0.00    +0.000 HD
ATOM     16  H   UNL     1       4.279   1.982  21.002  0.00  0.00    +0.000 HD
ENDROOT
TORSDOF 0
ENDMDL
