MODEL 1
REMARK VINA RESULT:      -8.2      0.000      0.000
REMARK  Name = 
REMARK  3 active torsions:
REMARK  status: ('A' for Active; 'I' for Inactive)
REMARK    1  A    between atoms: C_1  and  C_2
REMARK    2  A    between atoms: C_10  and  C_11
REMARK    3  A    between atoms: C_17  and  C_18
REMARK                            x       y       z     vdW  Elec       q    Type
REMARK                         _______ _______ _______ _____ _____    ______ ____
ROOT
ATOM      1  C   UNL     1       1.075   3.835  20.517  0.00  0.00    +0.000 C 
ATOM      2  C   UNL     1       1.973   3.521  19.362  0.00  0.00    +0.000 A 
ATOM      3  C   UNL     1       1.625   2.597  18.408  0.00  0.00    +0.000 A 
ATOM      4  C   UNL     1       2.535   2.417  17.398  0.00  0.00    +0.000 A 
ATOM      5  N   UNL     1       3.702   3.081  17.325  0.00  0.00    +0.000 NA
ATOM      6  C   UNL     1       3.989   3.953  18.304  0.00  0.00    +0.000 A 
ATOM      7  N   UNL     1       5.237   4.546  18.321  0.00  0.00    +0.000 N 
ATOM      8  C   UNL     1       5.883   4.776  17.037  0.00  0.00    +0.000 C 
ATOM      9  C   UNL     1       7.397   4.717  17.257  0.00  0.00    +0.000 C 
ATOM     10  C   UNL     1       7.863   5.668  18.377  0.00  0.00    +0.000 C 
ATOM     11  C   UNL     1       7.024   5.472  19.649  0.00  0.00    +0.000 C 
ATOM     12  C   UNL     1       5.521   5.522  19.359  0.00  0.00    +0.000 C 
ATOM     13  N   UNL     1       3.145   4.191  19.322  0.00  0.00    +0.000 NA
ENDROOT
BRANCH  10  14
ATOM     14  C   UNL     1       7.835   7.121  17.903  0.00  0.00    +0.000 C 
ATOM     15  O   UNL     1       7.307   7.429  16.838  0.00  0.00    +0.000 OA
ATOM     16  N   UNL     1       8.486   7.987  18.751  0.00  0.00    +0.000 N 
ATOM     17  C   UNL     1       8.513   9.327  18.467  0.00  0.00    +0.000 A 
ATOM     18  N   UNL     1       7.811  10.011  17.598  0.00  0.00    +0.000 NA
ATOM     19  N   UNL     1       8.199  11.333  17.544  0.00  0.00    +0.000 NA
ATOM     20  C   UNL     1       9.183  11.586  18.379  0.00  0.00    +0.000 A 
ATOM     21  C   UNL     1       9.892  12.886  18.463  0.00  0.00    +0.000 C 
ATOM     22  S   UNL     1       9.644  10.246  19.357  0.00  0.00    +0.000 S 
ATOM     23  H   UNL     1       9.077   7.655  19.495  0.00  0.00    +0.000 HD
ENDBRANCH  10  14
TORSDOF 1
ENDMDL
MODEL 2
REMARK VINA RESULT:      -7.4      6.862      8.941
REMARK  Name = 
REMARK  3 active torsions:
REMARK  status: ('A' for Active; 'I' for Inactive)
REMARK    1  A    between atoms: C_1  and  C_2
REMARK    2  A    between atoms: C_10  and  C_11
REMARK    3  A    between atoms: C_17  and  C_18
REMARK                            x       y       z     vdW  Elec       q    Type
REMARK                         _______ _______ _______ _____ _____    ______ ____
ROOT
ATOM      1  C   UNL     1      -3.423  10.058  14.328  0.00  0.00    +0.000 C 
ATOM      2  C   UNL     1      -3.326  10.530  15.744  0.00  0.00    +0.000 A 
ATOM      3  C   UNL     1      -4.300  11.314  16.312  0.00  0.00    +0.000 A 
ATOM      4  C   UNL     1      -4.092  11.663  17.621  0.00  0.00    +0.000 A 
ATOM      5  N   UNL     1      -3.010  11.284  18.326  0.00  0.00    +0.000 NA
ATOM      6  C   UNL     1      -2.086  10.538  17.702  0.00  0.00    +0.000 A 
ATOM      7  N   UNL     1      -0.907  10.252  18.363  0.00  0.00    +0.000 N 
ATOM      8  C   UNL     1      -0.969  10.131  19.813  0.00  0.00    +0.000 C 
ATOM      9  C   UNL     1       0.394  10.546  20.375  0.00  0.00    +0.000 C 
ATOM     10  C   UNL     1       1.556   9.771  19.726  0.00  0.00    +0.000 C 
ATOM     11  C   UNL     1       1.458   9.812  18.194  0.00  0.00    +0.000 C 
ATOM     12  C   UNL     1       0.067   9.405  17.696  0.00  0.00    +0.000 C 
ATOM     13  N   UNL     1      -2.223  10.149  16.423  0.00  0.00    +0.000 NA
ENDROOT
BRANCH  10  14
ATOM     14  C   UNL     1       1.609   8.334  20.247  0.00  0.00    +0.000 C 
ATOM     15  O   UNL     1       1.091   8.031  21.318  0.00  0.00    +0.000 OA
ATOM     16  N   UNL     1       2.316   7.480  19.432  0.00  0.00    +0.000 N 
ATOM     17  C   UNL     1       2.419   6.154  19.761  0.00  0.00    +0.000 A 
ATOM     18  N   UNL     1       1.751   5.459  20.647  0.00  0.00    +0.000 NA
ATOM     19  N   UNL     1       2.214   4.165  20.747  0.00  0.00    +0.000 NA
ATOM     20  C   UNL     1       3.218   3.942  19.927  0.00  0.00    +0.000 A 
ATOM     21  C   UNL     1       4.002   2.684  19.890  0.00  0.00    +0.000 C 
ATOM     22  S   UNL     1       3.608   5.275  18.909  0.00  0.00    +0.000 S 
ATOM     23  H   UNL     1       2.893   7.823  18.683  0.00  0.00    +0.000 HD
ENDBRANCH  10  14
TORSDOF 1
ENDMDL
MODEL 3
REMARK VINA RESULT:      -7.2      1.598      1.868
REMARK  Name = 
REMARK  3 active torsions:
REMARK  status: ('A' for Active; 'I' for Inactive)
REMARK    1  A    between atoms: C_1  and  C_2
REMARK    2  A    between atoms: C_10  and  C_11
REMARK    3  A    between atoms: C_17  and  C_18
REMARK                            x       y       z     vdW  Elec       q    Type
REMARK                         _______ _______ _______ _____ _____    ______ ____
ROOT
ATOM      1  C   UNL     1       2.587   2.469  21.307  0.00  0.00    +0.000 C 
ATOM      2  C   UNL     1       2.485   3.497  20.225  0.00  0.00    +0.000 A 
ATOM      3  C   UNL     1       1.275   3.869  19.693  0.00  0.00    +0.000 A 
ATOM      4  C   UNL     1       1.326   4.831  18.719  0.00  0.00    +0.000 A 
ATOM      5  N   UNL     1       2.472   5.387  18.286  0.00  0.00    +0.000 NA
ATOM      6  C   UNL     1       3.621   4.961  18.832  0.00  0.00    +0.000 A 
ATOM      7  N   UNL     1       4.815   5.419  18.310  0.00  0.00    +0.000 N 
ATOM      8  C   UNL     1       4.824   6.761  17.746  0.00  0.00    +0.000 C 
ATOM      9  C   UNL     1       5.884   6.797  16.640  0.00  0.00    +0.000 C 
ATOM     10  C   UNL     1       7.260   6.311  17.134  0.00  0.00    +0.000 C 
ATOM     11  C   UNL     1       7.140   4.964  17.861  0.00  0.00    +0.000 C 
ATOM     12  C   UNL     1       6.052   4.987  18.939  0.00  0.00    +0.000 C 
ATOM     13  N   UNL     1       3.652   4.027  19.799  0.00  0.00    +0.000 NA
ENDROOT
BRANCH  10  14
ATOM     14  C   UNL     1       7.925   7.368  18.016  0.00  0.00    +0.000 C 
ATOM     15  O   UNL     1       8.383   7.075  19.118  0.00  0.00    +0.000 OA
ATOM     16  N   UNL     1       7.902   8.631  17.472  0.00  0.00    +0.000 N 
ATOM     17  C   UNL     1       8.490   9.672  18.141  0.00  0.00    +0.000 A 
ATOM     18  N   UNL     1       9.308   9.652  19.164  0.00  0.00    +0.000 NA
ATOM     19  N   UNL     1       9.608  10.921  19.612  0.00  0.00    +0.000 NA
ATOM     20  C   UNL     1       8.998  11.845  18.904  0.00  0.00    +0.000 A 
ATOM     21  C   UNL     1       9.029  13.294  19.218  0.00  0.00    +0.000 C 
ATOM     22  S   UNL     1       8.084  11.232  17.578  0.00  0.00    +0.000 S 
ATOM     23  H   UNL     1       7.333   8.851  16.672  0.00  0.00    +0.000 HD
ENDBRANCH  10  14
TORSDOF 1
ENDMDL
MODEL 4
REMARK VINA RESULT:      -7.0      4.235      6.112
REMARK  Name = 
REMARK  3 active torsions:
REMARK  status: ('A' for Active; 'I' for Inactive)
REMARK    1  A    between atoms: C_1  and  C_2
REMARK    2  A    between atoms: C_10  and  C_11
REMARK    3  A    between atoms: C_17  and  C_18
REMARK                            x       y       z     vdW  Elec       q    Type
REMARK                         _______ _______ _______ _____ _____    ______ ____
ROOT
ATOM      1  C   UNL     1       4.908   3.340  12.018  0.00  0.00    +0.000 C 
ATOM      2  C   UNL     1       5.766   3.980  13.062  0.00  0.00    +0.000 A 
ATOM      3  C   UNL     1       6.986   4.532  12.756  0.00  0.00    +0.000 A 
ATOM      4  C   UNL     1       7.661   5.097  13.806  0.00  0.00    +0.000 A 
ATOM      5  N   UNL     1       7.190   5.118  15.065  0.00  0.00    +0.000 NA
ATOM      6  C   UNL     1       6.001   4.541  15.299  0.00  0.00    +0.000 A 
ATOM      7  N   UNL     1       5.560   4.432  16.604  0.00  0.00    +0.000 N 
ATOM      8  C   UNL     1       5.969   5.476  17.534  0.00  0.00    +0.000 C 
ATOM      9  C   UNL     1       6.042   4.853  18.932  0.00  0.00    +0.000 C 
ATOM     10  C   UNL     1       4.736   4.136  19.322  0.00  0.00    +0.000 C 
ATOM     11  C   UNL     1       4.286   3.171  18.215  0.00  0.00    +0.000 C 
ATOM     12  C   UNL     1       4.252   3.846  16.841  0.00  0.00    +0.000 C 
ATOM     13  N   UNL     1       5.276   3.974  14.320  0.00  0.00    +0.000 NA
ENDROOT
BRANCH  10  14
ATOM     14  C   UNL     1       3.641   5.148  19.663  0.00  0.00    +0.000 C 
ATOM     15  O   UNL     1       2.823   4.919  20.550  0.00  0.00    +0.000 OA
ATOM     16  N   UNL     1       3.657   6.265  18.860  0.00  0.00    +0.000 N 
ATOM     17  C   UNL     1       2.751   7.270  19.074  0.00  0.00    +0.000 A 
ATOM     18  N   UNL     1       1.959   7.478  20.096  0.00  0.00    +0.000 NA
ATOM     19  N   UNL     1       1.121   8.554  19.893  0.00  0.00    +0.000 NA
ATOM     20  C   UNL     1       1.318   9.109  18.718  0.00  0.00    +0.000 A 
ATOM     21  C   UNL     1       0.490  10.208  18.165  0.00  0.00    +0.000 C 
ATOM     22  S   UNL     1       2.608   8.413  17.813  0.00  0.00    +0.000 S 
ATOM     23  H   UNL     1       4.210   6.305  18.020  0.00  0.00    +0.000 HD
ENDBRANCH  10  14
TORSDOF 1
ENDMDL
MODEL 5
REMARK VINA RESULT:      -6.9      5.765      6.742
REMARK  Name = 
REMARK  3 active torsions:
REMARK  status: ('A' for Active; 'I' for Inactive)
REMARK    1  A    between atoms: C_1  and  C_2
REMARK    2  A    between atoms: C_10  and  C_11
REMARK    3  A    between atoms: C_17  and  C_18
REMARK                            x       y       z     vdW  Elec       q    Type
REMARK                         _______ _______ _______ _____ _____    ______ ____
ROOT
ATOM      1  C   UNL     1       4.985   6.043  16.269  0.00  0.00    +0.000 C 
ATOM      2  C   UNL     1       4.167   5.928  17.516  0.00  0.00    +0.000 A 
ATOM      3  C   UNL     1       4.142   4.774  18.259  0.00  0.00    +0.000 A 
ATOM      4  C   UNL     1       3.362   4.811  19.385  0.00  0.00    +0.000 A 
ATOM      5  N   UNL     1       2.649   5.889  19.758  0.00  0.00    +0.000 NA
ATOM      6  C   UNL     1       2.701   6.976  18.973  0.00  0.00    +0.000 A 
ATOM      7  N   UNL     1       1.874   8.044  19.263  0.00  0.00    +0.000 N 
ATOM      8  C   UNL     1       1.544   8.270  20.663  0.00  0.00    +0.000 C 
ATOM      9  C   UNL     1       0.161   8.926  20.718  0.00  0.00    +0.000 C 
ATOM     10  C   UNL     1       0.077  10.188  19.839  0.00  0.00    +0.000 C 
ATOM     11  C   UNL     1       0.595   9.906  18.420  0.00  0.00    +0.000 C 
ATOM     12  C   UNL     1       1.971   9.233  18.434  0.00  0.00    +0.000 C 
ATOM     13  N   UNL     1       3.449   7.020  17.858  0.00  0.00    +0.000 NA
ENDROOT
BRANCH  10  14
ATOM     14  C   UNL     1       0.823  11.354  20.487  0.00  0.00    +0.000 C 
ATOM     15  O   UNL     1       0.836  11.495  21.707  0.00  0.00    +0.000 OA
ATOM     16  N   UNL     1       1.404  12.208  19.579  0.00  0.00    +0.000 N 
ATOM     17  C   UNL     1       2.132  13.281  20.021  0.00  0.00    +0.000 A 
ATOM     18  N   UNL     1       2.587  13.544  21.220  0.00  0.00    +0.000 NA
ATOM     19  N   UNL     1       3.198  14.778  21.283  0.00  0.00    +0.000 NA
ATOM     20  C   UNL     1       3.174  15.394  20.122  0.00  0.00    +0.000 A 
ATOM     21  C   UNL     1       3.646  16.782  19.903  0.00  0.00    +0.000 C 
ATOM     22  S   UNL     1       2.484  14.467  18.845  0.00  0.00    +0.000 S 
ATOM     23  H   UNL     1       1.185  12.163  18.597  0.00  0.00    +0.000 HD
ENDBRANCH  10  14
TORSDOF 1
ENDMDL
MODEL 6
REMARK VINA RESULT:      -6.7      4.313      6.441
REMARK  Name = 
REMARK  3 active torsions:
REMARK  status: ('A' for Active; 'I' for Inactive)
REMARK    1  A    between atoms: C_1  and  C_2
REMARK    2  A    between atoms: C_10  and  C_11
REMARK    3  A    between atoms: C_17  and  C_18
REMARK                            x       y       z     vdW  Elec       q    Type
REMARK                         _______ _______ _______ _____ _____    ______ ____
ROOT
ATOM      1  C   UNL     1       4.955   2.981  11.805  0.00  0.00    +0.000 C 
ATOM      2  C   UNL     1       5.837   3.770  12.719  0.00  0.00    +0.000 A 
ATOM      3  C   UNL     1       7.128   4.092  12.377  0.00  0.00    +0.000 A 
ATOM      4  C   UNL     1       7.819   4.830  13.302  0.00  0.00    +0.000 A 
ATOM      5  N   UNL     1       7.298   5.220  14.479  0.00  0.00    +0.000 NA
ATOM      6  C   UNL     1       6.039   4.852  14.759  0.00  0.00    +0.000 A 
ATOM      7  N   UNL     1       5.530   5.125  16.014  0.00  0.00    +0.000 N 
ATOM      8  C   UNL     1       6.021   6.321  16.685  0.00  0.00    +0.000 C 
ATOM      9  C   UNL     1       5.956   6.070  18.195  0.00  0.00    +0.000 C 
ATOM     10  C   UNL     1       4.555   5.619  18.653  0.00  0.00    +0.000 C 
ATOM     11  C   UNL     1       4.041   4.458  17.789  0.00  0.00    +0.000 C 
ATOM     12  C   UNL     1       4.151   4.762  16.292  0.00  0.00    +0.000 C 
ATOM     13  N   UNL     1       5.294   4.135  13.900  0.00  0.00    +0.000 NA
ENDROOT
BRANCH  10  14
ATOM     14  C   UNL     1       3.578   6.795  18.652  0.00  0.00    +0.000 C 
ATOM     15  O   UNL     1       3.541   7.586  17.713  0.00  0.00    +0.000 OA
ATOM     16  N   UNL     1       2.822   6.881  19.798  0.00  0.00    +0.000 N 
ATOM     17  C   UNL     1       1.881   7.870  19.920  0.00  0.00    +0.000 A 
ATOM     18  N   UNL     1       1.387   8.670  19.009  0.00  0.00    +0.000 NA
ATOM     19  N   UNL     1       0.524   9.600  19.549  0.00  0.00    +0.000 NA
ATOM     20  C   UNL     1       0.408   9.459  20.851  0.00  0.00    +0.000 A 
ATOM     21  C   UNL     1      -0.354  10.382  21.726  0.00  0.00    +0.000 C 
ATOM     22  S   UNL     1       1.276   8.119  21.497  0.00  0.00    +0.000 S 
ATOM     23  H   UNL     1       3.039   6.339  20.617  0.00  0.00    +0.000 HD
ENDBRANCH  10  14
TORSDOF 1
ENDMDL
MODEL 7
REMARK VINA RESULT:      -6.6      9.403     11.130
REMARK  Name = 
REMARK  3 active torsions:
REMARK  status: ('A' for Active; 'I' for Inactive)
REMARK    1  A    between atoms: C_1  and  C_2
REMARK    2  A    between atoms: C_10  and  C_11
REMARK    3  A    between atoms: C_17  and  C_18
REMARK                            x       y       z     vdW  Elec       q    Type
REMARK                         _______ _______ _______ _____ _____    ______ ____
ROOT
ATOM      1  C   UNL     1      -7.513  12.355  19.422  0.00  0.00    +0.000 C 
ATOM      2  C   UNL     1      -6.761  12.520  20.704  0.00  0.00    +0.000 A 
ATOM      3  C   UNL     1      -7.407  12.733  21.897  0.00  0.00    +0.000 A 
ATOM      4  C   UNL     1      -6.596  12.853  22.996  0.00  0.00    +0.000 A 
ATOM      5  N   UNL     1      -5.254  12.780  22.939  0.00  0.00    +0.000 NA
ATOM      6  C   UNL     1      -4.688  12.593  21.737  0.00  0.00    +0.000 A 
ATOM      7  N   UNL     1      -3.311  12.650  21.636  0.00  0.00    +0.000 N 
ATOM      8  C   UNL     1      -2.540  12.214  22.791  0.00  0.00    +0.000 C 
ATOM      9  C   UNL     1      -1.221  12.993  22.794  0.00  0.00    +0.000 C 
ATOM     10  C   UNL     1      -0.470  12.876  21.454  0.00  0.00    +0.000 C 
ATOM     11  C   UNL     1      -1.398  13.196  20.273  0.00  0.00    +0.000 C 
ATOM     12  C   UNL     1      -2.706  12.402  20.338  0.00  0.00    +0.000 C 
ATOM     13  N   UNL     1      -5.415  12.458  20.615  0.00  0.00    +0.000 NA
ENDROOT
BRANCH  10  14
ATOM     14  C   UNL     1       0.170  11.496  21.307  0.00  0.00    +0.000 C 
ATOM     15  O   UNL     1       0.421  10.807  22.293  0.00  0.00    +0.000 OA
ATOM     16  N   UNL     1       0.459  11.160  20.005  0.00  0.00    +0.000 N 
ATOM     17  C   UNL     1       1.007   9.937  19.722  0.00  0.00    +0.000 A 
ATOM     18  N   UNL     1       1.118   8.876  20.481  0.00  0.00    +0.000 NA
ATOM     19  N   UNL     1       1.820   7.865  19.859  0.00  0.00    +0.000 NA
ATOM     20  C   UNL     1       2.211   8.213  18.653  0.00  0.00    +0.000 A 
ATOM     21  C   UNL     1       3.084   7.385  17.787  0.00  0.00    +0.000 C 
ATOM     22  S   UNL     1       1.668   9.770  18.156  0.00  0.00    +0.000 S 
ATOM     23  H   UNL     1       0.428  11.841  19.264  0.00  0.00    +0.000 HD
ENDBRANCH  10  14
TORSDOF 1
ENDMDL
MODEL 8
REMARK VINA RESULT:      -6.6      6.487      7.446
REMARK  Name = 
REMARK  3 active torsions:
REMARK  status: ('A' for Active; 'I' for Inactive)
REMARK    1  A    between atoms: C_1  and  C_2
REMARK    2  A    between atoms: C_10  and  C_11
REMARK    3  A    between atoms: C_17  and  C_18
REMARK                            x       y       z     vdW  Elec       q    Type
REMARK                         _______ _______ _______ _____ _____    ______ ____
ROOT
ATOM      1  C   UNL     1       4.939   6.619  16.163  0.00  0.00    +0.000 C 
ATOM      2  C   UNL     1       4.139   6.374  17.402  0.00  0.00    +0.000 A 
ATOM      3  C   UNL     1       4.191   5.176  18.070  0.00  0.00    +0.000 A 
ATOM      4  C   UNL     1       3.417   5.092  19.199  0.00  0.00    +0.000 A 
ATOM      5  N   UNL     1       2.642   6.098  19.642  0.00  0.00    +0.000 NA
ATOM      6  C   UNL     1       2.621   7.234  18.929  0.00  0.00    +0.000 A 
ATOM      7  N   UNL     1       1.732   8.228  19.289  0.00  0.00    +0.000 N 
ATOM      8  C   UNL     1       1.399   8.344  20.702  0.00  0.00    +0.000 C 
ATOM      9  C   UNL     1      -0.022   8.907  20.802  0.00  0.00    +0.000 C 
ATOM     10  C   UNL     1      -0.190  10.215  20.006  0.00  0.00    +0.000 C 
ATOM     11  C   UNL     1       0.334  10.057  18.571  0.00  0.00    +0.000 C 
ATOM     12  C   UNL     1       1.749   9.472  18.537  0.00  0.00    +0.000 C 
ATOM     13  N   UNL     1       3.358   7.395  17.816  0.00  0.00    +0.000 NA
ENDROOT
BRANCH  10  14
ATOM     14  C   UNL     1       0.487  11.381  20.726  0.00  0.00    +0.000 C 
ATOM     15  O   UNL     1       0.996  11.230  21.834  0.00  0.00    +0.000 OA
ATOM     16  N   UNL     1       0.414  12.570  20.037  0.00  0.00    +0.000 N 
ATOM     17  C   UNL     1       1.006  13.693  20.550  0.00  0.00    +0.000 A 
ATOM     18  N   UNL     1       1.865  13.810  21.532  0.00  0.00    +0.000 NA
ATOM     19  N   UNL     1       2.156  15.128  21.812  0.00  0.00    +0.000 NA
ATOM     20  C   UNL     1       1.497  15.950  21.026  0.00  0.00    +0.000 A 
ATOM     21  C   UNL     1       1.510  17.426  21.163  0.00  0.00    +0.000 C 
ATOM     22  S   UNL     1       0.543  15.167  19.824  0.00  0.00    +0.000 S 
ATOM     23  H   UNL     1      -0.193  12.682  19.242  0.00  0.00    +0.000 HD
ENDBRANCH  10  14
TORSDOF 1
ENDMDL
MODEL 9
REMARK VINA RESULT:      -6.5      9.242     11.057
REMARK  Name = 
REMARK  3 active torsions:
REMARK  status: ('A' for Active; 'I' for Inactive)
REMARK    1  A    between atoms: C_1  and  C_2
REMARK    2  A    between atoms: C_10  and  C_11
REMARK    3  A    between atoms: C_17  and  C_18
REMARK                            x       y       z     vdW  Elec       q    Type
REMARK                         _______ _______ _______ _____ _____    ______ ____
ROOT
ATOM      1  C   UNL     1       2.111   6.227  20.534  0.00  0.00    +0.000 C 
ATOM      2  C   UNL     1       1.964   7.416  19.640  0.00  0.00    +0.000 A 
ATOM      3  C   UNL     1       2.547   7.463  18.398  0.00  0.00    +0.000 A 
ATOM      4  C   UNL     1       2.319   8.608  17.679  0.00  0.00    +0.000 A 
ATOM      5  N   UNL     1       1.584   9.637  18.137  0.00  0.00    +0.000 NA
ATOM      6  C   UNL     1       1.062   9.534  19.368  0.00  0.00    +0.000 A 
ATOM      7  N   UNL     1       0.418  10.630  19.911  0.00  0.00    +0.000 N 
ATOM      8  C   UNL     1      -0.267  11.524  18.988  0.00  0.00    +0.000 C 
ATOM      9  C   UNL     1      -0.250  12.929  19.598  0.00  0.00    +0.000 C 
ATOM     10  C   UNL     1      -0.813  12.951  21.032  0.00  0.00    +0.000 C 
ATOM     11  C   UNL     1      -0.151  11.870  21.899  0.00  0.00    +0.000 C 
ATOM     12  C   UNL     1      -0.182  10.494  21.226  0.00  0.00    +0.000 C 
ATOM     13  N   UNL     1       1.234   8.441  20.131  0.00  0.00    +0.000 NA
ENDROOT
BRANCH  10  14
ATOM     14  C   UNL     1      -2.335  12.808  21.021  0.00  0.00    +0.000 C 
ATOM     15  O   UNL     1      -2.954  12.715  19.964  0.00  0.00    +0.000 OA
ATOM     16  N   UNL     1      -2.899  12.847  22.275  0.00  0.00    +0.000 N 
ATOM     17  C   UNL     1      -4.253  12.699  22.418  0.00  0.00    +0.000 A 
ATOM     18  N   UNL     1      -5.145  12.290  21.550  0.00  0.00    +0.000 NA
ATOM     19  N   UNL     1      -6.428  12.370  22.049  0.00  0.00    +0.000 NA
ATOM     20  C   UNL     1      -6.445  12.841  23.276  0.00  0.00    +0.000 A 
ATOM     21  C   UNL     1      -7.681  13.153  24.033  0.00  0.00    +0.000 C 
ATOM     22  S   UNL     1      -4.885  13.133  23.943  0.00  0.00    +0.000 S 
ATOM     23  H   UNL     1      -2.372  13.134  23.083  0.00  0.00    +0.000 HD
ENDBRANCH  10  14
TORSDOF 1
ENDMDL
