MODEL 1
REMARK VINA RESULT:      -7.0      0.000      0.000
REMARK  Name = 
REMARK  4 active torsions:
REMARK  status: ('A' for Active; 'I' for Inactive)
REMARK    1  A    between atoms: N_5  and  C_6
REMARK    2  A    between atoms: C_8  and  C_9
REMARK    3  A    between atoms: C_9  and  O_10
REMARK    4  A    between atoms: C_13  and  O_14
REMARK                            x       y       z     vdW  Elec       q    Type
REMARK                         _______ _______ _______ _____ _____    ______ ____
ROOT
ATOM      1  C   UNL     1       4.534   4.559  18.412  0.00  0.00    +0.000 C 
ATOM      2  O   UNL     1       3.308   5.292  18.197  0.00  0.00    +0.000 OA
ATOM      3  C   UNL     1       2.329   4.741  19.107  0.00  0.00    +0.000 C 
ATOM      4  C   UNL     1       2.642   3.251  19.150  0.00  0.00    +0.000 C 
ATOM      5 BR   UNL     1       2.092   2.346  20.765  0.00  0.00    +0.000 Br
ATOM      6  C   UNL     1       4.127   3.126  18.813  0.00  0.00    +0.000 C 
ENDROOT
BRANCH   1  11
ATOM      7  N   UNL     1       7.908   5.248  14.115  0.00  0.00    +0.000 N 
ATOM      8  C   UNL     1       7.049   5.011  15.151  0.00  0.00    +0.000 A 
ATOM      9  C   UNL     1       5.595   4.971  14.899  0.00  0.00    +0.000 A 
ATOM     10  C   UNL     1       4.826   4.792  15.969  0.00  0.00    +0.000 A 
ATOM     11  N   UNL     1       5.373   4.655  17.226  0.00  0.00    +0.000 N 
ATOM     12  C   UNL     1       6.760   4.630  17.414  0.00  0.00    +0.000 A 
ATOM     13  O   UNL     1       7.248   4.467  18.531  0.00  0.00    +0.000 OA
ATOM     14  N   UNL     1       7.570   4.826  16.322  0.00  0.00    +0.000 NA
ATOM     15  H   UNL     1       7.626   4.977  13.182  0.00  0.00    +0.000 HD
ATOM     16  H   UNL     1       8.872   5.023  14.342  0.00  0.00    +0.000 HD
ENDBRANCH   1  11
BRANCH   6  17
ATOM     17  O   UNL     1       4.944   2.607  19.858  0.00  0.00    +0.000 OA
ATOM     18  H   UNL     1       5.279   1.728  19.607  0.00  0.00    +0.000 HD
ENDBRANCH   6  17
BRANCH   3  19
ATOM     19  C   UNL     1       2.424   5.536  20.418  0.00  0.00    +0.000 C 
BRANCH  19  20
ATOM     20  O   UNL     1       2.512   6.931  20.118  0.00  0.00    +0.000 OA
ATOM     21  H   UNL     1       2.189   7.042  19.204  0.00  0.00    +0.000 HD
ENDBRANCH  19  20
ENDBRANCH   3  19
TORSDOF 4
ENDMDL
MODEL 2
REMARK VINA RESULT:      -6.8      1.153      1.153
REMARK  Name = 
REMARK  4 active torsions:
REMARK  status: ('A' for Active; 'I' for Inactive)
REMARK    1  A    between atoms: N_5  and  C_6
REMARK    2  A    between atoms: C_8  and  C_9
REMARK    3  A    between atoms: C_9  and  O_10
REMARK    4  A    between atoms: C_13  and  O_14
REMARK                            x       y       z     vdW  Elec       q    Type
REMARK                         _______ _______ _______ _____ _____    ______ ____
ROOT
ATOM      1  C   UNL     1       4.528   4.416  17.592  0.00  0.00    +0.000 C 
ATOM      2  O   UNL     1       3.692   5.588  17.703  0.00  0.00    +0.000 OA
ATOM      3  C   UNL     1       2.481   5.174  18.376  0.00  0.00    +0.000 C 
ATOM      4  C   UNL     1       2.216   3.768  17.855  0.00  0.00    +0.000 C 
ATOM      5 BR   UNL     1       1.189   2.638  19.039  0.00  0.00    +0.000 Br
ATOM      6  C   UNL     1       3.579   3.209  17.449  0.00  0.00    +0.000 C 
ENDROOT
BRANCH   1  11
ATOM      7  N   UNL     1       8.074   5.508  13.524  0.00  0.00    +0.000 N 
ATOM      8  C   UNL     1       7.215   5.163  14.528  0.00  0.00    +0.000 A 
ATOM      9  C   UNL     1       6.059   4.293  14.234  0.00  0.00    +0.000 A 
ATOM     10  C   UNL     1       5.240   4.053  15.254  0.00  0.00    +0.000 A 
ATOM     11  N   UNL     1       5.473   4.593  16.500  0.00  0.00    +0.000 N 
ATOM     12  C   UNL     1       6.618   5.358  16.755  0.00  0.00    +0.000 A 
ATOM     13  O   UNL     1       6.846   5.805  17.877  0.00  0.00    +0.000 OA
ATOM     14  N   UNL     1       7.469   5.627  15.711  0.00  0.00    +0.000 NA
ATOM     15  H   UNL     1       8.183   4.874  12.743  0.00  0.00    +0.000 HD
ATOM     16  H   UNL     1       8.945   5.901  13.867  0.00  0.00    +0.000 HD
ENDBRANCH   1  11
BRANCH   6  17
ATOM     17  O   UNL     1       4.020   2.083  18.201  0.00  0.00    +0.000 OA
ATOM     18  H   UNL     1       4.733   2.352  18.808  0.00  0.00    +0.000 HD
ENDBRANCH   6  17
BRANCH   3  19
ATOM     19  C   UNL     1       2.711   5.353  19.884  0.00  0.00    +0.000 C 
BRANCH  19  20
ATOM     20  O   UNL     1       2.412   6.703  20.249  0.00  0.00    +0.000 OA
ATOM     21  H   UNL     1       1.954   6.665  21.111  0.00  0.00    +0.000 HD
ENDBRANCH  19  20
ENDBRANCH   3  19
TORSDOF 4
ENDMDL
MODEL 3
REMARK VINA RESULT:      -6.8      3.217      5.469
REMARK  Name = 
REMARK  4 active torsions:
REMARK  status: ('A' for Active; 'I' for Inactive)
REMARK    1  A    between atoms: N_5  and  C_6
REMARK    2  A    between atoms: C_8  and  C_9
REMARK    3  A    between atoms: C_9  and  O_10
REMARK    4  A    between atoms: C_13  and  O_14
REMARK                            x       y       z     vdW  Elec       q    Type
REMARK                         _______ _______ _______ _____ _____    ______ ____
ROOT
ATOM      1  C   UNL     1       5.025   4.434  17.881  0.00  0.00    +0.000 C 
ATOM      2  O   UNL     1       4.913   4.800  16.488  0.00  0.00    +0.000 OA
ATOM      3  C   UNL     1       5.986   5.730  16.215  0.00  0.00    +0.000 C 
ATOM      4  C   UNL     1       6.111   6.556  17.488  0.00  0.00    +0.000 C 
ATOM      5 BR   UNL     1       7.854   7.331  17.791  0.00  0.00    +0.000 Br
ATOM      6  C   UNL     1       5.594   5.665  18.616  0.00  0.00    +0.000 C 
ENDROOT
BRANCH   1  11
ATOM      7  N   UNL     1       0.287   2.258  19.651  0.00  0.00    +0.000 N 
ATOM      8  C   UNL     1       1.440   2.866  19.241  0.00  0.00    +0.000 A 
ATOM      9  C   UNL     1       1.384   3.908  18.196  0.00  0.00    +0.000 A 
ATOM     10  C   UNL     1       2.555   4.407  17.812  0.00  0.00    +0.000 A 
ATOM     11  N   UNL     1       3.736   3.964  18.367  0.00  0.00    +0.000 N 
ATOM     12  C   UNL     1       3.742   3.023  19.404  0.00  0.00    +0.000 A 
ATOM     13  O   UNL     1       4.794   2.660  19.926  0.00  0.00    +0.000 OA
ATOM     14  N   UNL     1       2.542   2.487  19.805  0.00  0.00    +0.000 NA
ATOM     15  H   UNL     1      -0.580   2.775  19.585  0.00  0.00    +0.000 HD
ATOM     16  H   UNL     1       0.400   1.743  20.519  0.00  0.00    +0.000 HD
ENDBRANCH   1  11
BRANCH   6  17
ATOM     17  O   UNL     1       6.563   5.308  19.597  0.00  0.00    +0.000 OA
ATOM     18  H   UNL     1       6.133   4.818  20.321  0.00  0.00    +0.000 HD
ENDBRANCH   6  17
BRANCH   3  19
ATOM     19  C   UNL     1       7.203   4.906  15.767  0.00  0.00    +0.000 C 
BRANCH  19  20
ATOM     20  O   UNL     1       7.725   5.456  14.555  0.00  0.00    +0.000 OA
ATOM     21  H   UNL     1       8.693   5.336  14.587  0.00  0.00    +0.000 HD
ENDBRANCH  19  20
ENDBRANCH   3  19
TORSDOF 4
ENDMDL
MODEL 4
REMARK VINA RESULT:      -6.8      3.338      5.747
REMARK  Name = 
REMARK  4 active torsions:
REMARK  status: ('A' for Active; 'I' for Inactive)
REMARK    1  A    between atoms: N_5  and  C_6
REMARK    2  A    between atoms: C_8  and  C_9
REMARK    3  A    between atoms: C_9  and  O_10
REMARK    4  A    between atoms: C_13  and  O_14
REMARK                            x       y       z     vdW  Elec       q    Type
REMARK                         _______ _______ _______ _____ _____    ______ ____
ROOT
ATOM      1  C   UNL     1       5.062   4.207  18.913  0.00  0.00    +0.000 C 
ATOM      2  O   UNL     1       4.537   4.268  17.568  0.00  0.00    +0.000 OA
ATOM      3  C   UNL     1       5.427   5.121  16.812  0.00  0.00    +0.000 C 
ATOM      4  C   UNL     1       5.852   6.200  17.799  0.00  0.00    +0.000 C 
ATOM      5 BR   UNL     1       7.556   7.028  17.420  0.00  0.00    +0.000 Br
ATOM      6  C   UNL     1       5.734   5.569  19.185  0.00  0.00    +0.000 C 
ENDROOT
BRANCH   1  11
ATOM      7  N   UNL     1       0.988   2.480  22.190  0.00  0.00    +0.000 N 
ATOM      8  C   UNL     1       2.013   2.965  21.427  0.00  0.00    +0.000 A 
ATOM      9  C   UNL     1       1.896   4.302  20.811  0.00  0.00    +0.000 A 
ATOM     10  C   UNL     1       2.912   4.674  20.038  0.00  0.00    +0.000 A 
ATOM     11  N   UNL     1       3.996   3.848  19.836  0.00  0.00    +0.000 N 
ATOM     12  C   UNL     1       4.100   2.616  20.493  0.00  0.00    +0.000 A 
ATOM     13  O   UNL     1       5.087   1.898  20.344  0.00  0.00    +0.000 OA
ATOM     14  N   UNL     1       3.055   2.209  21.286  0.00  0.00    +0.000 NA
ATOM     15  H   UNL     1       0.391   3.140  22.671  0.00  0.00    +0.000 HD
ATOM     16  H   UNL     1       1.258   1.678  22.750  0.00  0.00    +0.000 HD
ENDBRANCH   1  11
BRANCH   6  17
ATOM     17  O   UNL     1       6.962   5.432  19.895  0.00  0.00    +0.000 OA
ATOM     18  H   UNL     1       7.470   4.685  19.531  0.00  0.00    +0.000 HD
ENDBRANCH   6  17
BRANCH   3  19
ATOM     19  C   UNL     1       6.518   4.225  16.208  0.00  0.00    +0.000 C 
BRANCH  19  20
ATOM     20  O   UNL     1       5.910   3.071  15.623  0.00  0.00    +0.000 OA
ATOM     21  H   UNL     1       5.165   2.822  16.203  0.00  0.00    +0.000 HD
ENDBRANCH  19  20
ENDBRANCH   3  19
TORSDOF 4
ENDMDL
MODEL 5
REMARK VINA RESULT:      -6.7      1.811      2.498
REMARK  Name = 
REMARK  4 active torsions:
REMARK  status: ('A' for Active; 'I' for Inactive)
REMARK    1  A    between atoms: N_5  and  C_6
REMARK    2  A    between atoms: C_8  and  C_9
REMARK    3  A    between atoms: C_9  and  O_10
REMARK    4  A    between atoms: C_13  and  O_14
REMARK                            x       y       z     vdW  Elec       q    Type
REMARK                         _______ _______ _______ _____ _____    ______ ____
ROOT
ATOM      1  C   UNL     1       3.611   4.290  17.853  0.00  0.00    +0.000 C 
ATOM      2  O   UNL     1       3.126   2.944  17.653  0.00  0.00    +0.000 OA
ATOM      3  C   UNL     1       2.451   2.559  18.873  0.00  0.00    +0.000 C 
ATOM      4  C   UNL     1       3.272   3.202  19.983  0.00  0.00    +0.000 C 
ATOM      5 BR   UNL     1       2.303   3.559  21.616  0.00  0.00    +0.000 Br
ATOM      6  C   UNL     1       3.946   4.420  19.353  0.00  0.00    +0.000 C 
ENDROOT
BRANCH   1  11
ATOM      7  N   UNL     1       7.535   5.489  14.181  0.00  0.00    +0.000 N 
ATOM      8  C   UNL     1       6.616   5.166  15.140  0.00  0.00    +0.000 A 
ATOM      9  C   UNL     1       6.413   3.751  15.510  0.00  0.00    +0.000 A 
ATOM     10  C   UNL     1       5.461   3.518  16.408  0.00  0.00    +0.000 A 
ATOM     11  N   UNL     1       4.720   4.547  16.946  0.00  0.00    +0.000 N 
ATOM     12  C   UNL     1       4.989   5.882  16.620  0.00  0.00    +0.000 A 
ATOM     13  O   UNL     1       4.355   6.802  17.132  0.00  0.00    +0.000 OA
ATOM     14  N   UNL     1       5.961   6.142  15.685  0.00  0.00    +0.000 NA
ATOM     15  H   UNL     1       8.330   4.877  14.049  0.00  0.00    +0.000 HD
ATOM     16  H   UNL     1       7.764   6.478  14.171  0.00  0.00    +0.000 HD
ENDBRANCH   1  11
BRANCH   6  17
ATOM     17  O   UNL     1       3.546   5.678  19.888  0.00  0.00    +0.000 OA
ATOM     18  H   UNL     1       3.393   5.594  20.846  0.00  0.00    +0.000 HD
ENDBRANCH   6  17
BRANCH   3  19
ATOM     19  C   UNL     1       0.979   2.973  18.733  0.00  0.00    +0.000 C 
BRANCH  19  20
ATOM     20  O   UNL     1       0.208   1.840  18.326  0.00  0.00    +0.000 OA
ATOM     21  H   UNL     1      -0.277   1.532  19.116  0.00  0.00    +0.000 HD
ENDBRANCH  19  20
ENDBRANCH   3  19
TORSDOF 4
ENDMDL
MODEL 6
REMARK VINA RESULT:      -6.7      2.109      3.454
REMARK  Name = 
REMARK  4 active torsions:
REMARK  status: ('A' for Active; 'I' for Inactive)
REMARK    1  A    between atoms: N_5  and  C_6
REMARK    2  A    between atoms: C_8  and  C_9
REMARK    3  A    between atoms: C_9  and  O_10
REMARK    4  A    between atoms: C_13  and  O_14
REMARK                            x       y       z     vdW  Elec       q    Type
REMARK                         _______ _______ _______ _____ _____    ______ ____
ROOT
ATOM      1  C   UNL     1       4.457   4.451  18.544  0.00  0.00    +0.000 C 
ATOM      2  O   UNL     1       5.070   3.280  19.127  0.00  0.00    +0.000 OA
ATOM      3  C   UNL     1       4.022   2.561  19.817  0.00  0.00    +0.000 C 
ATOM      4  C   UNL     1       3.129   3.650  20.396  0.00  0.00    +0.000 C 
ATOM      5 BR   UNL     1       1.294   3.126  20.700  0.00  0.00    +0.000 Br
ATOM      6  C   UNL     1       3.312   4.867  19.491  0.00  0.00    +0.000 C 
ENDROOT
BRANCH   1  11
ATOM      7  N   UNL     1       8.271   8.209  17.262  0.00  0.00    +0.000 N 
ATOM      8  C   UNL     1       7.321   7.308  17.650  0.00  0.00    +0.000 A 
ATOM      9  C   UNL     1       7.638   6.320  18.702  0.00  0.00    +0.000 A 
ATOM     10  C   UNL     1       6.678   5.442  18.980  0.00  0.00    +0.000 A 
ATOM     11  N   UNL     1       5.471   5.469  18.316  0.00  0.00    +0.000 N 
ATOM     12  C   UNL     1       5.185   6.464  17.373  0.00  0.00    +0.000 A 
ATOM     13  O   UNL     1       4.092   6.512  16.811  0.00  0.00    +0.000 OA
ATOM     14  N   UNL     1       6.168   7.372  17.064  0.00  0.00    +0.000 NA
ATOM     15  H   UNL     1       8.977   8.485  17.932  0.00  0.00    +0.000 HD
ATOM     16  H   UNL     1       7.888   8.978  16.720  0.00  0.00    +0.000 HD
ENDBRANCH   1  11
BRANCH   6  17
ATOM     17  O   UNL     1       2.147   5.275  18.781  0.00  0.00    +0.000 OA
ATOM     18  H   UNL     1       2.197   6.228  18.587  0.00  0.00    +0.000 HD
ENDBRANCH   6  17
BRANCH   3  19
ATOM     19  C   UNL     1       3.403   1.578  18.812  0.00  0.00    +0.000 C 
BRANCH  19  20
ATOM     20  O   UNL     1       4.379   0.601  18.445  0.00  0.00    +0.000 OA
ATOM     21  H   UNL     1       3.888  -0.198  18.172  0.00  0.00    +0.000 HD
ENDBRANCH  19  20
ENDBRANCH   3  19
TORSDOF 4
ENDMDL
MODEL 7
REMARK VINA RESULT:      -6.5      3.185      5.726
REMARK  Name = 
REMARK  4 active torsions:
REMARK  status: ('A' for Active; 'I' for Inactive)
REMARK    1  A    between atoms: N_5  and  C_6
REMARK    2  A    between atoms: C_8  and  C_9
REMARK    3  A    between atoms: C_9  and  O_10
REMARK    4  A    between atoms: C_13  and  O_14
REMARK                            x       y       z     vdW  Elec       q    Type
REMARK                         _______ _______ _______ _____ _____    ______ ____
ROOT
ATOM      1  C   UNL     1       5.047   4.932  18.625  0.00  0.00    +0.000 C 
ATOM      2  O   UNL     1       6.369   4.890  19.207  0.00  0.00    +0.000 OA
ATOM      3  C   UNL     1       7.308   5.072  18.123  0.00  0.00    +0.000 C 
ATOM      4  C   UNL     1       6.680   4.338  16.946  0.00  0.00    +0.000 C 
ATOM      5 BR   UNL     1       7.215   4.978  15.204  0.00  0.00    +0.000 Br
ATOM      6  C   UNL     1       5.174   4.347  17.203  0.00  0.00    +0.000 C 
ENDROOT
BRANCH   1  11
ATOM      7  N   UNL     1       1.569   2.624  22.216  0.00  0.00    +0.000 N 
ATOM      8  C   UNL     1       2.404   3.151  21.270  0.00  0.00    +0.000 A 
ATOM      9  C   UNL     1       3.453   2.303  20.670  0.00  0.00    +0.000 A 
ATOM     10  C   UNL     1       4.259   2.907  19.801  0.00  0.00    +0.000 A 
ATOM     11  N   UNL     1       4.108   4.242  19.496  0.00  0.00    +0.000 N 
ATOM     12  C   UNL     1       3.058   4.995  20.036  0.00  0.00    +0.000 A 
ATOM     13  O   UNL     1       2.899   6.175  19.731  0.00  0.00    +0.000 OA
ATOM     14  N   UNL     1       2.222   4.391  20.944  0.00  0.00    +0.000 NA
ATOM     15  H   UNL     1       1.378   1.632  22.191  0.00  0.00    +0.000 HD
ATOM     16  H   UNL     1       0.752   3.202  22.386  0.00  0.00    +0.000 HD
ENDBRANCH   1  11
BRANCH   6  17
ATOM     17  O   UNL     1       4.401   5.072  16.251  0.00  0.00    +0.000 OA
ATOM     18  H   UNL     1       4.279   4.534  15.448  0.00  0.00    +0.000 HD
ENDBRANCH   6  17
BRANCH   3  19
ATOM     19  C   UNL     1       7.559   6.580  17.983  0.00  0.00    +0.000 C 
BRANCH  19  20
ATOM     20  O   UNL     1       8.442   7.010  19.021  0.00  0.00    +0.000 OA
ATOM     21  H   UNL     1       8.302   6.407  19.776  0.00  0.00    +0.000 HD
ENDBRANCH  19  20
ENDBRANCH   3  19
TORSDOF 4
ENDMDL
MODEL 8
REMARK VINA RESULT:      -6.4      3.252      5.615
REMARK  Name = 
REMARK  4 active torsions:
REMARK  status: ('A' for Active; 'I' for Inactive)
REMARK    1  A    between atoms: N_5  and  C_6
REMARK    2  A    between atoms: C_8  and  C_9
REMARK    3  A    between atoms: C_9  and  O_10
REMARK    4  A    between atoms: C_13  and  O_14
REMARK                            x       y       z     vdW  Elec       q    Type
REMARK                         _______ _______ _______ _____ _____    ______ ____
ROOT
ATOM      1  C   UNL     1       5.034   4.424  18.184  0.00  0.00    +0.000 C 
ATOM      2  O   UNL     1       4.799   4.729  16.792  0.00  0.00    +0.000 OA
ATOM      3  C   UNL     1       5.842   5.643  16.384  0.00  0.00    +0.000 C 
ATOM      4  C   UNL     1       6.077   6.525  17.603  0.00  0.00    +0.000 C 
ATOM      5 BR   UNL     1       7.839   7.309  17.717  0.00  0.00    +0.000 Br
ATOM      6  C   UNL     1       5.664   5.686  18.811  0.00  0.00    +0.000 C 
ENDROOT
BRANCH   1  11
ATOM      7  N   UNL     1       0.196   2.656  20.129  0.00  0.00    +0.000 N 
ATOM      8  C   UNL     1       1.424   3.093  19.718  0.00  0.00    +0.000 A 
ATOM      9  C   UNL     1       1.909   4.419  20.151  0.00  0.00    +0.000 A 
ATOM     10  C   UNL     1       3.087   4.793  19.660  0.00  0.00    +0.000 A 
ATOM     11  N   UNL     1       3.794   3.979  18.802  0.00  0.00    +0.000 N 
ATOM     12  C   UNL     1       3.332   2.700  18.471  0.00  0.00    +0.000 A 
ATOM     13  O   UNL     1       3.984   1.958  17.738  0.00  0.00    +0.000 OA
ATOM     14  N   UNL     1       2.111   2.301  18.958  0.00  0.00    +0.000 NA
ATOM     15  H   UNL     1      -0.167   2.996  21.009  0.00  0.00    +0.000 HD
ATOM     16  H   UNL     1       0.061   1.661  19.980  0.00  0.00    +0.000 HD
ENDBRANCH   1  11
BRANCH   6  17
ATOM     17  O   UNL     1       6.717   5.369  19.717  0.00  0.00    +0.000 OA
ATOM     18  H   UNL     1       6.346   4.978  20.528  0.00  0.00    +0.000 HD
ENDBRANCH   6  17
BRANCH   3  19
ATOM     19  C   UNL     1       7.015   4.798  15.867  0.00  0.00    +0.000 C 
BRANCH  19  20
ATOM     20  O   UNL     1       7.540   5.396  14.679  0.00  0.00    +0.000 OA
ATOM     21  H   UNL     1       7.606   4.686  14.013  0.00  0.00    +0.000 HD
ENDBRANCH  19  20
ENDBRANCH   3  19
TORSDOF 4
ENDMDL
MODEL 9
REMARK VINA RESULT:      -6.4      1.707      1.899
REMARK  Name = 
REMARK  4 active torsions:
REMARK  status: ('A' for Active; 'I' for Inactive)
REMARK    1  A    between atoms: N_5  and  C_6
REMARK    2  A    between atoms: C_8  and  C_9
REMARK    3  A    between atoms: C_9  and  O_10
REMARK    4  A    between atoms: C_13  and  O_14
REMARK                            x       y       z     vdW  Elec       q    Type
REMARK                         _______ _______ _______ _____ _____    ______ ____
ROOT
ATOM      1  C   UNL     1       4.267   4.383  17.424  0.00  0.00    +0.000 C 
ATOM      2  O   UNL     1       3.284   3.467  16.893  0.00  0.00    +0.000 OA
ATOM      3  C   UNL     1       2.594   2.893  18.027  0.00  0.00    +0.000 C 
ATOM      4  C   UNL     1       3.671   2.741  19.092  0.00  0.00    +0.000 C 
ATOM      5 BR   UNL     1       3.025   2.744  20.913  0.00  0.00    +0.000 Br
ATOM      6  C   UNL     1       4.723   3.803  18.779  0.00  0.00    +0.000 C 
ENDROOT
BRANCH   1  11
ATOM      7  N   UNL     1       8.131   5.529  13.673  0.00  0.00    +0.000 N 
ATOM      8  C   UNL     1       7.211   5.181  14.621  0.00  0.00    +0.000 A 
ATOM      9  C   UNL     1       6.393   3.966  14.434  0.00  0.00    +0.000 A 
ATOM     10  C   UNL     1       5.482   3.730  15.374  0.00  0.00    +0.000 A 
ATOM     11  N   UNL     1       5.327   4.581  16.447  0.00  0.00    +0.000 N 
ATOM     12  C   UNL     1       6.169   5.686  16.624  0.00  0.00    +0.000 A 
ATOM     13  O   UNL     1       6.057   6.420  17.603  0.00  0.00    +0.000 OA
ATOM     14  N   UNL     1       7.108   5.952  15.657  0.00  0.00    +0.000 NA
ATOM     15  H   UNL     1       8.546   4.797  13.111  0.00  0.00    +0.000 HD
ATOM     16  H   UNL     1       8.792   6.227  14.001  0.00  0.00    +0.000 HD
ENDBRANCH   1  11
BRANCH   6  17
ATOM     17  O   UNL     1       4.880   4.812  19.772  0.00  0.00    +0.000 OA
ATOM     18  H   UNL     1       4.527   5.657  19.441  0.00  0.00    +0.000 HD
ENDBRANCH   6  17
BRANCH   3  19
ATOM     19  C   UNL     1       1.393   3.799  18.338  0.00  0.00    +0.000 C 
BRANCH  19  20
ATOM     20  O   UNL     1       0.831   4.274  17.113  0.00  0.00    +0.000 OA
ATOM     21  H   UNL     1       1.278   3.790  16.392  0.00  0.00    +0.000 HD
ENDBRANCH  19  20
ENDBRANCH   3  19
TORSDOF 4
ENDMDL
