MODEL 1
REMARK VINA RESULT:      -8.1      0.000      0.000
REMARK  Name = 
REMARK  8 active torsions:
REMARK  status: ('A' for Active; 'I' for Inactive)
REMARK    1  A    between atoms: C_1  and  C_2
REMARK    2  A    between atoms: C_4  and  C_5
REMARK    3  A    between atoms: C_7  and  C_8
REMARK    4  A    between atoms: C_11  and  C_12
REMARK    5  A    between atoms: N_15  and  C_16
REMARK    6  A    between atoms: C_20  and  N_21
REMARK    7  A    between atoms: C_23  and  C_24
REMARK    8  A    between atoms: C_26  and  C_27
REMARK                            x       y       z     vdW  Elec       q    Type
REMARK                         _______ _______ _______ _____ _____    ______ ____
ROOT
ATOM      1  C   UNL     1       3.641   1.150  18.587  0.00  0.00    +0.000 C 
ATOM      2  C   UNL     1       3.762   2.587  18.195  0.00  0.00    +0.000 A 
ATOM      3  N   UNL     1       2.920   3.465  18.752  0.00  0.00    +0.000 NA
ATOM      4  C   UNL     1       3.011   4.764  18.390  0.00  0.00    +0.000 A 
ATOM      5  C   UNL     1       3.978   5.192  17.499  0.00  0.00    +0.000 A 
ATOM      6  C   UNL     1       4.776   4.213  16.935  0.00  0.00    +0.000 A 
ATOM      7  N   UNL     1       4.678   2.909  17.277  0.00  0.00    +0.000 NA
ENDROOT
BRANCH   6   8
ATOM      8  N   UNL     1       5.709   4.570  15.918  0.00  0.00    +0.000 N 
ATOM      9  N   UNL     1       5.659   4.045  14.662  0.00  0.00    +0.000 NA
ATOM     10  C   UNL     1       6.675   4.668  14.052  0.00  0.00    +0.000 A 
ATOM     11  C   UNL     1       7.030   4.457  12.633  0.00  0.00    +0.000 C 
ATOM     12  N   UNL     1       7.394   5.513  14.845  0.00  0.00    +0.000 NA
ATOM     13  C   UNL     1       6.793   5.430  16.015  0.00  0.00    +0.000 A 
ATOM     14  C   UNL     1       7.244   6.096  17.260  0.00  0.00    +0.000 C 
ENDBRANCH   6   8
BRANCH   4  15
ATOM     15  C   UNL     1       1.957   5.686  18.946  0.00  0.00    +0.000 C 
ATOM     16  C   UNL     1       1.741   5.896  20.413  0.00  0.00    +0.000 C 
ATOM     17  C   UNL     1       2.508   6.940  19.641  0.00  0.00    +0.000 C 
BRANCH  17  18
ATOM     18  C   UNL     1       1.871   8.266  19.258  0.00  0.00    +0.000 A 
ATOM     19  N   UNL     1       2.021   8.819  18.076  0.00  0.00    +0.000 NA
ATOM     20  N   UNL     1       1.376  10.039  18.000  0.00  0.00    +0.000 NA
ATOM     21  C   UNL     1       0.779  10.362  19.134  0.00  0.00    +0.000 A 
ATOM     22  S   UNL     1       0.935   9.176  20.366  0.00  0.00    +0.000 S 
BRANCH  21  23
ATOM     23  C   UNL     1       0.042  11.658  19.310  0.00  0.00    +0.000 A 
ATOM     24  C   UNL     1       0.520  12.918  18.877  0.00  0.00    +0.000 A 
ATOM     25  C   UNL     1      -0.449  13.818  19.250  0.00  0.00    +0.000 A 
ATOM     26  N   UNL     1      -1.412  13.089  19.881  0.00  0.00    +0.000 N 
ATOM     27  C   UNL     1      -2.601  13.597  20.521  0.00  0.00    +0.000 C 
ATOM     28  N   UNL     1      -1.153  11.769  19.912  0.00  0.00    +0.000 NA
ENDBRANCH  21  23
ENDBRANCH  17  18
ENDBRANCH   4  15
TORSDOF 4
ENDMDL
MODEL 2
REMARK VINA RESULT:      -8.1      2.199      2.858
REMARK  Name = 
REMARK  8 active torsions:
REMARK  status: ('A' for Active; 'I' for Inactive)
REMARK    1  A    between atoms: C_1  and  C_2
REMARK    2  A    between atoms: C_4  and  C_5
REMARK    3  A    between atoms: C_7  and  C_8
REMARK    4  A    between atoms: C_11  and  C_12
REMARK    5  A    between atoms: N_15  and  C_16
REMARK    6  A    between atoms: C_20  and  N_21
REMARK    7  A    between atoms: C_23  and  C_24
REMARK    8  A    between atoms: C_26  and  C_27
REMARK                            x       y       z     vdW  Elec       q    Type
REMARK                         _______ _______ _______ _____ _____    ______ ____
ROOT
ATOM      1  C   UNL     1       1.762   3.768  19.172  0.00  0.00    +0.000 C 
ATOM      2  C   UNL     1       2.589   4.870  18.594  0.00  0.00    +0.000 A 
ATOM      3  N   UNL     1       2.238   6.131  18.869  0.00  0.00    +0.000 NA
ATOM      4  C   UNL     1       2.970   7.134  18.335  0.00  0.00    +0.000 A 
ATOM      5  C   UNL     1       4.085   6.872  17.559  0.00  0.00    +0.000 A 
ATOM      6  C   UNL     1       4.349   5.542  17.285  0.00  0.00    +0.000 A 
ATOM      7  N   UNL     1       3.608   4.533  17.799  0.00  0.00    +0.000 NA
ENDROOT
BRANCH   6   8
ATOM      8  N   UNL     1       5.407   5.207  16.392  0.00  0.00    +0.000 N 
ATOM      9  N   UNL     1       5.182   4.793  15.113  0.00  0.00    +0.000 NA
ATOM     10  C   UNL     1       6.426   4.626  14.646  0.00  0.00    +0.000 A 
ATOM     11  C   UNL     1       6.728   4.199  13.263  0.00  0.00    +0.000 C 
ATOM     12  N   UNL     1       7.420   4.858  15.550  0.00  0.00    +0.000 NA
ATOM     13  C   UNL     1       6.771   5.203  16.644  0.00  0.00    +0.000 A 
ATOM     14  C   UNL     1       7.395   5.475  17.961  0.00  0.00    +0.000 C 
ENDBRANCH   6   8
BRANCH   4  15
ATOM     15  C   UNL     1       2.456   8.532  18.568  0.00  0.00    +0.000 C 
ATOM     16  C   UNL     1       1.449   9.194  17.681  0.00  0.00    +0.000 C 
ATOM     17  C   UNL     1       0.981   8.608  18.989  0.00  0.00    +0.000 C 
BRANCH  17  18
ATOM     18  C   UNL     1       0.657   9.492  20.181  0.00  0.00    +0.000 A 
ATOM     19  N   UNL     1       1.141   9.281  21.384  0.00  0.00    +0.000 NA
ATOM     20  N   UNL     1       0.659  10.202  22.295  0.00  0.00    +0.000 NA
ATOM     21  C   UNL     1      -0.180  11.062  21.744  0.00  0.00    +0.000 A 
ATOM     22  S   UNL     1      -0.412  10.825  20.058  0.00  0.00    +0.000 S 
BRANCH  21  23
ATOM     23  C   UNL     1      -0.863  12.136  22.538  0.00  0.00    +0.000 A 
ATOM     24  C   UNL     1      -2.205  12.075  22.982  0.00  0.00    +0.000 A 
ATOM     25  C   UNL     1      -2.419  13.259  23.646  0.00  0.00    +0.000 A 
ATOM     26  N   UNL     1      -1.250  13.953  23.557  0.00  0.00    +0.000 N 
ATOM     27  C   UNL     1      -1.000  15.291  24.036  0.00  0.00    +0.000 C 
ATOM     28  N   UNL     1      -0.277  13.286  22.908  0.00  0.00    +0.000 NA
ENDBRANCH  21  23
ENDBRANCH  17  18
ENDBRANCH   4  15
TORSDOF 4
ENDMDL
MODEL 3
REMARK VINA RESULT:      -8.0      1.054      1.238
REMARK  Name = 
REMARK  8 active torsions:
REMARK  status: ('A' for Active; 'I' for Inactive)
REMARK    1  A    between atoms: C_1  and  C_2
REMARK    2  A    between atoms: C_4  and  C_5
REMARK    3  A    between atoms: C_7  and  C_8
REMARK    4  A    between atoms: C_11  and  C_12
REMARK    5  A    between atoms: N_15  and  C_16
REMARK    6  A    between atoms: C_20  and  N_21
REMARK    7  A    between atoms: C_23  and  C_24
REMARK    8  A    between atoms: C_26  and  C_27
REMARK                            x       y       z     vdW  Elec       q    Type
REMARK                         _______ _______ _______ _____ _____    ______ ____
ROOT
ATOM      1  C   UNL     1       4.689   2.014  20.417  0.00  0.00    +0.000 C 
ATOM      2  C   UNL     1       4.444   3.218  19.567  0.00  0.00    +0.000 A 
ATOM      3  N   UNL     1       3.416   4.014  19.883  0.00  0.00    +0.000 NA
ATOM      4  C   UNL     1       3.177   5.095  19.108  0.00  0.00    +0.000 A 
ATOM      5  C   UNL     1       3.997   5.405  18.039  0.00  0.00    +0.000 A 
ATOM      6  C   UNL     1       5.008   4.505  17.753  0.00  0.00    +0.000 A 
ATOM      7  N   UNL     1       5.241   3.409  18.511  0.00  0.00    +0.000 NA
ENDROOT
BRANCH   6   8
ATOM      8  N   UNL     1       5.811   4.698  16.592  0.00  0.00    +0.000 N 
ATOM      9  N   UNL     1       5.643   3.966  15.455  0.00  0.00    +0.000 NA
ATOM     10  C   UNL     1       6.565   4.493  14.639  0.00  0.00    +0.000 A 
ATOM     11  C   UNL     1       6.769   4.049  13.244  0.00  0.00    +0.000 C 
ATOM     12  N   UNL     1       7.336   5.472  15.193  0.00  0.00    +0.000 NA
ATOM     13  C   UNL     1       6.868   5.579  16.421  0.00  0.00    +0.000 A 
ATOM     14  C   UNL     1       7.429   6.454  17.478  0.00  0.00    +0.000 C 
ENDBRANCH   6   8
BRANCH   4  15
ATOM     15  C   UNL     1       1.933   5.883  19.429  0.00  0.00    +0.000 C 
ATOM     16  C   UNL     1       1.314   5.921  20.792  0.00  0.00    +0.000 C 
ATOM     17  C   UNL     1       2.160   7.089  20.352  0.00  0.00    +0.000 C 
BRANCH  17  18
ATOM     18  C   UNL     1       1.531   8.404  19.923  0.00  0.00    +0.000 A 
ATOM     19  N   UNL     1       1.758   8.961  18.755  0.00  0.00    +0.000 NA
ATOM     20  N   UNL     1       1.099  10.169  18.632  0.00  0.00    +0.000 NA
ATOM     21  C   UNL     1       0.414  10.481  19.717  0.00  0.00    +0.000 A 
ATOM     22  S   UNL     1       0.499   9.296  20.958  0.00  0.00    +0.000 S 
BRANCH  21  23
ATOM     23  C   UNL     1      -0.356  11.764  19.838  0.00  0.00    +0.000 A 
ATOM     24  C   UNL     1      -1.766  11.848  19.929  0.00  0.00    +0.000 A 
ATOM     25  C   UNL     1      -2.042  13.192  20.006  0.00  0.00    +0.000 A 
ATOM     26  N   UNL     1      -0.837  13.825  19.939  0.00  0.00    +0.000 N 
ATOM     27  C   UNL     1      -0.609  15.249  19.904  0.00  0.00    +0.000 C 
ATOM     28  N   UNL     1       0.210  12.982  19.860  0.00  0.00    +0.000 NA
ENDBRANCH  21  23
ENDBRANCH  17  18
ENDBRANCH   4  15
TORSDOF 4
ENDMDL
MODEL 4
REMARK VINA RESULT:      -8.0      1.419      1.429
REMARK  Name = 
REMARK  8 active torsions:
REMARK  status: ('A' for Active; 'I' for Inactive)
REMARK    1  A    between atoms: C_1  and  C_2
REMARK    2  A    between atoms: C_4  and  C_5
REMARK    3  A    between atoms: C_7  and  C_8
REMARK    4  A    between atoms: C_11  and  C_12
REMARK    5  A    between atoms: N_15  and  C_16
REMARK    6  A    between atoms: C_20  and  N_21
REMARK    7  A    between atoms: C_23  and  C_24
REMARK    8  A    between atoms: C_26  and  C_27
REMARK                            x       y       z     vdW  Elec       q    Type
REMARK                         _______ _______ _______ _____ _____    ______ ____
ROOT
ATOM      1  C   UNL     1       4.730   1.981  20.445  0.00  0.00    +0.000 C 
ATOM      2  C   UNL     1       4.461   3.173  19.584  0.00  0.00    +0.000 A 
ATOM      3  N   UNL     1       3.417   3.951  19.894  0.00  0.00    +0.000 NA
ATOM      4  C   UNL     1       3.157   5.020  19.110  0.00  0.00    +0.000 A 
ATOM      5  C   UNL     1       3.971   5.337  18.038  0.00  0.00    +0.000 A 
ATOM      6  C   UNL     1       4.999   4.455  17.760  0.00  0.00    +0.000 A 
ATOM      7  N   UNL     1       5.254   3.371  18.527  0.00  0.00    +0.000 NA
ENDROOT
BRANCH   6   8
ATOM      8  N   UNL     1       5.798   4.654  16.597  0.00  0.00    +0.000 N 
ATOM      9  N   UNL     1       5.645   3.910  15.466  0.00  0.00    +0.000 NA
ATOM     10  C   UNL     1       6.556   4.448  14.646  0.00  0.00    +0.000 A 
ATOM     11  C   UNL     1       6.769   3.996  13.254  0.00  0.00    +0.000 C 
ATOM     12  N   UNL     1       7.307   5.447  15.191  0.00  0.00    +0.000 NA
ATOM     13  C   UNL     1       6.837   5.555  16.418  0.00  0.00    +0.000 A 
ATOM     14  C   UNL     1       7.381   6.450  17.467  0.00  0.00    +0.000 C 
ENDBRANCH   6   8
BRANCH   4  15
ATOM     15  C   UNL     1       1.897   5.786  19.424  0.00  0.00    +0.000 C 
ATOM     16  C   UNL     1       1.080   5.551  20.657  0.00  0.00    +0.000 C 
ATOM     17  C   UNL     1       2.010   6.737  20.624  0.00  0.00    +0.000 C 
BRANCH  17  18
ATOM     18  C   UNL     1       1.484   8.149  20.426  0.00  0.00    +0.000 A 
ATOM     19  N   UNL     1       1.579   8.798  19.288  0.00  0.00    +0.000 NA
ATOM     20  N   UNL     1       1.062  10.076  19.386  0.00  0.00    +0.000 NA
ATOM     21  C   UNL     1       0.611  10.343  20.598  0.00  0.00    +0.000 A 
ATOM     22  S   UNL     1       0.756   9.033  21.700  0.00  0.00    +0.000 S 
BRANCH  21  23
ATOM     23  C   UNL     1       0.035  11.681  20.962  0.00  0.00    +0.000 A 
ATOM     24  C   UNL     1      -0.309  12.687  20.028  0.00  0.00    +0.000 A 
ATOM     25  C   UNL     1      -0.777  13.735  20.783  0.00  0.00    +0.000 A 
ATOM     26  N   UNL     1      -0.677  13.333  22.082  0.00  0.00    +0.000 N 
ATOM     27  C   UNL     1      -0.975  14.116  23.255  0.00  0.00    +0.000 C 
ATOM     28  N   UNL     1      -0.208  12.078  22.221  0.00  0.00    +0.000 NA
ENDBRANCH  21  23
ENDBRANCH  17  18
ENDBRANCH   4  15
TORSDOF 4
ENDMDL
MODEL 5
REMARK VINA RESULT:      -7.9      2.122      2.687
REMARK  Name = 
REMARK  8 active torsions:
REMARK  status: ('A' for Active; 'I' for Inactive)
REMARK    1  A    between atoms: C_1  and  C_2
REMARK    2  A    between atoms: C_4  and  C_5
REMARK    3  A    between atoms: C_7  and  C_8
REMARK    4  A    between atoms: C_11  and  C_12
REMARK    5  A    between atoms: N_15  and  C_16
REMARK    6  A    between atoms: C_20  and  N_21
REMARK    7  A    between atoms: C_23  and  C_24
REMARK    8  A    between atoms: C_26  and  C_27
REMARK                            x       y       z     vdW  Elec       q    Type
REMARK                         _______ _______ _______ _____ _____    ______ ____
ROOT
ATOM      1  C   UNL     1       1.439   3.733  18.621  0.00  0.00    +0.000 C 
ATOM      2  C   UNL     1       2.409   4.801  18.229  0.00  0.00    +0.000 A 
ATOM      3  N   UNL     1       2.168   6.051  18.640  0.00  0.00    +0.000 NA
ATOM      4  C   UNL     1       3.030   7.026  18.275  0.00  0.00    +0.000 A 
ATOM      5  C   UNL     1       4.160   6.740  17.532  0.00  0.00    +0.000 A 
ATOM      6  C   UNL     1       4.308   5.431  17.108  0.00  0.00    +0.000 A 
ATOM      7  N   UNL     1       3.439   4.454  17.452  0.00  0.00    +0.000 NA
ENDROOT
BRANCH   6   8
ATOM      8  N   UNL     1       5.383   5.094  16.237  0.00  0.00    +0.000 N 
ATOM      9  N   UNL     1       5.186   4.722  14.940  0.00  0.00    +0.000 NA
ATOM     10  C   UNL     1       6.438   4.535  14.505  0.00  0.00    +0.000 A 
ATOM     11  C   UNL     1       6.771   4.140  13.120  0.00  0.00    +0.000 C 
ATOM     12  N   UNL     1       7.411   4.714  15.444  0.00  0.00    +0.000 NA
ATOM     13  C   UNL     1       6.738   5.044  16.529  0.00  0.00    +0.000 A 
ATOM     14  C   UNL     1       7.329   5.262  17.871  0.00  0.00    +0.000 C 
ENDBRANCH   6   8
BRANCH   4  15
ATOM     15  C   UNL     1       2.644   8.433  18.653  0.00  0.00    +0.000 C 
ATOM     16  C   UNL     1       2.051   9.409  17.686  0.00  0.00    +0.000 C 
ATOM     17  C   UNL     1       1.132   8.703  18.650  0.00  0.00    +0.000 C 
BRANCH  17  18
ATOM     18  C   UNL     1       0.564   9.415  19.867  0.00  0.00    +0.000 A 
ATOM     19  N   UNL     1       0.412   8.831  21.034  0.00  0.00    +0.000 NA
ATOM     20  N   UNL     1      -0.162   9.683  21.958  0.00  0.00    +0.000 NA
ATOM     21  C   UNL     1      -0.432  10.871  21.445  0.00  0.00    +0.000 A 
ATOM     22  S   UNL     1       0.031  11.041  19.800  0.00  0.00    +0.000 S 
BRANCH  21  23
ATOM     23  C   UNL     1      -1.092  11.957  22.244  0.00  0.00    +0.000 A 
ATOM     24  C   UNL     1      -0.535  13.238  22.470  0.00  0.00    +0.000 A 
ATOM     25  C   UNL     1      -1.452  13.897  23.253  0.00  0.00    +0.000 A 
ATOM     26  N   UNL     1      -2.464  13.010  23.468  0.00  0.00    +0.000 N 
ATOM     27  C   UNL     1      -3.627  13.209  24.298  0.00  0.00    +0.000 C 
ATOM     28  N   UNL     1      -2.284  11.828  22.848  0.00  0.00    +0.000 NA
ENDBRANCH  21  23
ENDBRANCH  17  18
ENDBRANCH   4  15
TORSDOF 4
ENDMDL
MODEL 6
REMARK VINA RESULT:      -7.6      2.413      3.415
REMARK  Name = 
REMARK  8 active torsions:
REMARK  status: ('A' for Active; 'I' for Inactive)
REMARK    1  A    between atoms: C_1  and  C_2
REMARK    2  A    between atoms: C_4  and  C_5
REMARK    3  A    between atoms: C_7  and  C_8
REMARK    4  A    between atoms: C_11  and  C_12
REMARK    5  A    between atoms: N_15  and  C_16
REMARK    6  A    between atoms: C_20  and  N_21
REMARK    7  A    between atoms: C_23  and  C_24
REMARK    8  A    between atoms: C_26  and  C_27
REMARK                            x       y       z     vdW  Elec       q    Type
REMARK                         _______ _______ _______ _____ _____    ______ ____
ROOT
ATOM      1  C   UNL     1       2.311   5.306  20.663  0.00  0.00    +0.000 C 
ATOM      2  C   UNL     1       2.806   6.106  19.502  0.00  0.00    +0.000 A 
ATOM      3  N   UNL     1       2.160   7.237  19.195  0.00  0.00    +0.000 NA
ATOM      4  C   UNL     1       2.591   7.957  18.136  0.00  0.00    +0.000 A 
ATOM      5  C   UNL     1       3.700   7.566  17.408  0.00  0.00    +0.000 A 
ATOM      6  C   UNL     1       4.279   6.361  17.762  0.00  0.00    +0.000 A 
ATOM      7  N   UNL     1       3.841   5.624  18.808  0.00  0.00    +0.000 NA
ENDROOT
BRANCH   6   8
ATOM      8  N   UNL     1       5.348   5.839  16.977  0.00  0.00    +0.000 N 
ATOM      9  N   UNL     1       5.159   5.343  15.722  0.00  0.00    +0.000 NA
ATOM     10  C   UNL     1       6.402   5.004  15.360  0.00  0.00    +0.000 A 
ATOM     11  C   UNL     1       6.741   4.430  14.041  0.00  0.00    +0.000 C 
ATOM     12  N   UNL     1       7.357   5.204  16.313  0.00  0.00    +0.000 NA
ATOM     13  C   UNL     1       6.683   5.710  17.327  0.00  0.00    +0.000 A 
ATOM     14  C   UNL     1       7.249   6.026  18.660  0.00  0.00    +0.000 C 
ENDBRANCH   6   8
BRANCH   4  15
ATOM     15  C   UNL     1       1.751   9.149  17.755  0.00  0.00    +0.000 C 
ATOM     16  C   UNL     1       0.316   9.303  18.152  0.00  0.00    +0.000 C 
ATOM     17  C   UNL     1       1.363  10.059  18.930  0.00  0.00    +0.000 C 
BRANCH  17  18
ATOM     18  C   UNL     1       1.570  11.552  18.733  0.00  0.00    +0.000 A 
ATOM     19  N   UNL     1       2.596  12.055  18.085  0.00  0.00    +0.000 NA
ATOM     20  N   UNL     1       2.569  13.437  18.086  0.00  0.00    +0.000 NA
ATOM     21  C   UNL     1       1.531  13.919  18.747  0.00  0.00    +0.000 A 
ATOM     22  S   UNL     1       0.492  12.711  19.387  0.00  0.00    +0.000 S 
BRANCH  21  23
ATOM     23  C   UNL     1       1.304  15.393  18.917  0.00  0.00    +0.000 A 
ATOM     24  C   UNL     1       2.282  16.307  19.376  0.00  0.00    +0.000 A 
ATOM     25  C   UNL     1       1.652  17.528  19.397  0.00  0.00    +0.000 A 
ATOM     26  N   UNL     1       0.374  17.295  18.986  0.00  0.00    +0.000 N 
ATOM     27  C   UNL     1      -0.701  18.255  18.914  0.00  0.00    +0.000 C 
ATOM     28  N   UNL     1       0.138  16.009  18.665  0.00  0.00    +0.000 NA
ENDBRANCH  21  23
ENDBRANCH  17  18
ENDBRANCH   4  15
TORSDOF 4
ENDMDL
MODEL 7
REMARK VINA RESULT:      -7.6      2.510      3.551
REMARK  Name = 
REMARK  8 active torsions:
REMARK  status: ('A' for Active; 'I' for Inactive)
REMARK    1  A    between atoms: C_1  and  C_2
REMARK    2  A    between atoms: C_4  and  C_5
REMARK    3  A    between atoms: C_7  and  C_8
REMARK    4  A    between atoms: C_11  and  C_12
REMARK    5  A    between atoms: N_15  and  C_16
REMARK    6  A    between atoms: C_20  and  N_21
REMARK    7  A    between atoms: C_23  and  C_24
REMARK    8  A    between atoms: C_26  and  C_27
REMARK                            x       y       z     vdW  Elec       q    Type
REMARK                         _______ _______ _______ _____ _____    ______ ____
ROOT
ATOM      1  C   UNL     1       2.445   5.173  20.428  0.00  0.00    +0.000 C 
ATOM      2  C   UNL     1       2.919   6.057  19.319  0.00  0.00    +0.000 A 
ATOM      3  N   UNL     1       2.291   7.224  19.132  0.00  0.00    +0.000 NA
ATOM      4  C   UNL     1       2.702   8.020  18.121  0.00  0.00    +0.000 A 
ATOM      5  C   UNL     1       3.775   7.667  17.322  0.00  0.00    +0.000 A 
ATOM      6  C   UNL     1       4.335   6.424  17.554  0.00  0.00    +0.000 A 
ATOM      7  N   UNL     1       3.916   5.612  18.550  0.00  0.00    +0.000 NA
ENDROOT
BRANCH   6   8
ATOM      8  N   UNL     1       5.361   5.946  16.688  0.00  0.00    +0.000 N 
ATOM      9  N   UNL     1       5.106   5.113  15.640  0.00  0.00    +0.000 NA
ATOM     10  C   UNL     1       6.321   4.953  15.101  0.00  0.00    +0.000 A 
ATOM     11  C   UNL     1       6.579   4.138  13.895  0.00  0.00    +0.000 C 
ATOM     12  N   UNL     1       7.334   5.586  15.760  0.00  0.00    +0.000 NA
ATOM     13  C   UNL     1       6.725   6.188  16.762  0.00  0.00    +0.000 A 
ATOM     14  C   UNL     1       7.398   6.949  17.841  0.00  0.00    +0.000 C 
ENDBRANCH   6   8
BRANCH   4  15
ATOM     15  C   UNL     1       1.880   9.259  17.872  0.00  0.00    +0.000 C 
ATOM     16  C   UNL     1       0.383   9.263  17.871  0.00  0.00    +0.000 C 
ATOM     17  C   UNL     1       1.104   9.767  19.095  0.00  0.00    +0.000 C 
BRANCH  17  18
ATOM     18  C   UNL     1       1.206  11.253  19.398  0.00  0.00    +0.000 A 
ATOM     19  N   UNL     1       0.550  11.832  20.378  0.00  0.00    +0.000 NA
ATOM     20  N   UNL     1       0.784  13.194  20.411  0.00  0.00    +0.000 NA
ATOM     21  C   UNL     1       1.597  13.587  19.446  0.00  0.00    +0.000 A 
ATOM     22  S   UNL     1       2.161  12.309  18.447  0.00  0.00    +0.000 S 
BRANCH  21  23
ATOM     23  C   UNL     1       1.974  15.027  19.253  0.00  0.00    +0.000 A 
ATOM     24  C   UNL     1       2.774  15.512  18.192  0.00  0.00    +0.000 A 
ATOM     25  C   UNL     1       2.880  16.865  18.409  0.00  0.00    +0.000 A 
ATOM     26  N   UNL     1       2.183  17.114  19.553  0.00  0.00    +0.000 N 
ATOM     27  C   UNL     1       2.064  18.380  20.235  0.00  0.00    +0.000 C 
ATOM     28  N   UNL     1       1.601  16.019  20.078  0.00  0.00    +0.000 NA
ENDBRANCH  21  23
ENDBRANCH  17  18
ENDBRANCH   4  15
TORSDOF 4
ENDMDL
MODEL 8
REMARK VINA RESULT:      -7.5      2.065      2.957
REMARK  Name = 
REMARK  8 active torsions:
REMARK  status: ('A' for Active; 'I' for Inactive)
REMARK    1  A    between atoms: C_1  and  C_2
REMARK    2  A    between atoms: C_4  and  C_5
REMARK    3  A    between atoms: C_7  and  C_8
REMARK    4  A    between atoms: C_11  and  C_12
REMARK    5  A    between atoms: N_15  and  C_16
REMARK    6  A    between atoms: C_20  and  N_21
REMARK    7  A    between atoms: C_23  and  C_24
REMARK    8  A    between atoms: C_26  and  C_27
REMARK                            x       y       z     vdW  Elec       q    Type
REMARK                         _______ _______ _______ _____ _____    ______ ____
ROOT
ATOM      1  C   UNL     1       1.514   4.250  20.204  0.00  0.00    +0.000 C 
ATOM      2  C   UNL     1       2.291   5.275  19.442  0.00  0.00    +0.000 A 
ATOM      3  N   UNL     1       1.899   6.551  19.525  0.00  0.00    +0.000 NA
ATOM      4  C   UNL     1       2.585   7.482  18.825  0.00  0.00    +0.000 A 
ATOM      5  C   UNL     1       3.695   7.139  18.075  0.00  0.00    +0.000 A 
ATOM      6  C   UNL     1       4.003   5.792  18.007  0.00  0.00    +0.000 A 
ATOM      7  N   UNL     1       3.309   4.852  18.687  0.00  0.00    +0.000 NA
ENDROOT
BRANCH   6   8
ATOM      8  N   UNL     1       5.058   5.357  17.153  0.00  0.00    +0.000 N 
ATOM      9  N   UNL     1       4.829   4.822  15.921  0.00  0.00    +0.000 NA
ATOM     10  C   UNL     1       6.071   4.593  15.475  0.00  0.00    +0.000 A 
ATOM     11  C   UNL     1       6.369   4.029  14.142  0.00  0.00    +0.000 C 
ATOM     12  N   UNL     1       7.067   4.900  16.355  0.00  0.00    +0.000 NA
ATOM     13  C   UNL     1       6.421   5.360  17.408  0.00  0.00    +0.000 A 
ATOM     14  C   UNL     1       7.047   5.753  18.693  0.00  0.00    +0.000 C 
ENDBRANCH   6   8
BRANCH   4  15
ATOM     15  C   UNL     1       2.024   8.881  18.849  0.00  0.00    +0.000 C 
ATOM     16  C   UNL     1       2.396   9.931  17.849  0.00  0.00    +0.000 C 
ATOM     17  C   UNL     1       1.082   9.211  17.681  0.00  0.00    +0.000 C 
BRANCH  17  18
ATOM     18  C   UNL     1      -0.237   9.877  18.036  0.00  0.00    +0.000 A 
ATOM     19  N   UNL     1      -1.358   9.636  17.397  0.00  0.00    +0.000 NA
ATOM     20  N   UNL     1      -2.399  10.401  17.888  0.00  0.00    +0.000 NA
ATOM     21  C   UNL     1      -2.016  11.198  18.870  0.00  0.00    +0.000 A 
ATOM     22  S   UNL     1      -0.356  11.043  19.285  0.00  0.00    +0.000 S 
BRANCH  21  23
ATOM     23  C   UNL     1      -2.960  12.152  19.542  0.00  0.00    +0.000 A 
ATOM     24  C   UNL     1      -2.585  13.082  20.540  0.00  0.00    +0.000 A 
ATOM     25  C   UNL     1      -3.747  13.731  20.883  0.00  0.00    +0.000 A 
ATOM     26  N   UNL     1      -4.726  13.169  20.120  0.00  0.00    +0.000 N 
ATOM     27  C   UNL     1      -6.138  13.460  20.173  0.00  0.00    +0.000 C 
ATOM     28  N   UNL     1      -4.274  12.221  19.277  0.00  0.00    +0.000 NA
ENDBRANCH  21  23
ENDBRANCH  17  18
ENDBRANCH   4  15
TORSDOF 4
ENDMDL
MODEL 9
REMARK VINA RESULT:      -7.5      1.974      2.767
REMARK  Name = 
REMARK  8 active torsions:
REMARK  status: ('A' for Active; 'I' for Inactive)
REMARK    1  A    between atoms: C_1  and  C_2
REMARK    2  A    between atoms: C_4  and  C_5
REMARK    3  A    between atoms: C_7  and  C_8
REMARK    4  A    between atoms: C_11  and  C_12
REMARK    5  A    between atoms: N_15  and  C_16
REMARK    6  A    between atoms: C_20  and  N_21
REMARK    7  A    between atoms: C_23  and  C_24
REMARK    8  A    between atoms: C_26  and  C_27
REMARK                            x       y       z     vdW  Elec       q    Type
REMARK                         _______ _______ _______ _____ _____    ______ ____
ROOT
ATOM      1  C   UNL     1       2.299   4.380  20.419  0.00  0.00    +0.000 C 
ATOM      2  C   UNL     1       2.899   5.337  19.440  0.00  0.00    +0.000 A 
ATOM      3  N   UNL     1       2.434   6.592  19.422  0.00  0.00    +0.000 NA
ATOM      4  C   UNL     1       2.958   7.460  18.528  0.00  0.00    +0.000 A 
ATOM      5  C   UNL     1       3.982   7.081  17.680  0.00  0.00    +0.000 A 
ATOM      6  C   UNL     1       4.370   5.754  17.731  0.00  0.00    +0.000 A 
ATOM      7  N   UNL     1       3.836   4.875  18.609  0.00  0.00    +0.000 NA
ENDROOT
BRANCH   6   8
ATOM      8  N   UNL     1       5.332   5.269  16.799  0.00  0.00    +0.000 N 
ATOM      9  N   UNL     1       4.982   4.741  15.593  0.00  0.00    +0.000 NA
ATOM     10  C   UNL     1       6.172   4.454  15.051  0.00  0.00    +0.000 A 
ATOM     11  C   UNL     1       6.337   3.872  13.702  0.00  0.00    +0.000 C 
ATOM     12  N   UNL     1       7.248   4.717  15.846  0.00  0.00    +0.000 NA
ATOM     13  C   UNL     1       6.710   5.209  16.945  0.00  0.00    +0.000 A 
ATOM     14  C   UNL     1       7.454   5.576  18.173  0.00  0.00    +0.000 C 
ENDBRANCH   6   8
BRANCH   4  15
ATOM     15  C   UNL     1       2.311   8.819  18.461  0.00  0.00    +0.000 C 
ATOM     16  C   UNL     1       1.187   9.147  17.527  0.00  0.00    +0.000 C 
ATOM     17  C   UNL     1       0.863   8.863  18.972  0.00  0.00    +0.000 C 
BRANCH  17  18
ATOM     18  C   UNL     1       0.517   9.983  19.940  0.00  0.00    +0.000 A 
ATOM     19  N   UNL     1       0.924  10.004  21.189  0.00  0.00    +0.000 NA
ATOM     20  N   UNL     1       0.437  11.107  21.864  0.00  0.00    +0.000 NA
ATOM     21  C   UNL     1      -0.330  11.865  21.099  0.00  0.00    +0.000 A 
ATOM     22  S   UNL     1      -0.482  11.298  19.485  0.00  0.00    +0.000 S 
BRANCH  21  23
ATOM     23  C   UNL     1      -1.005  13.101  21.617  0.00  0.00    +0.000 A 
ATOM     24  C   UNL     1      -0.868  13.598  22.935  0.00  0.00    +0.000 A 
ATOM     25  C   UNL     1      -1.659  14.721  22.982  0.00  0.00    +0.000 A 
ATOM     26  N   UNL     1      -2.226  14.829  21.747  0.00  0.00    +0.000 N 
ATOM     27  C   UNL     1      -3.197  15.807  21.323  0.00  0.00    +0.000 C 
ATOM     28  N   UNL     1      -1.829  13.871  20.887  0.00  0.00    +0.000 NA
ENDBRANCH  21  23
ENDBRANCH  17  18
ENDBRANCH   4  15
TORSDOF 4
ENDMDL
