MODEL 1
REMARK VINA RESULT:      -8.3      0.000      0.000
REMARK  Name = 
REMARK  6 active torsions:
REMARK  status: ('A' for Active; 'I' for Inactive)
REMARK    1  A    between atoms: C_1  and  C_2
REMARK    2  A    between atoms: C_2  and  C_3
REMARK    3  A    between atoms: C_2  and  C_4
REMARK    4  A    between atoms: C_2  and  C_5
REMARK    5  A    between atoms: C_10  and  C_12
REMARK    6  A    between atoms: C_16  and  C_17
REMARK                            x       y       z     vdW  Elec       q    Type
REMARK                         _______ _______ _______ _____ _____    ______ ____
ROOT
ATOM      1  C   UNL     1       2.636   7.213  18.939  0.00  0.00    +0.000 A 
ATOM      2  C   UNL     1       3.215   7.402  17.702  0.00  0.00    +0.000 A 
ATOM      3  C   UNL     1       4.018   6.308  17.255  0.00  0.00    +0.000 A 
ATOM      4  C   UNL     1       4.727   6.130  16.042  0.00  0.00    +0.000 A 
ATOM      5  C   UNL     1       5.436   4.949  15.791  0.00  0.00    +0.000 A 
ATOM      6  C   UNL     1       5.441   3.941  16.754  0.00  0.00    +0.000 A 
ATOM      7  C   UNL     1       4.758   4.097  17.970  0.00  0.00    +0.000 A 
ATOM      8  C   UNL     1       4.044   5.289  18.208  0.00  0.00    +0.000 A 
ATOM      9  S   UNL     1       3.117   5.719  19.608  0.00  0.00    +0.000 S 
ENDROOT
BRANCH   1  15
ATOM     10  C   UNL     1      -0.908  11.324  20.632  0.00  0.00    +0.000 A 
ATOM     11  C   UNL     1      -1.536  11.632  19.433  0.00  0.00    +0.000 A 
ATOM     12  S   UNL     1      -0.810  10.759  18.139  0.00  0.00    +0.000 S 
ATOM     13  C   UNL     1       0.204   9.979  19.261  0.00  0.00    +0.000 A 
ATOM     14  N   UNL     1       1.056   9.038  18.738  0.00  0.00    +0.000 N 
ATOM     15  C   UNL     1       1.719   8.156  19.569  0.00  0.00    +0.000 C 
ATOM     16  O   UNL     1       1.548   8.106  20.785  0.00  0.00    +0.000 OA
ATOM     17  N   UNL     1       0.074  10.354  20.505  0.00  0.00    +0.000 NA
ATOM     18  H   UNL     1       1.130   8.960  17.738  0.00  0.00    +0.000 HD
BRANCH  10  20
ATOM     19  C   UNL     1      -0.258  13.147  22.250  0.00  0.00    +0.000 C 
ATOM     20  C   UNL     1      -1.175  11.933  22.005  0.00  0.00    +0.000 C 
ATOM     21  C   UNL     1      -0.923  10.885  23.107  0.00  0.00    +0.000 C 
ATOM     22  C   UNL     1      -2.640  12.406  22.136  0.00  0.00    +0.000 C 
ENDBRANCH  10  20
ENDBRANCH   1  15
BRANCH   5  23
ATOM     23  C   UNL     1       6.146   4.780  14.516  0.00  0.00    +0.000 C 
ATOM     24  C   UNL     1       7.322   5.402  14.307  0.00  0.00    +0.000 C 
ATOM     25  C   UNL     1       8.110   5.268  13.033  0.00  0.00    +0.000 C 
ATOM     26  C   UNL     1       7.307   4.644  11.891  0.00  0.00    +0.000 C 
ATOM     27  C   UNL     1       6.492   3.451  12.380  0.00  0.00    +0.000 C 
ATOM     28  C   UNL     1       5.523   3.858  13.497  0.00  0.00    +0.000 C 
ENDBRANCH   5  23
TORSDOF 3
ENDMDL
MODEL 2
REMARK VINA RESULT:      -8.2      1.346      1.750
REMARK  Name = 
REMARK  6 active torsions:
REMARK  status: ('A' for Active; 'I' for Inactive)
REMARK    1  A    between atoms: C_1  and  C_2
REMARK    2  A    between atoms: C_2  and  C_3
REMARK    3  A    between atoms: C_2  and  C_4
REMARK    4  A    between atoms: C_2  and  C_5
REMARK    5  A    between atoms: C_10  and  C_12
REMARK    6  A    between atoms: C_16  and  C_17
REMARK                            x       y       z     vdW  Elec       q    Type
REMARK                         _______ _______ _______ _____ _____    ______ ____
ROOT
ATOM      1  C   UNL     1       2.481   7.682  18.798  0.00  0.00    +0.000 A 
ATOM      2  C   UNL     1       3.177   7.796  17.612  0.00  0.00    +0.000 A 
ATOM      3  C   UNL     1       3.844   6.599  17.206  0.00  0.00    +0.000 A 
ATOM      4  C   UNL     1       4.613   6.329  16.047  0.00  0.00    +0.000 A 
ATOM      5  C   UNL     1       5.160   5.060  15.828  0.00  0.00    +0.000 A 
ATOM      6  C   UNL     1       4.942   4.054  16.768  0.00  0.00    +0.000 A 
ATOM      7  C   UNL     1       4.196   4.297  17.931  0.00  0.00    +0.000 A 
ATOM      8  C   UNL     1       3.647   5.579  18.138  0.00  0.00    +0.000 A 
ATOM      9  S   UNL     1       2.686   6.128  19.471  0.00  0.00    +0.000 S 
ENDROOT
BRANCH   1  15
ATOM     10  C   UNL     1      -0.947  11.221  21.637  0.00  0.00    +0.000 A 
ATOM     11  C   UNL     1      -0.819  10.722  22.926  0.00  0.00    +0.000 A 
ATOM     12  S   UNL     1       0.124   9.282  22.919  0.00  0.00    +0.000 S 
ATOM     13  C   UNL     1       0.369   9.477  21.246  0.00  0.00    +0.000 A 
ATOM     14  N   UNL     1       1.174   8.538  20.650  0.00  0.00    +0.000 N 
ATOM     15  C   UNL     1       1.664   8.744  19.375  0.00  0.00    +0.000 C 
ATOM     16  O   UNL     1       1.480   9.775  18.732  0.00  0.00    +0.000 OA
ATOM     17  N   UNL     1      -0.234  10.496  20.695  0.00  0.00    +0.000 NA
ATOM     18  H   UNL     1       1.455   7.735  21.187  0.00  0.00    +0.000 HD
BRANCH  10  20
ATOM     19  C   UNL     1      -2.304  12.207  19.754  0.00  0.00    +0.000 C 
ATOM     20  C   UNL     1      -1.766  12.423  21.182  0.00  0.00    +0.000 C 
ATOM     21  C   UNL     1      -0.896  13.695  21.200  0.00  0.00    +0.000 C 
ATOM     22  C   UNL     1      -2.973  12.669  22.115  0.00  0.00    +0.000 C 
ENDBRANCH  10  20
ENDBRANCH   1  15
BRANCH   5  23
ATOM     23  C   UNL     1       5.936   4.799  14.607  0.00  0.00    +0.000 C 
ATOM     24  C   UNL     1       7.174   5.313  14.468  0.00  0.00    +0.000 C 
ATOM     25  C   UNL     1       8.029   5.081  13.254  0.00  0.00    +0.000 C 
ATOM     26  C   UNL     1       7.253   4.501  12.070  0.00  0.00    +0.000 C 
ATOM     27  C   UNL     1       6.305   3.395  12.524  0.00  0.00    +0.000 C 
ATOM     28  C   UNL     1       5.304   3.911  13.565  0.00  0.00    +0.000 C 
ENDBRANCH   5  23
TORSDOF 3
ENDMDL
MODEL 3
REMARK VINA RESULT:      -7.9      1.398      2.041
REMARK  Name = 
REMARK  6 active torsions:
REMARK  status: ('A' for Active; 'I' for Inactive)
REMARK    1  A    between atoms: C_1  and  C_2
REMARK    2  A    between atoms: C_2  and  C_3
REMARK    3  A    between atoms: C_2  and  C_4
REMARK    4  A    between atoms: C_2  and  C_5
REMARK    5  A    between atoms: C_10  and  C_12
REMARK    6  A    between atoms: C_16  and  C_17
REMARK                            x       y       z     vdW  Elec       q    Type
REMARK                         _______ _______ _______ _____ _____    ______ ____
ROOT
ATOM      1  C   UNL     1       2.402   7.648  18.955  0.00  0.00    +0.000 A 
ATOM      2  C   UNL     1       3.066   7.716  17.748  0.00  0.00    +0.000 A 
ATOM      3  C   UNL     1       3.731   6.508  17.374  0.00  0.00    +0.000 A 
ATOM      4  C   UNL     1       4.470   6.195  16.207  0.00  0.00    +0.000 A 
ATOM      5  C   UNL     1       5.021   4.920  16.027  0.00  0.00    +0.000 A 
ATOM      6  C   UNL     1       4.835   3.953  17.013  0.00  0.00    +0.000 A 
ATOM      7  C   UNL     1       4.118   4.240  18.185  0.00  0.00    +0.000 A 
ATOM      8  C   UNL     1       3.566   5.527  18.353  0.00  0.00    +0.000 A 
ATOM      9  S   UNL     1       2.636   6.126  19.688  0.00  0.00    +0.000 S 
ENDROOT
BRANCH   1  15
ATOM     10  C   UNL     1      -1.002  11.272  21.714  0.00  0.00    +0.000 A 
ATOM     11  C   UNL     1      -0.885  10.797  23.013  0.00  0.00    +0.000 A 
ATOM     12  S   UNL     1       0.044   9.347  23.036  0.00  0.00    +0.000 S 
ATOM     13  C   UNL     1       0.298   9.509  21.361  0.00  0.00    +0.000 A 
ATOM     14  N   UNL     1       1.097   8.551  20.786  0.00  0.00    +0.000 N 
ATOM     15  C   UNL     1       1.594   8.729  19.509  0.00  0.00    +0.000 C 
ATOM     16  O   UNL     1       1.422   9.749  18.847  0.00  0.00    +0.000 OA
ATOM     17  N   UNL     1      -0.292  10.524  20.789  0.00  0.00    +0.000 NA
ATOM     18  H   UNL     1       1.368   7.755  21.339  0.00  0.00    +0.000 HD
BRANCH  10  20
ATOM     19  C   UNL     1      -2.379  12.219  19.825  0.00  0.00    +0.000 C 
ATOM     20  C   UNL     1      -1.808  12.474  21.234  0.00  0.00    +0.000 C 
ATOM     21  C   UNL     1      -0.913  13.729  21.190  0.00  0.00    +0.000 C 
ATOM     22  C   UNL     1      -2.991  12.775  22.181  0.00  0.00    +0.000 C 
ENDBRANCH  10  20
ENDBRANCH   1  15
BRANCH   5  23
ATOM     23  C   UNL     1       5.765   4.613  14.798  0.00  0.00    +0.000 C 
ATOM     24  C   UNL     1       5.187   3.894  13.816  0.00  0.00    +0.000 C 
ATOM     25  C   UNL     1       5.883   3.551  12.528  0.00  0.00    +0.000 C 
ATOM     26  C   UNL     1       7.391   3.800  12.572  0.00  0.00    +0.000 C 
ATOM     27  C   UNL     1       7.709   5.130  13.247  0.00  0.00    +0.000 C 
ATOM     28  C   UNL     1       7.161   5.173  14.679  0.00  0.00    +0.000 C 
ENDBRANCH   5  23
TORSDOF 3
ENDMDL
MODEL 4
REMARK VINA RESULT:      -7.9      2.033     10.991
REMARK  Name = 
REMARK  6 active torsions:
REMARK  status: ('A' for Active; 'I' for Inactive)
REMARK    1  A    between atoms: C_1  and  C_2
REMARK    2  A    between atoms: C_2  and  C_3
REMARK    3  A    between atoms: C_2  and  C_4
REMARK    4  A    between atoms: C_2  and  C_5
REMARK    5  A    between atoms: C_10  and  C_12
REMARK    6  A    between atoms: C_16  and  C_17
REMARK                            x       y       z     vdW  Elec       q    Type
REMARK                         _______ _______ _______ _____ _____    ______ ____
ROOT
ATOM      1  C   UNL     1       0.893   9.527  18.775  0.00  0.00    +0.000 A 
ATOM      2  C   UNL     1       0.828  10.070  20.041  0.00  0.00    +0.000 A 
ATOM      3  C   UNL     1      -0.324  10.885  20.273  0.00  0.00    +0.000 A 
ATOM      4  C   UNL     1      -0.741  11.566  21.442  0.00  0.00    +0.000 A 
ATOM      5  C   UNL     1      -1.937  12.294  21.461  0.00  0.00    +0.000 A 
ATOM      6  C   UNL     1      -2.720  12.345  20.309  0.00  0.00    +0.000 A 
ATOM      7  C   UNL     1      -2.324  11.690  19.133  0.00  0.00    +0.000 A 
ATOM      8  C   UNL     1      -1.119  10.958  19.128  0.00  0.00    +0.000 A 
ATOM      9  S   UNL     1      -0.419  10.058  17.822  0.00  0.00    +0.000 S 
ENDROOT
BRANCH   1  15
ATOM     10  C   UNL     1       4.943   5.642  17.864  0.00  0.00    +0.000 A 
ATOM     11  C   UNL     1       4.550   4.649  18.751  0.00  0.00    +0.000 A 
ATOM     12  S   UNL     1       3.222   5.190  19.702  0.00  0.00    +0.000 S 
ATOM     13  C   UNL     1       3.206   6.643  18.816  0.00  0.00    +0.000 A 
ATOM     14  N   UNL     1       2.215   7.533  19.151  0.00  0.00    +0.000 N 
ATOM     15  C   UNL     1       1.933   8.607  18.329  0.00  0.00    +0.000 C 
ATOM     16  O   UNL     1       2.480   8.799  17.246  0.00  0.00    +0.000 OA
ATOM     17  N   UNL     1       4.138   6.769  17.909  0.00  0.00    +0.000 NA
ATOM     18  H   UNL     1       1.655   7.344  19.965  0.00  0.00    +0.000 HD
BRANCH  10  20
ATOM     19  C   UNL     1       6.995   6.877  17.074  0.00  0.00    +0.000 C 
ATOM     20  C   UNL     1       6.127   5.615  16.904  0.00  0.00    +0.000 C 
ATOM     21  C   UNL     1       5.626   5.546  15.447  0.00  0.00    +0.000 C 
ATOM     22  C   UNL     1       7.024   4.382  17.149  0.00  0.00    +0.000 C 
ENDBRANCH  10  20
ENDBRANCH   1  15
BRANCH   5  23
ATOM     23  C   UNL     1      -2.359  12.974  22.693  0.00  0.00    +0.000 C 
ATOM     24  C   UNL     1      -3.335  12.448  23.458  0.00  0.00    +0.000 C 
ATOM     25  C   UNL     1      -3.812  13.081  24.735  0.00  0.00    +0.000 C 
ATOM     26  C   UNL     1      -3.332  14.522  24.910  0.00  0.00    +0.000 C 
ATOM     27  C   UNL     1      -1.862  14.662  24.524  0.00  0.00    +0.000 C 
ATOM     28  C   UNL     1      -1.626  14.237  23.069  0.00  0.00    +0.000 C 
ENDBRANCH   5  23
TORSDOF 3
ENDMDL
MODEL 5
REMARK VINA RESULT:      -7.9      4.150      6.101
REMARK  Name = 
REMARK  6 active torsions:
REMARK  status: ('A' for Active; 'I' for Inactive)
REMARK    1  A    between atoms: C_1  and  C_2
REMARK    2  A    between atoms: C_2  and  C_3
REMARK    3  A    between atoms: C_2  and  C_4
REMARK    4  A    between atoms: C_2  and  C_5
REMARK    5  A    between atoms: C_10  and  C_12
REMARK    6  A    between atoms: C_16  and  C_17
REMARK                            x       y       z     vdW  Elec       q    Type
REMARK                         _______ _______ _______ _____ _____    ______ ____
ROOT
ATOM      1  C   UNL     1       0.315  10.985  21.112  0.00  0.00    +0.000 A 
ATOM      2  C   UNL     1       0.559   9.718  21.601  0.00  0.00    +0.000 A 
ATOM      3  C   UNL     1       1.146   8.826  20.652  0.00  0.00    +0.000 A 
ATOM      4  C   UNL     1       1.564   7.480  20.800  0.00  0.00    +0.000 A 
ATOM      5  C   UNL     1       2.151   6.789  19.733  0.00  0.00    +0.000 A 
ATOM      6  C   UNL     1       2.321   7.441  18.512  0.00  0.00    +0.000 A 
ATOM      7  C   UNL     1       1.904   8.769  18.335  0.00  0.00    +0.000 A 
ATOM      8  C   UNL     1       1.318   9.454  19.418  0.00  0.00    +0.000 A 
ATOM      9  S   UNL     1       0.736  11.087  19.462  0.00  0.00    +0.000 S 
ENDROOT
BRANCH   1  15
ATOM     10  C   UNL     1      -1.045  15.734  23.929  0.00  0.00    +0.000 A 
ATOM     11  C   UNL     1      -0.572  16.698  23.050  0.00  0.00    +0.000 A 
ATOM     12  S   UNL     1       0.270  15.955  21.745  0.00  0.00    +0.000 S 
ATOM     13  C   UNL     1      -0.133  14.429  22.382  0.00  0.00    +0.000 A 
ATOM     14  N   UNL     1       0.287  13.348  21.647  0.00  0.00    +0.000 N 
ATOM     15  C   UNL     1      -0.210  12.086  21.912  0.00  0.00    +0.000 C 
ATOM     16  O   UNL     1      -1.083  11.859  22.746  0.00  0.00    +0.000 OA
ATOM     17  N   UNL     1      -0.797  14.437  23.507  0.00  0.00    +0.000 NA
ATOM     18  H   UNL     1       0.906  13.506  20.870  0.00  0.00    +0.000 HD
BRANCH  10  20
ATOM     19  C   UNL     1      -0.777  15.855  26.434  0.00  0.00    +0.000 C 
ATOM     20  C   UNL     1      -1.764  15.957  25.255  0.00  0.00    +0.000 C 
ATOM     21  C   UNL     1      -2.874  14.903  25.439  0.00  0.00    +0.000 C 
ATOM     22  C   UNL     1      -2.429  17.351  25.307  0.00  0.00    +0.000 C 
ENDBRANCH  10  20
ENDBRANCH   1  15
BRANCH   5  23
ATOM     23  C   UNL     1       2.596   5.401  19.918  0.00  0.00    +0.000 C 
ATOM     24  C   UNL     1       3.753   4.981  19.370  0.00  0.00    +0.000 C 
ATOM     25  C   UNL     1       4.276   3.580  19.526  0.00  0.00    +0.000 C 
ATOM     26  C   UNL     1       3.232   2.603  20.068  0.00  0.00    +0.000 C 
ATOM     27  C   UNL     1       2.443   3.224  21.216  0.00  0.00    +0.000 C 
ATOM     28  C   UNL     1       1.731   4.508  20.772  0.00  0.00    +0.000 C 
ENDBRANCH   5  23
TORSDOF 3
ENDMDL
MODEL 6
REMARK VINA RESULT:      -7.8      2.220     10.821
REMARK  Name = 
REMARK  6 active torsions:
REMARK  status: ('A' for Active; 'I' for Inactive)
REMARK    1  A    between atoms: C_1  and  C_2
REMARK    2  A    between atoms: C_2  and  C_3
REMARK    3  A    between atoms: C_2  and  C_4
REMARK    4  A    between atoms: C_2  and  C_5
REMARK    5  A    between atoms: C_10  and  C_12
REMARK    6  A    between atoms: C_16  and  C_17
REMARK                            x       y       z     vdW  Elec       q    Type
REMARK                         _______ _______ _______ _____ _____    ______ ____
ROOT
ATOM      1  C   UNL     1       1.140   8.819  20.161  0.00  0.00    +0.000 A 
ATOM      2  C   UNL     1       0.347   9.831  19.661  0.00  0.00    +0.000 A 
ATOM      3  C   UNL     1      -0.381  10.553  20.656  0.00  0.00    +0.000 A 
ATOM      4  C   UNL     1      -1.253  11.662  20.526  0.00  0.00    +0.000 A 
ATOM      5  C   UNL     1      -1.847  12.244  21.652  0.00  0.00    +0.000 A 
ATOM      6  C   UNL     1      -1.572  11.720  22.914  0.00  0.00    +0.000 A 
ATOM      7  C   UNL     1      -0.722  10.614  23.070  0.00  0.00    +0.000 A 
ATOM      8  C   UNL     1      -0.128  10.039  21.928  0.00  0.00    +0.000 A 
ATOM      9  S   UNL     1       0.958   8.690  21.853  0.00  0.00    +0.000 S 
ENDROOT
BRANCH   1  15
ATOM     10  C   UNL     1       4.751   5.157  17.735  0.00  0.00    +0.000 A 
ATOM     11  C   UNL     1       4.503   4.017  18.486  0.00  0.00    +0.000 A 
ATOM     12  S   UNL     1       3.420   4.375  19.775  0.00  0.00    +0.000 S 
ATOM     13  C   UNL     1       3.287   5.968  19.193  0.00  0.00    +0.000 A 
ATOM     14  N   UNL     1       2.424   6.784  19.883  0.00  0.00    +0.000 N 
ATOM     15  C   UNL     1       2.028   7.994  19.349  0.00  0.00    +0.000 C 
ATOM     16  O   UNL     1       2.352   8.385  18.230  0.00  0.00    +0.000 OA
ATOM     17  N   UNL     1       4.020   6.259  18.152  0.00  0.00    +0.000 NA
ATOM     18  H   UNL     1       2.034   6.448  20.748  0.00  0.00    +0.000 HD
BRANCH  10  20
ATOM     19  C   UNL     1       7.130   5.653  17.059  0.00  0.00    +0.000 C 
ATOM     20  C   UNL     1       5.713   5.307  16.562  0.00  0.00    +0.000 C 
ATOM     21  C   UNL     1       5.227   6.426  15.618  0.00  0.00    +0.000 C 
ATOM     22  C   UNL     1       5.802   4.004  15.736  0.00  0.00    +0.000 C 
ENDBRANCH  10  20
ENDBRANCH   1  15
BRANCH   5  23
ATOM     23  C   UNL     1      -2.731  13.407  21.492  0.00  0.00    +0.000 C 
ATOM     24  C   UNL     1      -3.976  13.388  22.007  0.00  0.00    +0.000 C 
ATOM     25  C   UNL     1      -4.932  14.543  21.892  0.00  0.00    +0.000 C 
ATOM     26  C   UNL     1      -4.492  15.590  20.868  0.00  0.00    +0.000 C 
ATOM     27  C   UNL     1      -2.999  15.881  20.986  0.00  0.00    +0.000 C 
ATOM     28  C   UNL     1      -2.167  14.610  20.779  0.00  0.00    +0.000 C 
ENDBRANCH   5  23
TORSDOF 3
ENDMDL
MODEL 7
REMARK VINA RESULT:      -7.8      2.793     10.621
REMARK  Name = 
REMARK  6 active torsions:
REMARK  status: ('A' for Active; 'I' for Inactive)
REMARK    1  A    between atoms: C_1  and  C_2
REMARK    2  A    between atoms: C_2  and  C_3
REMARK    3  A    between atoms: C_2  and  C_4
REMARK    4  A    between atoms: C_2  and  C_5
REMARK    5  A    between atoms: C_10  and  C_12
REMARK    6  A    between atoms: C_16  and  C_17
REMARK                            x       y       z     vdW  Elec       q    Type
REMARK                         _______ _______ _______ _____ _____    ______ ____
ROOT
ATOM      1  C   UNL     1       0.815   9.591  18.731  0.00  0.00    +0.000 A 
ATOM      2  C   UNL     1      -0.467   9.599  18.221  0.00  0.00    +0.000 A 
ATOM      3  C   UNL     1      -1.313  10.608  18.776  0.00  0.00    +0.000 A 
ATOM      4  C   UNL     1      -2.658  10.939  18.478  0.00  0.00    +0.000 A 
ATOM      5  C   UNL     1      -3.298  12.001  19.129  0.00  0.00    +0.000 A 
ATOM      6  C   UNL     1      -2.595  12.736  20.083  0.00  0.00    +0.000 A 
ATOM      7  C   UNL     1      -1.266  12.421  20.407  0.00  0.00    +0.000 A 
ATOM      8  C   UNL     1      -0.633  11.352  19.741  0.00  0.00    +0.000 A 
ATOM      9  S   UNL     1       0.988  10.775  19.947  0.00  0.00    +0.000 S 
ENDROOT
BRANCH   1  15
ATOM     10  C   UNL     1       4.951   5.815  17.748  0.00  0.00    +0.000 A 
ATOM     11  C   UNL     1       4.577   4.794  18.611  0.00  0.00    +0.000 A 
ATOM     12  S   UNL     1       3.235   5.286  19.571  0.00  0.00    +0.000 S 
ATOM     13  C   UNL     1       3.190   6.757  18.716  0.00  0.00    +0.000 A 
ATOM     14  N   UNL     1       2.179   7.618  19.067  0.00  0.00    +0.000 N 
ATOM     15  C   UNL     1       1.876   8.703  18.268  0.00  0.00    +0.000 C 
ATOM     16  O   UNL     1       2.421   8.931  17.192  0.00  0.00    +0.000 OA
ATOM     17  N   UNL     1       4.121   6.923  17.815  0.00  0.00    +0.000 NA
ATOM     18  H   UNL     1       1.622   7.400  19.876  0.00  0.00    +0.000 HD
BRANCH  10  20
ATOM     19  C   UNL     1       7.092   6.995  17.129  0.00  0.00    +0.000 C 
ATOM     20  C   UNL     1       6.137   5.835  16.790  0.00  0.00    +0.000 C 
ATOM     21  C   UNL     1       5.643   6.002  15.339  0.00  0.00    +0.000 C 
ATOM     22  C   UNL     1       6.941   4.517  16.861  0.00  0.00    +0.000 C 
ENDBRANCH  10  20
ENDBRANCH   1  15
BRANCH   5  23
ATOM     23  C   UNL     1      -4.686  12.338  18.786  0.00  0.00    +0.000 C 
ATOM     24  C   UNL     1      -5.483  12.935  19.694  0.00  0.00    +0.000 C 
ATOM     25  C   UNL     1      -6.909  13.318  19.412  0.00  0.00    +0.000 C 
ATOM     26  C   UNL     1      -7.465  12.677  18.139  0.00  0.00    +0.000 C 
ATOM     27  C   UNL     1      -6.449  12.740  17.003  0.00  0.00    +0.000 C 
ATOM     28  C   UNL     1      -5.144  12.028  17.383  0.00  0.00    +0.000 C 
ENDBRANCH   5  23
TORSDOF 3
ENDMDL
MODEL 8
REMARK VINA RESULT:      -7.8      2.235     10.788
REMARK  Name = 
REMARK  6 active torsions:
REMARK  status: ('A' for Active; 'I' for Inactive)
REMARK    1  A    between atoms: C_1  and  C_2
REMARK    2  A    between atoms: C_2  and  C_3
REMARK    3  A    between atoms: C_2  and  C_4
REMARK    4  A    between atoms: C_2  and  C_5
REMARK    5  A    between atoms: C_10  and  C_12
REMARK    6  A    between atoms: C_16  and  C_17
REMARK                            x       y       z     vdW  Elec       q    Type
REMARK                         _______ _______ _______ _____ _____    ______ ____
ROOT
ATOM      1  C   UNL     1       1.133   8.856  20.162  0.00  0.00    +0.000 A 
ATOM      2  C   UNL     1       0.327   9.854  19.654  0.00  0.00    +0.000 A 
ATOM      3  C   UNL     1      -0.411  10.573  20.644  0.00  0.00    +0.000 A 
ATOM      4  C   UNL     1      -1.297  11.670  20.507  0.00  0.00    +0.000 A 
ATOM      5  C   UNL     1      -1.899  12.252  21.629  0.00  0.00    +0.000 A 
ATOM      6  C   UNL     1      -1.618  11.739  22.894  0.00  0.00    +0.000 A 
ATOM      7  C   UNL     1      -0.754  10.645  23.058  0.00  0.00    +0.000 A 
ATOM      8  C   UNL     1      -0.152  10.071  21.920  0.00  0.00    +0.000 A 
ATOM      9  S   UNL     1       0.952   8.736  21.854  0.00  0.00    +0.000 S 
ENDROOT
BRANCH   1  15
ATOM     10  C   UNL     1       4.775   5.212  17.755  0.00  0.00    +0.000 A 
ATOM     11  C   UNL     1       4.514   4.065  18.491  0.00  0.00    +0.000 A 
ATOM     12  S   UNL     1       3.411   4.412  19.767  0.00  0.00    +0.000 S 
ATOM     13  C   UNL     1       3.290   6.011  19.199  0.00  0.00    +0.000 A 
ATOM     14  N   UNL     1       2.418   6.821  19.883  0.00  0.00    +0.000 N 
ATOM     15  C   UNL     1       2.032   8.038  19.355  0.00  0.00    +0.000 C 
ATOM     16  O   UNL     1       2.374   8.439  18.245  0.00  0.00    +0.000 OA
ATOM     17  N   UNL     1       4.040   6.311  18.172  0.00  0.00    +0.000 NA
ATOM     18  H   UNL     1       2.014   6.478  20.738  0.00  0.00    +0.000 HD
BRANCH  10  20
ATOM     19  C   UNL     1       5.990   4.021  15.894  0.00  0.00    +0.000 C 
ATOM     20  C   UNL     1       5.755   5.371  16.598  0.00  0.00    +0.000 C 
ATOM     21  C   UNL     1       7.105   5.906  17.118  0.00  0.00    +0.000 C 
ATOM     22  C   UNL     1       5.228   6.374  15.547  0.00  0.00    +0.000 C 
ENDBRANCH  10  20
ENDBRANCH   1  15
BRANCH   5  23
ATOM     23  C   UNL     1      -2.798  13.402  21.461  0.00  0.00    +0.000 C 
ATOM     24  C   UNL     1      -2.297  14.615  21.158  0.00  0.00    +0.000 C 
ATOM     25  C   UNL     1      -3.155  15.834  20.962  0.00  0.00    +0.000 C 
ATOM     26  C   UNL     1      -4.590  15.648  21.458  0.00  0.00    +0.000 C 
ATOM     27  C   UNL     1      -5.142  14.287  21.046  0.00  0.00    +0.000 C 
ATOM     28  C   UNL     1      -4.278  13.146  21.598  0.00  0.00    +0.000 C 
ENDBRANCH   5  23
TORSDOF 3
ENDMDL
MODEL 9
REMARK VINA RESULT:      -7.8      2.104     11.111
REMARK  Name = 
REMARK  6 active torsions:
REMARK  status: ('A' for Active; 'I' for Inactive)
REMARK    1  A    between atoms: C_1  and  C_2
REMARK    2  A    between atoms: C_2  and  C_3
REMARK    3  A    between atoms: C_2  and  C_4
REMARK    4  A    between atoms: C_2  and  C_5
REMARK    5  A    between atoms: C_10  and  C_12
REMARK    6  A    between atoms: C_16  and  C_17
REMARK                            x       y       z     vdW  Elec       q    Type
REMARK                         _______ _______ _______ _____ _____    ______ ____
ROOT
ATOM      1  C   UNL     1       0.621   9.938  18.996  0.00  0.00    +0.000 A 
ATOM      2  C   UNL     1       0.731  10.596  20.204  0.00  0.00    +0.000 A 
ATOM      3  C   UNL     1      -0.385  11.429  20.523  0.00  0.00    +0.000 A 
ATOM      4  C   UNL     1      -0.640  12.215  21.673  0.00  0.00    +0.000 A 
ATOM      5  C   UNL     1      -1.830  12.943  21.796  0.00  0.00    +0.000 A 
ATOM      6  C   UNL     1      -2.770  12.888  20.769  0.00  0.00    +0.000 A 
ATOM      7  C   UNL     1      -2.538  12.127  19.613  0.00  0.00    +0.000 A 
ATOM      8  C   UNL     1      -1.337  11.396  19.503  0.00  0.00    +0.000 A 
ATOM      9  S   UNL     1      -0.820  10.379  18.197  0.00  0.00    +0.000 S 
ENDROOT
BRANCH   1  15
ATOM     10  C   UNL     1       4.453   5.895  17.853  0.00  0.00    +0.000 A 
ATOM     11  C   UNL     1       4.061   4.909  18.748  0.00  0.00    +0.000 A 
ATOM     12  S   UNL     1       2.804   5.495  19.769  0.00  0.00    +0.000 S 
ATOM     13  C   UNL     1       2.808   6.958  18.898  0.00  0.00    +0.000 A 
ATOM     14  N   UNL     1       1.873   7.885  19.289  0.00  0.00    +0.000 N 
ATOM     15  C   UNL     1       1.598   8.979  18.492  0.00  0.00    +0.000 C 
ATOM     16  O   UNL     1       2.100   9.161  17.386  0.00  0.00    +0.000 OA
ATOM     17  N   UNL     1       3.699   7.054  17.948  0.00  0.00    +0.000 NA
ATOM     18  H   UNL     1       1.346   7.711  20.128  0.00  0.00    +0.000 HD
BRANCH  10  20
ATOM     19  C   UNL     1       6.852   6.517  17.385  0.00  0.00    +0.000 C 
ATOM     20  C   UNL     1       5.587   5.829  16.836  0.00  0.00    +0.000 C 
ATOM     21  C   UNL     1       5.166   6.529  15.528  0.00  0.00    +0.000 C 
ATOM     22  C   UNL     1       5.949   4.368  16.489  0.00  0.00    +0.000 C 
ENDBRANCH  10  20
ENDBRANCH   1  15
BRANCH   5  23
ATOM     23  C   UNL     1      -2.079  13.734  23.009  0.00  0.00    +0.000 C 
ATOM     24  C   UNL     1      -1.086  14.456  23.564  0.00  0.00    +0.000 C 
ATOM     25  C   UNL     1      -1.270  15.296  24.797  0.00  0.00    +0.000 C 
ATOM     26  C   UNL     1      -2.571  14.998  25.542  0.00  0.00    +0.000 C 
ATOM     27  C   UNL     1      -3.739  14.853  24.571  0.00  0.00    +0.000 C 
ATOM     28  C   UNL     1      -3.484  13.731  23.557  0.00  0.00    +0.000 C 
ENDBRANCH   5  23
TORSDOF 3
ENDMDL
