MODEL 1
REMARK VINA RESULT:      -7.8      0.000      0.000
REMARK  Name = 
REMARK  7 active torsions:
REMARK  status: ('A' for Active; 'I' for Inactive)
REMARK    1  A    between atoms: C_1  and  C_2
REMARK    2  A    between atoms: C_2  and  C_3
REMARK    3  A    between atoms: C_3  and  O_4
REMARK    4  A    between atoms: O_4  and  C_5
REMARK    5  A    between atoms: C_9  and  N_10
REMARK    6  A    between atoms: N_13  and  C_14
REMARK    7  A    between atoms: C_19  and  C_20
REMARK                            x       y       z     vdW  Elec       q    Type
REMARK                         _______ _______ _______ _____ _____    ______ ____
ROOT
ATOM      1  N   UNL     1       2.572   8.347  18.144  0.00  0.00    +0.000 N 
ATOM      2  C   UNL     1       3.009   7.070  18.423  0.00  0.00    +0.000 C 
ATOM      3  O   UNL     1       2.495   6.290  19.213  0.00  0.00    +0.000 OA
ATOM      4  N   UNL     1       4.124   6.706  17.697  0.00  0.00    +0.000 N 
ATOM      5  H   UNL     1       3.184   8.944  17.607  0.00  0.00    +0.000 HD
ATOM      6  H   UNL     1       4.708   7.453  17.340  0.00  0.00    +0.000 HD
ENDROOT
BRANCH   4   7
ATOM      7  C   UNL     1       4.723   5.388  17.938  0.00  0.00    +0.000 C 
ATOM      8  C   UNL     1       6.205   5.511  18.341  0.00  0.00    +0.000 C 
ATOM      9  C   UNL     1       7.066   6.026  17.184  0.00  0.00    +0.000 C 
ATOM     10  C   UNL     1       6.736   5.331  15.915  0.00  0.00    +0.000 A 
ATOM     11  N   UNL     1       7.427   5.280  14.800  0.00  0.00    +0.000 NA
ATOM     12  C   UNL     1       6.636   4.518  13.974  0.00  0.00    +0.000 A 
ATOM     13  C   UNL     1       7.033   4.184  12.594  0.00  0.00    +0.000 C 
ATOM     14  N   UNL     1       5.482   4.109  14.518  0.00  0.00    +0.000 NA
ATOM     15  N   UNL     1       5.568   4.644  15.743  0.00  0.00    +0.000 N 
ATOM     16  C   UNL     1       4.555   4.430  16.750  0.00  0.00    +0.000 C 
ENDBRANCH   4   7
BRANCH   1  21
ATOM     17  C   UNL     1      -0.648  10.194  18.369  0.00  0.00    +0.000 A 
ATOM     18  C   UNL     1      -0.836  10.257  19.749  0.00  0.00    +0.000 A 
ATOM     19  C   UNL     1       0.072   9.642  20.606  0.00  0.00    +0.000 A 
ATOM     20  C   UNL     1       1.188   8.991  20.087  0.00  0.00    +0.000 A 
ATOM     21  C   UNL     1       1.419   8.952  18.706  0.00  0.00    +0.000 A 
ATOM     22  C   UNL     1       0.478   9.537  17.849  0.00  0.00    +0.000 A 
BRANCH  17  23
ATOM     23  O   UNL     1      -1.587  10.861  17.625  0.00  0.00    +0.000 OA
BRANCH  23  24
ATOM     24  C   UNL     1      -2.358  10.051  16.739  0.00  0.00    +0.000 C 
BRANCH  24  26
ATOM     25  C   UNL     1      -3.593  10.065  14.556  0.00  0.00    +0.000 C 
ATOM     26  C   UNL     1      -2.788  10.895  15.543  0.00  0.00    +0.000 C 
ENDBRANCH  24  26
ENDBRANCH  23  24
ENDBRANCH  17  23
ENDBRANCH   1  21
TORSDOF 5
ENDMDL
MODEL 2
REMARK VINA RESULT:      -7.5      1.140      1.294
REMARK  Name = 
REMARK  7 active torsions:
REMARK  status: ('A' for Active; 'I' for Inactive)
REMARK    1  A    between atoms: C_1  and  C_2
REMARK    2  A    between atoms: C_2  and  C_3
REMARK    3  A    between atoms: C_3  and  O_4
REMARK    4  A    between atoms: O_4  and  C_5
REMARK    5  A    between atoms: C_9  and  N_10
REMARK    6  A    between atoms: N_13  and  C_14
REMARK    7  A    between atoms: C_19  and  C_20
REMARK                            x       y       z     vdW  Elec       q    Type
REMARK                         _______ _______ _______ _____ _____    ______ ____
ROOT
ATOM      1  N   UNL     1       2.705   7.731  18.251  0.00  0.00    +0.000 N 
ATOM      2  C   UNL     1       3.364   6.551  18.523  0.00  0.00    +0.000 C 
ATOM      3  O   UNL     1       3.304   5.919  19.567  0.00  0.00    +0.000 OA
ATOM      4  N   UNL     1       4.130   6.102  17.467  0.00  0.00    +0.000 N 
ATOM      5  H   UNL     1       2.976   8.238  17.420  0.00  0.00    +0.000 HD
ATOM      6  H   UNL     1       4.431   6.789  16.787  0.00  0.00    +0.000 HD
ENDROOT
BRANCH   4   7
ATOM      7  C   UNL     1       4.926   4.881  17.645  0.00  0.00    +0.000 C 
ATOM      8  C   UNL     1       6.390   5.213  17.994  0.00  0.00    +0.000 C 
ATOM      9  C   UNL     1       7.116   5.878  16.821  0.00  0.00    +0.000 C 
ATOM     10  C   UNL     1       6.838   5.172  15.546  0.00  0.00    +0.000 A 
ATOM     11  N   UNL     1       7.481   5.252  14.403  0.00  0.00    +0.000 NA
ATOM     12  C   UNL     1       6.776   4.401  13.586  0.00  0.00    +0.000 A 
ATOM     13  C   UNL     1       7.158   4.164  12.182  0.00  0.00    +0.000 C 
ATOM     14  N   UNL     1       5.719   3.812  14.162  0.00  0.00    +0.000 NA
ATOM     15  N   UNL     1       5.778   4.325  15.398  0.00  0.00    +0.000 N 
ATOM     16  C   UNL     1       4.851   3.939  16.437  0.00  0.00    +0.000 C 
ENDBRANCH   4   7
BRANCH   1  21
ATOM     17  C   UNL     1       0.279  10.231  19.553  0.00  0.00    +0.000 A 
ATOM     18  C   UNL     1       0.100   9.789  20.863  0.00  0.00    +0.000 A 
ATOM     19  C   UNL     1       0.738   8.632  21.302  0.00  0.00    +0.000 A 
ATOM     20  C   UNL     1       1.583   7.934  20.442  0.00  0.00    +0.000 A 
ATOM     21  C   UNL     1       1.810   8.384  19.135  0.00  0.00    +0.000 A 
ATOM     22  C   UNL     1       1.131   9.526  18.689  0.00  0.00    +0.000 A 
BRANCH  17  23
ATOM     23  O   UNL     1      -0.372  11.398  19.242  0.00  0.00    +0.000 OA
BRANCH  23  24
ATOM     24  C   UNL     1      -1.779  11.279  19.032  0.00  0.00    +0.000 C 
BRANCH  24  26
ATOM     25  C   UNL     1      -3.065   9.698  17.572  0.00  0.00    +0.000 C 
ATOM     26  C   UNL     1      -2.029  10.810  17.603  0.00  0.00    +0.000 C 
ENDBRANCH  24  26
ENDBRANCH  23  24
ENDBRANCH  17  23
ENDBRANCH   1  21
TORSDOF 5
ENDMDL
MODEL 3
REMARK VINA RESULT:      -7.3      3.488      8.994
REMARK  Name = 
REMARK  7 active torsions:
REMARK  status: ('A' for Active; 'I' for Inactive)
REMARK    1  A    between atoms: C_1  and  C_2
REMARK    2  A    between atoms: C_2  and  C_3
REMARK    3  A    between atoms: C_3  and  O_4
REMARK    4  A    between atoms: O_4  and  C_5
REMARK    5  A    between atoms: C_9  and  N_10
REMARK    6  A    between atoms: N_13  and  C_14
REMARK    7  A    between atoms: C_19  and  C_20
REMARK                            x       y       z     vdW  Elec       q    Type
REMARK                         _______ _______ _______ _____ _____    ______ ____
ROOT
ATOM      1  N   UNL     1       2.303   7.746  18.977  0.00  0.00    +0.000 N 
ATOM      2  C   UNL     1       1.832   8.881  18.354  0.00  0.00    +0.000 C 
ATOM      3  O   UNL     1       1.904   9.127  17.158  0.00  0.00    +0.000 OA
ATOM      4  N   UNL     1       1.229   9.767  19.223  0.00  0.00    +0.000 N 
ATOM      5  H   UNL     1       2.336   7.745  19.987  0.00  0.00    +0.000 HD
ATOM      6  H   UNL     1       1.489   9.709  20.199  0.00  0.00    +0.000 HD
ENDROOT
BRANCH   4   7
ATOM      7  C   UNL     1       0.732  11.043  18.694  0.00  0.00    +0.000 C 
ATOM      8  C   UNL     1       1.674  12.206  19.059  0.00  0.00    +0.000 C 
ATOM      9  C   UNL     1       1.674  12.484  20.566  0.00  0.00    +0.000 C 
ATOM     10  C   UNL     1       0.294  12.496  21.112  0.00  0.00    +0.000 A 
ATOM     11  N   UNL     1      -0.133  12.970  22.260  0.00  0.00    +0.000 NA
ATOM     12  C   UNL     1      -1.479  12.694  22.232  0.00  0.00    +0.000 A 
ATOM     13  C   UNL     1      -2.381  13.070  23.336  0.00  0.00    +0.000 C 
ATOM     14  N   UNL     1      -1.902  12.058  21.131  0.00  0.00    +0.000 NA
ATOM     15  N   UNL     1      -0.758  11.938  20.445  0.00  0.00    +0.000 N 
ATOM     16  C   UNL     1      -0.709  11.348  19.127  0.00  0.00    +0.000 C 
ENDBRANCH   4   7
BRANCH   1  21
ATOM     17  C   UNL     1       2.737   4.377  17.461  0.00  0.00    +0.000 A 
ATOM     18  C   UNL     1       4.084   4.405  17.104  0.00  0.00    +0.000 A 
ATOM     19  C   UNL     1       4.838   5.556  17.315  0.00  0.00    +0.000 A 
ATOM     20  C   UNL     1       4.255   6.671  17.912  0.00  0.00    +0.000 A 
ATOM     21  C   UNL     1       2.914   6.650  18.316  0.00  0.00    +0.000 A 
ATOM     22  C   UNL     1       2.152   5.502  18.063  0.00  0.00    +0.000 A 
BRANCH  17  23
ATOM     23  O   UNL     1       2.102   3.182  17.237  0.00  0.00    +0.000 OA
BRANCH  23  24
ATOM     24  C   UNL     1       2.174   2.239  18.306  0.00  0.00    +0.000 C 
BRANCH  24  26
ATOM     25  C   UNL     1       1.101   2.944  20.460  0.00  0.00    +0.000 C 
ATOM     26  C   UNL     1       0.875   2.294  19.104  0.00  0.00    +0.000 C 
ENDBRANCH  24  26
ENDBRANCH  23  24
ENDBRANCH  17  23
ENDBRANCH   1  21
TORSDOF 5
ENDMDL
MODEL 4
REMARK VINA RESULT:      -7.2      1.045      1.071
REMARK  Name = 
REMARK  7 active torsions:
REMARK  status: ('A' for Active; 'I' for Inactive)
REMARK    1  A    between atoms: C_1  and  C_2
REMARK    2  A    between atoms: C_2  and  C_3
REMARK    3  A    between atoms: C_3  and  O_4
REMARK    4  A    between atoms: O_4  and  C_5
REMARK    5  A    between atoms: C_9  and  N_10
REMARK    6  A    between atoms: N_13  and  C_14
REMARK    7  A    between atoms: C_19  and  C_20
REMARK                            x       y       z     vdW  Elec       q    Type
REMARK                         _______ _______ _______ _____ _____    ______ ____
ROOT
ATOM      1  N   UNL     1       2.145   9.089  17.720  0.00  0.00    +0.000 N 
ATOM      2  C   UNL     1       2.609   7.921  18.287  0.00  0.00    +0.000 C 
ATOM      3  O   UNL     1       2.306   7.487  19.389  0.00  0.00    +0.000 OA
ATOM      4  N   UNL     1       3.480   7.230  17.470  0.00  0.00    +0.000 N 
ATOM      5  H   UNL     1       2.605   9.418  16.884  0.00  0.00    +0.000 HD
ATOM      6  H   UNL     1       3.965   7.759  16.756  0.00  0.00    +0.000 HD
ENDROOT
BRANCH   4   7
ATOM      7  C   UNL     1       4.088   5.993  17.976  0.00  0.00    +0.000 C 
ATOM      8  C   UNL     1       5.524   6.240  18.478  0.00  0.00    +0.000 C 
ATOM      9  C   UNL     1       6.473   6.595  17.329  0.00  0.00    +0.000 C 
ATOM     10  C   UNL     1       6.277   5.690  16.169  0.00  0.00    +0.000 A 
ATOM     11  N   UNL     1       7.068   5.487  15.140  0.00  0.00    +0.000 NA
ATOM     12  C   UNL     1       6.375   4.569  14.388  0.00  0.00    +0.000 A 
ATOM     13  C   UNL     1       6.903   4.032  13.121  0.00  0.00    +0.000 C 
ATOM     14  N   UNL     1       5.187   4.207  14.893  0.00  0.00    +0.000 NA
ATOM     15  N   UNL     1       5.148   4.938  16.015  0.00  0.00    +0.000 N 
ATOM     16  C   UNL     1       4.054   4.850  16.954  0.00  0.00    +0.000 C 
ENDBRANCH   4   7
BRANCH   1  21
ATOM     17  C   UNL     1      -1.113  10.698  18.512  0.00  0.00    +0.000 A 
ATOM     18  C   UNL     1      -0.716  11.717  19.378  0.00  0.00    +0.000 A 
ATOM     19  C   UNL     1       0.620  11.840  19.744  0.00  0.00    +0.000 A 
ATOM     20  C   UNL     1       1.570  10.965  19.220  0.00  0.00    +0.000 A 
ATOM     21  C   UNL     1       1.200   9.961  18.316  0.00  0.00    +0.000 A 
ATOM     22  C   UNL     1      -0.154   9.818  17.986  0.00  0.00    +0.000 A 
BRANCH  17  23
ATOM     23  O   UNL     1      -2.448  10.693  18.196  0.00  0.00    +0.000 OA
BRANCH  23  24
ATOM     24  C   UNL     1      -2.852   9.700  17.255  0.00  0.00    +0.000 C 
BRANCH  24  26
ATOM     25  C   UNL     1      -2.895  10.142  14.786  0.00  0.00    +0.000 C 
ATOM     26  C   UNL     1      -3.602  10.376  16.112  0.00  0.00    +0.000 C 
ENDBRANCH  24  26
ENDBRANCH  23  24
ENDBRANCH  17  23
ENDBRANCH   1  21
TORSDOF 5
ENDMDL
MODEL 5
REMARK VINA RESULT:      -7.2      3.356      9.304
REMARK  Name = 
REMARK  7 active torsions:
REMARK  status: ('A' for Active; 'I' for Inactive)
REMARK    1  A    between atoms: C_1  and  C_2
REMARK    2  A    between atoms: C_2  and  C_3
REMARK    3  A    between atoms: C_3  and  O_4
REMARK    4  A    between atoms: O_4  and  C_5
REMARK    5  A    between atoms: C_9  and  N_10
REMARK    6  A    between atoms: N_13  and  C_14
REMARK    7  A    between atoms: C_19  and  C_20
REMARK                            x       y       z     vdW  Elec       q    Type
REMARK                         _______ _______ _______ _____ _____    ______ ____
ROOT
ATOM      1  N   UNL     1       2.229   7.816  18.970  0.00  0.00    +0.000 N 
ATOM      2  C   UNL     1       1.766   8.964  18.363  0.00  0.00    +0.000 C 
ATOM      3  O   UNL     1       1.911   9.265  17.187  0.00  0.00    +0.000 OA
ATOM      4  N   UNL     1       1.075   9.792  19.224  0.00  0.00    +0.000 N 
ATOM      5  H   UNL     1       2.194   7.772  19.978  0.00  0.00    +0.000 HD
ATOM      6  H   UNL     1       1.270   9.698  20.213  0.00  0.00    +0.000 HD
ENDROOT
BRANCH   4   7
ATOM      7  C   UNL     1       0.573  11.074  18.716  0.00  0.00    +0.000 C 
ATOM      8  C   UNL     1       1.534  12.228  19.062  0.00  0.00    +0.000 C 
ATOM      9  C   UNL     1       1.578  12.498  20.569  0.00  0.00    +0.000 C 
ATOM     10  C   UNL     1       0.214  12.517  21.153  0.00  0.00    +0.000 A 
ATOM     11  N   UNL     1      -0.178  12.989  22.314  0.00  0.00    +0.000 NA
ATOM     12  C   UNL     1      -1.526  12.723  22.322  0.00  0.00    +0.000 A 
ATOM     13  C   UNL     1      -2.395  13.099  23.453  0.00  0.00    +0.000 C 
ATOM     14  N   UNL     1      -1.984  12.096  21.230  0.00  0.00    +0.000 NA
ATOM     15  N   UNL     1      -0.861  11.971  20.512  0.00  0.00    +0.000 N 
ATOM     16  C   UNL     1      -0.852  11.388  19.191  0.00  0.00    +0.000 C 
ENDBRANCH   4   7
BRANCH   1  21
ATOM     17  C   UNL     1       4.768   6.078  16.880  0.00  0.00    +0.000 A 
ATOM     18  C   UNL     1       4.286   4.770  16.888  0.00  0.00    +0.000 A 
ATOM     19  C   UNL     1       3.152   4.449  17.628  0.00  0.00    +0.000 A 
ATOM     20  C   UNL     1       2.478   5.442  18.336  0.00  0.00    +0.000 A 
ATOM     21  C   UNL     1       2.921   6.770  18.308  0.00  0.00    +0.000 A 
ATOM     22  C   UNL     1       4.087   7.076  17.594  0.00  0.00    +0.000 A 
BRANCH  17  23
ATOM     23  O   UNL     1       5.871   6.284  16.091  0.00  0.00    +0.000 OA
BRANCH  23  24
ATOM     24  C   UNL     1       7.108   5.819  16.630  0.00  0.00    +0.000 C 
BRANCH  24  26
ATOM     25  C   UNL     1       7.846   5.969  19.022  0.00  0.00    +0.000 C 
ATOM     26  C   UNL     1       7.540   6.753  17.756  0.00  0.00    +0.000 C 
ENDBRANCH  24  26
ENDBRANCH  23  24
ENDBRANCH  17  23
ENDBRANCH   1  21
TORSDOF 5
ENDMDL
MODEL 6
REMARK VINA RESULT:      -7.1      3.459      9.206
REMARK  Name = 
REMARK  7 active torsions:
REMARK  status: ('A' for Active; 'I' for Inactive)
REMARK    1  A    between atoms: C_1  and  C_2
REMARK    2  A    between atoms: C_2  and  C_3
REMARK    3  A    between atoms: C_3  and  O_4
REMARK    4  A    between atoms: O_4  and  C_5
REMARK    5  A    between atoms: C_9  and  N_10
REMARK    6  A    between atoms: N_13  and  C_14
REMARK    7  A    between atoms: C_19  and  C_20
REMARK                            x       y       z     vdW  Elec       q    Type
REMARK                         _______ _______ _______ _____ _____    ______ ____
ROOT
ATOM      1  N   UNL     1       2.203   7.351  19.334  0.00  0.00    +0.000 N 
ATOM      2  C   UNL     1       1.947   8.460  18.557  0.00  0.00    +0.000 C 
ATOM      3  O   UNL     1       2.284   8.615  17.392  0.00  0.00    +0.000 OA
ATOM      4  N   UNL     1       1.232   9.435  19.221  0.00  0.00    +0.000 N 
ATOM      5  H   UNL     1       2.024   7.422  20.326  0.00  0.00    +0.000 HD
ATOM      6  H   UNL     1       1.278   9.435  20.232  0.00  0.00    +0.000 HD
ENDROOT
BRANCH   4   7
ATOM      7  C   UNL     1       0.939  10.692  18.522  0.00  0.00    +0.000 C 
ATOM      8  C   UNL     1       1.794  11.851  19.069  0.00  0.00    +0.000 C 
ATOM      9  C   UNL     1       1.409  12.209  20.508  0.00  0.00    +0.000 C 
ATOM     10  C   UNL     1      -0.064  12.283  20.669  0.00  0.00    +0.000 A 
ATOM     11  N   UNL     1      -0.760  12.829  21.640  0.00  0.00    +0.000 NA
ATOM     12  C   UNL     1      -2.061  12.584  21.270  0.00  0.00    +0.000 A 
ATOM     13  C   UNL     1      -3.207  13.040  22.079  0.00  0.00    +0.000 C 
ATOM     14  N   UNL     1      -2.203  11.899  20.127  0.00  0.00    +0.000 NA
ATOM     15  N   UNL     1      -0.924  11.715  19.774  0.00  0.00    +0.000 N 
ATOM     16  C   UNL     1      -0.553  11.054  18.545  0.00  0.00    +0.000 C 
ENDBRANCH   4   7
BRANCH   1  21
ATOM     17  C   UNL     1       4.873   4.798  18.901  0.00  0.00    +0.000 A 
ATOM     18  C   UNL     1       4.289   3.942  17.968  0.00  0.00    +0.000 A 
ATOM     19  C   UNL     1       2.993   4.176  17.522  0.00  0.00    +0.000 A 
ATOM     20  C   UNL     1       2.287   5.285  17.982  0.00  0.00    +0.000 A 
ATOM     21  C   UNL     1       2.870   6.182  18.887  0.00  0.00    +0.000 A 
ATOM     22  C   UNL     1       4.160   5.915  19.363  0.00  0.00    +0.000 A 
BRANCH  17  23
ATOM     23  O   UNL     1       6.164   4.488  19.244  0.00  0.00    +0.000 OA
BRANCH  23  24
ATOM     24  C   UNL     1       7.080   5.582  19.244  0.00  0.00    +0.000 C 
BRANCH  24  26
ATOM     25  C   UNL     1       7.502   7.377  17.543  0.00  0.00    +0.000 C 
ATOM     26  C   UNL     1       7.496   5.880  17.807  0.00  0.00    +0.000 C 
ENDBRANCH  24  26
ENDBRANCH  23  24
ENDBRANCH  17  23
ENDBRANCH   1  21
TORSDOF 5
ENDMDL
MODEL 7
REMARK VINA RESULT:      -7.1      3.367      8.614
REMARK  Name = 
REMARK  7 active torsions:
REMARK  status: ('A' for Active; 'I' for Inactive)
REMARK    1  A    between atoms: C_1  and  C_2
REMARK    2  A    between atoms: C_2  and  C_3
REMARK    3  A    between atoms: C_3  and  O_4
REMARK    4  A    between atoms: O_4  and  C_5
REMARK    5  A    between atoms: C_9  and  N_10
REMARK    6  A    between atoms: N_13  and  C_14
REMARK    7  A    between atoms: C_19  and  C_20
REMARK                            x       y       z     vdW  Elec       q    Type
REMARK                         _______ _______ _______ _____ _____    ______ ____
ROOT
ATOM      1  N   UNL     1       2.386   7.727  18.111  0.00  0.00    +0.000 N 
ATOM      2  C   UNL     1       1.798   8.231  19.251  0.00  0.00    +0.000 C 
ATOM      3  O   UNL     1       1.658   7.637  20.311  0.00  0.00    +0.000 OA
ATOM      4  N   UNL     1       1.362   9.532  19.107  0.00  0.00    +0.000 N 
ATOM      5  H   UNL     1       2.281   8.255  17.257  0.00  0.00    +0.000 HD
ATOM      6  H   UNL     1       1.174   9.857  18.167  0.00  0.00    +0.000 HD
ENDROOT
BRANCH   4   7
ATOM      7  C   UNL     1       0.669  10.171  20.232  0.00  0.00    +0.000 C 
ATOM      8  C   UNL     1      -0.828  10.371  19.927  0.00  0.00    +0.000 C 
ATOM      9  C   UNL     1      -1.047  11.400  18.814  0.00  0.00    +0.000 C 
ATOM     10  C   UNL     1      -0.203  12.603  19.019  0.00  0.00    +0.000 A 
ATOM     11  N   UNL     1      -0.311  13.790  18.467  0.00  0.00    +0.000 NA
ATOM     12  C   UNL     1       0.739  14.488  19.013  0.00  0.00    +0.000 A 
ATOM     13  C   UNL     1       1.002  15.900  18.679  0.00  0.00    +0.000 C 
ATOM     14  N   UNL     1       1.501  13.787  19.863  0.00  0.00    +0.000 NA
ATOM     15  N   UNL     1       0.887  12.596  19.841  0.00  0.00    +0.000 N 
ATOM     16  C   UNL     1       1.321  11.491  20.664  0.00  0.00    +0.000 C 
ENDBRANCH   4   7
BRANCH   1  21
ATOM     17  C   UNL     1       2.663   4.035  17.756  0.00  0.00    +0.000 A 
ATOM     18  C   UNL     1       4.040   3.847  17.871  0.00  0.00    +0.000 A 
ATOM     19  C   UNL     1       4.884   4.945  18.012  0.00  0.00    +0.000 A 
ATOM     20  C   UNL     1       4.351   6.230  18.071  0.00  0.00    +0.000 A 
ATOM     21  C   UNL     1       2.968   6.438  17.999  0.00  0.00    +0.000 A 
ATOM     22  C   UNL     1       2.129   5.331  17.816  0.00  0.00    +0.000 A 
BRANCH  17  23
ATOM     23  O   UNL     1       1.928   2.881  17.654  0.00  0.00    +0.000 OA
BRANCH  23  24
ATOM     24  C   UNL     1       1.799   2.127  18.858  0.00  0.00    +0.000 C 
BRANCH  24  26
ATOM     25  C   UNL     1       1.443   3.051  21.162  0.00  0.00    +0.000 C 
ATOM     26  C   UNL     1       0.824   2.841  19.789  0.00  0.00    +0.000 C 
ENDBRANCH  24  26
ENDBRANCH  23  24
ENDBRANCH  17  23
ENDBRANCH   1  21
TORSDOF 5
ENDMDL
MODEL 8
REMARK VINA RESULT:      -7.1      5.743      8.286
REMARK  Name = 
REMARK  7 active torsions:
REMARK  status: ('A' for Active; 'I' for Inactive)
REMARK    1  A    between atoms: C_1  and  C_2
REMARK    2  A    between atoms: C_2  and  C_3
REMARK    3  A    between atoms: C_3  and  O_4
REMARK    4  A    between atoms: O_4  and  C_5
REMARK    5  A    between atoms: C_9  and  N_10
REMARK    6  A    between atoms: N_13  and  C_14
REMARK    7  A    between atoms: C_19  and  C_20
REMARK                            x       y       z     vdW  Elec       q    Type
REMARK                         _______ _______ _______ _____ _____    ______ ____
ROOT
ATOM      1  N   UNL     1       8.082   9.623  17.829  0.00  0.00    +0.000 N 
ATOM      2  C   UNL     1       8.110   8.261  18.035  0.00  0.00    +0.000 C 
ATOM      3  O   UNL     1       8.825   7.668  18.830  0.00  0.00    +0.000 OA
ATOM      4  N   UNL     1       7.212   7.574  17.243  0.00  0.00    +0.000 N 
ATOM      5  H   UNL     1       7.575   9.966  17.025  0.00  0.00    +0.000 HD
ATOM      6  H   UNL     1       6.909   8.024  16.389  0.00  0.00    +0.000 HD
ENDROOT
BRANCH   4   7
ATOM      7  C   UNL     1       7.178   6.109  17.327  0.00  0.00    +0.000 C 
ATOM      8  C   UNL     1       6.466   5.494  16.106  0.00  0.00    +0.000 C 
ATOM      9  C   UNL     1       4.971   5.831  16.092  0.00  0.00    +0.000 C 
ATOM     10  C   UNL     1       4.364   5.640  17.432  0.00  0.00    +0.000 A 
ATOM     11  N   UNL     1       3.094   5.544  17.754  0.00  0.00    +0.000 NA
ATOM     12  C   UNL     1       3.127   5.395  19.120  0.00  0.00    +0.000 A 
ATOM     13  C   UNL     1       1.901   5.234  19.923  0.00  0.00    +0.000 C 
ATOM     14  N   UNL     1       4.353   5.410  19.660  0.00  0.00    +0.000 NA
ATOM     15  N   UNL     1       5.115   5.575  18.570  0.00  0.00    +0.000 N 
ATOM     16  C   UNL     1       6.557   5.600  18.635  0.00  0.00    +0.000 C 
ENDBRANCH   4   7
BRANCH   1  21
ATOM     17  C   UNL     1      10.213  12.593  18.518  0.00  0.00    +0.000 A 
ATOM     18  C   UNL     1      10.492  12.426  19.874  0.00  0.00    +0.000 A 
ATOM     19  C   UNL     1       9.932  11.362  20.575  0.00  0.00    +0.000 A 
ATOM     20  C   UNL     1       9.119  10.444  19.915  0.00  0.00    +0.000 A 
ATOM     21  C   UNL     1       8.860  10.569  18.545  0.00  0.00    +0.000 A 
ATOM     22  C   UNL     1       9.393  11.666  17.856  0.00  0.00    +0.000 A 
BRANCH  17  23
ATOM     23  O   UNL     1      10.843  13.656  17.923  0.00  0.00    +0.000 OA
BRANCH  23  24
ATOM     24  C   UNL     1      10.787  14.886  18.644  0.00  0.00    +0.000 C 
BRANCH  24  26
ATOM     25  C   UNL     1       8.546  15.851  18.063  0.00  0.00    +0.000 C 
ATOM     26  C   UNL     1      10.042  15.919  17.805  0.00  0.00    +0.000 C 
ENDBRANCH  24  26
ENDBRANCH  23  24
ENDBRANCH  17  23
ENDBRANCH   1  21
TORSDOF 5
ENDMDL
MODEL 9
REMARK VINA RESULT:      -7.1      2.077      2.329
REMARK  Name = 
REMARK  7 active torsions:
REMARK  status: ('A' for Active; 'I' for Inactive)
REMARK    1  A    between atoms: C_1  and  C_2
REMARK    2  A    between atoms: C_2  and  C_3
REMARK    3  A    between atoms: C_3  and  O_4
REMARK    4  A    between atoms: O_4  and  C_5
REMARK    5  A    between atoms: C_9  and  N_10
REMARK    6  A    between atoms: N_13  and  C_14
REMARK    7  A    between atoms: C_19  and  C_20
REMARK                            x       y       z     vdW  Elec       q    Type
REMARK                         _______ _______ _______ _____ _____    ______ ____
ROOT
ATOM      1  N   UNL     1       2.698   7.760  18.525  0.00  0.00    +0.000 N 
ATOM      2  C   UNL     1       3.290   6.535  18.742  0.00  0.00    +0.000 C 
ATOM      3  O   UNL     1       3.151   5.835  19.735  0.00  0.00    +0.000 OA
ATOM      4  N   UNL     1       4.087   6.123  17.694  0.00  0.00    +0.000 N 
ATOM      5  H   UNL     1       3.032   8.310  17.746  0.00  0.00    +0.000 HD
ATOM      6  H   UNL     1       4.451   6.840  17.079  0.00  0.00    +0.000 HD
ENDROOT
BRANCH   4   7
ATOM      7  C   UNL     1       4.818   4.856  17.821  0.00  0.00    +0.000 C 
ATOM      8  C   UNL     1       6.280   5.094  18.248  0.00  0.00    +0.000 C 
ATOM      9  C   UNL     1       7.084   5.797  17.151  0.00  0.00    +0.000 C 
ATOM     10  C   UNL     1       6.827   5.190  15.821  0.00  0.00    +0.000 A 
ATOM     11  N   UNL     1       7.521   5.312  14.712  0.00  0.00    +0.000 NA
ATOM     12  C   UNL     1       6.812   4.550  13.814  0.00  0.00    +0.000 A 
ATOM     13  C   UNL     1       7.242   4.386  12.413  0.00  0.00    +0.000 C 
ATOM     14  N   UNL     1       5.707   3.977  14.308  0.00  0.00    +0.000 NA
ATOM     15  N   UNL     1       5.737   4.405  15.577  0.00  0.00    +0.000 N 
ATOM     16  C   UNL     1       4.751   3.998  16.551  0.00  0.00    +0.000 C 
ENDBRANCH   4   7
BRANCH   1  21
ATOM     17  C   UNL     1       0.280  10.249  19.864  0.00  0.00    +0.000 A 
ATOM     18  C   UNL     1       0.058   9.756  21.149  0.00  0.00    +0.000 A 
ATOM     19  C   UNL     1       0.665   8.572  21.557  0.00  0.00    +0.000 A 
ATOM     20  C   UNL     1       1.520   7.894  20.692  0.00  0.00    +0.000 A 
ATOM     21  C   UNL     1       1.790   8.393  19.411  0.00  0.00    +0.000 A 
ATOM     22  C   UNL     1       1.143   9.564  18.994  0.00  0.00    +0.000 A 
BRANCH  17  23
ATOM     23  O   UNL     1      -0.343  11.438  19.583  0.00  0.00    +0.000 OA
BRANCH  23  24
ATOM     24  C   UNL     1       0.433  12.610  19.825  0.00  0.00    +0.000 C 
BRANCH  24  26
ATOM     25  C   UNL     1       2.281  13.125  18.208  0.00  0.00    +0.000 C 
ATOM     26  C   UNL     1       0.792  13.252  18.488  0.00  0.00    +0.000 C 
ENDBRANCH  24  26
ENDBRANCH  23  24
ENDBRANCH  17  23
ENDBRANCH   1  21
TORSDOF 5
ENDMDL
