MODEL 1
REMARK VINA RESULT:      -8.3      0.000      0.000
REMARK  Name = 
REMARK  9 active torsions:
REMARK  status: ('A' for Active; 'I' for Inactive)
REMARK    1  A    between atoms: C_1  and  N_2
REMARK    2  A    between atoms: N_2  and  C_3
REMARK    3  A    between atoms: N_2  and  C_4
REMARK    4  A    between atoms: C_4  and  C_5
REMARK    5  A    between atoms: C_8  and  C_9
REMARK    6  A    between atoms: C_11  and  C_12
REMARK    7  A    between atoms: C_14  and  N_15
REMARK    8  A    between atoms: N_15  and  C_16
REMARK    9  A    between atoms: C_16  and  C_17
REMARK                            x       y       z     vdW  Elec       q    Type
REMARK                         _______ _______ _______ _____ _____    ______ ____
ROOT
ATOM      1  C   UNL     1       1.123   8.125  20.529  0.00  0.00    +0.000 A 
ATOM      2  C   UNL     1       1.240   6.939  21.172  0.00  0.00    +0.000 A 
ATOM      3  C   UNL     1       2.013   5.850  20.607  0.00  0.00    +0.000 A 
ATOM      4  C   UNL     1       2.644   5.978  19.412  0.00  0.00    +0.000 A 
ATOM      5  N   UNL     1       2.515   7.223  18.768  0.00  0.00    +0.000 N 
ATOM      6  C   UNL     1       3.042   7.680  17.590  0.00  0.00    +0.000 A 
ATOM      7  N   UNL     1       2.671   8.923  17.379  0.00  0.00    +0.000 NA
ATOM      8  N   UNL     1       1.885   9.311  18.440  0.00  0.00    +0.000 NA
ATOM      9  C   UNL     1       1.795   8.297  19.276  0.00  0.00    +0.000 A 
ENDROOT
BRANCH   1  13
ATOM     10  C   UNL     1      -1.200  11.184  22.409  0.00  0.00    +0.000 A 
ATOM     11  C   UNL     1      -0.677  10.123  23.163  0.00  0.00    +0.000 A 
ATOM     12  C   UNL     1       0.075   9.122  22.551  0.00  0.00    +0.000 A 
ATOM     13  C   UNL     1       0.308   9.162  21.172  0.00  0.00    +0.000 A 
ATOM     14  C   UNL     1      -0.240  10.201  20.408  0.00  0.00    +0.000 A 
ATOM     15  C   UNL     1      -0.991  11.204  21.023  0.00  0.00    +0.000 A 
BRANCH  10  16
ATOM     16  C   UNL     1      -1.925  12.326  23.091  0.00  0.00    +0.000 C 
BRANCH  16  18
ATOM     17  C   UNL     1      -3.914  12.571  24.478  0.00  0.00    +0.000 C 
ATOM     18  N   UNL     1      -3.379  12.106  23.194  0.00  0.00    +0.000 NA
ATOM     19  C   UNL     1      -4.070  12.788  22.100  0.00  0.00    +0.000 C 
ENDBRANCH  16  18
ENDBRANCH  10  16
ENDBRANCH   1  13
BRANCH   3  20
ATOM     20  C   UNL     1       2.125   4.509  21.316  0.00  0.00    +0.000 C 
ATOM     21  N   UNL     1       2.217   3.397  21.902  0.00  0.00    +0.000 NA
ENDBRANCH   3  20
BRANCH   4  22
ATOM     22  N   UNL     1       3.364   4.941  18.798  0.00  0.00    +0.000 N 
ATOM     23  H   UNL     1       2.974   4.682  17.890  0.00  0.00    +0.000 HD
BRANCH  22  24
ATOM     24  C   UNL     1       4.832   4.970  18.698  0.00  0.00    +0.000 C 
BRANCH  24  25
ATOM     25  C   UNL     1       5.347   4.858  17.291  0.00  0.00    +0.000 A 
ATOM     26  C   UNL     1       4.765   4.216  16.210  0.00  0.00    +0.000 A 
ATOM     27  C   UNL     1       5.583   4.259  15.040  0.00  0.00    +0.000 A 
ATOM     28  C   UNL     1       6.748   4.939  15.277  0.00  0.00    +0.000 A 
ATOM     29  F   UNL     1       7.672   5.107  14.367  0.00  0.00    +0.000 F 
ATOM     30  S   UNL     1       6.870   5.530  16.860  0.00  0.00    +0.000 S 
ENDBRANCH  24  25
ENDBRANCH  22  24
ENDBRANCH   4  22
TORSDOF 7
ENDMDL
MODEL 2
REMARK VINA RESULT:      -8.2      2.506      4.140
REMARK  Name = 
REMARK  9 active torsions:
REMARK  status: ('A' for Active; 'I' for Inactive)
REMARK    1  A    between atoms: C_1  and  N_2
REMARK    2  A    between atoms: N_2  and  C_3
REMARK    3  A    between atoms: N_2  and  C_4
REMARK    4  A    between atoms: C_4  and  C_5
REMARK    5  A    between atoms: C_8  and  C_9
REMARK    6  A    between atoms: C_11  and  C_12
REMARK    7  A    between atoms: C_14  and  N_15
REMARK    8  A    between atoms: N_15  and  C_16
REMARK    9  A    between atoms: C_16  and  C_17
REMARK                            x       y       z     vdW  Elec       q    Type
REMARK                         _______ _______ _______ _____ _____    ______ ____
ROOT
ATOM      1  C   UNL     1       2.990   6.880  18.210  0.00  0.00    +0.000 A 
ATOM      2  C   UNL     1       4.259   7.275  17.951  0.00  0.00    +0.000 A 
ATOM      3  C   UNL     1       5.243   6.350  17.424  0.00  0.00    +0.000 A 
ATOM      4  C   UNL     1       4.930   5.052  17.177  0.00  0.00    +0.000 A 
ATOM      5  N   UNL     1       3.603   4.668  17.445  0.00  0.00    +0.000 N 
ATOM      6  C   UNL     1       2.968   3.466  17.279  0.00  0.00    +0.000 A 
ATOM      7  N   UNL     1       1.711   3.562  17.648  0.00  0.00    +0.000 NA
ATOM      8  N   UNL     1       1.495   4.857  18.065  0.00  0.00    +0.000 NA
ATOM      9  C   UNL     1       2.625   5.522  17.939  0.00  0.00    +0.000 A 
ENDROOT
BRANCH   1  13
ATOM     10  C   UNL     1       0.355   9.845  19.807  0.00  0.00    +0.000 A 
ATOM     11  C   UNL     1       0.887   8.846  20.635  0.00  0.00    +0.000 A 
ATOM     12  C   UNL     1       1.741   7.875  20.114  0.00  0.00    +0.000 A 
ATOM     13  C   UNL     1       2.069   7.884  18.755  0.00  0.00    +0.000 A 
ATOM     14  C   UNL     1       1.514   8.859  17.916  0.00  0.00    +0.000 A 
ATOM     15  C   UNL     1       0.661   9.832  18.439  0.00  0.00    +0.000 A 
BRANCH  10  16
ATOM     16  C   UNL     1      -0.485  10.961  20.393  0.00  0.00    +0.000 C 
BRANCH  16  18
ATOM     17  C   UNL     1       0.291  12.958  21.555  0.00  0.00    +0.000 C 
ATOM     18  N   UNL     1       0.074  11.509  21.641  0.00  0.00    +0.000 NA
ATOM     19  C   UNL     1      -0.815  11.214  22.765  0.00  0.00    +0.000 C 
ENDBRANCH  16  18
ENDBRANCH  10  16
ENDBRANCH   1  13
BRANCH   3  20
ATOM     20  C   UNL     1       6.675   6.786  17.157  0.00  0.00    +0.000 C 
ATOM     21  N   UNL     1       7.862   7.149  16.935  0.00  0.00    +0.000 NA
ENDBRANCH   3  20
BRANCH   4  22
ATOM     22  N   UNL     1       5.856   4.105  16.713  0.00  0.00    +0.000 N 
ATOM     23  H   UNL     1       6.115   3.429  17.435  0.00  0.00    +0.000 HD
BRANCH  22  24
ATOM     24  C   UNL     1       5.666   3.393  15.438  0.00  0.00    +0.000 C 
BRANCH  24  25
ATOM     25  C   UNL     1       6.424   3.995  14.289  0.00  0.00    +0.000 A 
ATOM     26  C   UNL     1       7.424   4.954  14.325  0.00  0.00    +0.000 A 
ATOM     27  C   UNL     1       7.864   5.337  13.021  0.00  0.00    +0.000 A 
ATOM     28  C   UNL     1       7.189   4.648  12.050  0.00  0.00    +0.000 A 
ATOM     29  F   UNL     1       7.401   4.827  10.772  0.00  0.00    +0.000 F 
ATOM     30  S   UNL     1       6.054   3.553  12.669  0.00  0.00    +0.000 S 
ENDBRANCH  24  25
ENDBRANCH  22  24
ENDBRANCH   4  22
TORSDOF 7
ENDMDL
MODEL 3
REMARK VINA RESULT:      -8.1      2.809      4.314
REMARK  Name = 
REMARK  9 active torsions:
REMARK  status: ('A' for Active; 'I' for Inactive)
REMARK    1  A    between atoms: C_1  and  N_2
REMARK    2  A    between atoms: N_2  and  C_3
REMARK    3  A    between atoms: N_2  and  C_4
REMARK    4  A    between atoms: C_4  and  C_5
REMARK    5  A    between atoms: C_8  and  C_9
REMARK    6  A    between atoms: C_11  and  C_12
REMARK    7  A    between atoms: C_14  and  N_15
REMARK    8  A    between atoms: N_15  and  C_16
REMARK    9  A    between atoms: C_16  and  C_17
REMARK                            x       y       z     vdW  Elec       q    Type
REMARK                         _______ _______ _______ _____ _____    ______ ____
ROOT
ATOM      1  C   UNL     1       2.998   6.947  18.138  0.00  0.00    +0.000 A 
ATOM      2  C   UNL     1       4.276   7.318  17.893  0.00  0.00    +0.000 A 
ATOM      3  C   UNL     1       5.254   6.367  17.400  0.00  0.00    +0.000 A 
ATOM      4  C   UNL     1       4.925   5.071  17.170  0.00  0.00    +0.000 A 
ATOM      5  N   UNL     1       3.586   4.713  17.423  0.00  0.00    +0.000 N 
ATOM      6  C   UNL     1       2.935   3.518  17.267  0.00  0.00    +0.000 A 
ATOM      7  N   UNL     1       1.674   3.641  17.613  0.00  0.00    +0.000 NA
ATOM      8  N   UNL     1       1.472   4.946  18.004  0.00  0.00    +0.000 NA
ATOM      9  C   UNL     1       2.615   5.591  17.885  0.00  0.00    +0.000 A 
ENDROOT
BRANCH   1  13
ATOM     10  C   UNL     1       0.287   9.903  19.621  0.00  0.00    +0.000 A 
ATOM     11  C   UNL     1       0.645   9.884  18.265  0.00  0.00    +0.000 A 
ATOM     12  C   UNL     1       1.533   8.924  17.781  0.00  0.00    +0.000 A 
ATOM     13  C   UNL     1       2.084   7.976  18.650  0.00  0.00    +0.000 A 
ATOM     14  C   UNL     1       1.756   8.012  20.011  0.00  0.00    +0.000 A 
ATOM     15  C   UNL     1       0.865   8.972  20.494  0.00  0.00    +0.000 A 
BRANCH  10  16
ATOM     16  C   UNL     1      -0.759  10.877  20.124  0.00  0.00    +0.000 C 
BRANCH  16  18
ATOM     17  C   UNL     1      -2.709  11.815  19.001  0.00  0.00    +0.000 C 
ATOM     18  N   UNL     1      -1.243  11.794  19.076  0.00  0.00    +0.000 NA
ATOM     19  C   UNL     1      -0.747  13.149  19.323  0.00  0.00    +0.000 C 
ENDBRANCH  16  18
ENDBRANCH  10  16
ENDBRANCH   1  13
BRANCH   3  20
ATOM     20  C   UNL     1       6.697   6.776  17.149  0.00  0.00    +0.000 C 
ATOM     21  N   UNL     1       7.894   7.115  16.941  0.00  0.00    +0.000 NA
ENDBRANCH   3  20
BRANCH   4  22
ATOM     22  N   UNL     1       5.842   4.100  16.739  0.00  0.00    +0.000 N 
ATOM     23  H   UNL     1       6.070   3.427  17.474  0.00  0.00    +0.000 HD
BRANCH  22  24
ATOM     24  C   UNL     1       5.669   3.379  15.467  0.00  0.00    +0.000 C 
BRANCH  24  25
ATOM     25  C   UNL     1       6.431   3.981  14.320  0.00  0.00    +0.000 A 
ATOM     26  C   UNL     1       7.427   4.943  14.359  0.00  0.00    +0.000 A 
ATOM     27  C   UNL     1       7.872   5.324  13.056  0.00  0.00    +0.000 A 
ATOM     28  C   UNL     1       7.204   4.631  12.083  0.00  0.00    +0.000 A 
ATOM     29  F   UNL     1       7.421   4.807  10.806  0.00  0.00    +0.000 F 
ATOM     30  S   UNL     1       6.070   3.533  12.699  0.00  0.00    +0.000 S 
ENDBRANCH  24  25
ENDBRANCH  22  24
ENDBRANCH   4  22
TORSDOF 7
ENDMDL
MODEL 4
REMARK VINA RESULT:      -8.0      0.682      1.216
REMARK  Name = 
REMARK  9 active torsions:
REMARK  status: ('A' for Active; 'I' for Inactive)
REMARK    1  A    between atoms: C_1  and  N_2
REMARK    2  A    between atoms: N_2  and  C_3
REMARK    3  A    between atoms: N_2  and  C_4
REMARK    4  A    between atoms: C_4  and  C_5
REMARK    5  A    between atoms: C_8  and  C_9
REMARK    6  A    between atoms: C_11  and  C_12
REMARK    7  A    between atoms: C_14  and  N_15
REMARK    8  A    between atoms: N_15  and  C_16
REMARK    9  A    between atoms: C_16  and  C_17
REMARK                            x       y       z     vdW  Elec       q    Type
REMARK                         _______ _______ _______ _____ _____    ______ ____
ROOT
ATOM      1  C   UNL     1       1.379   7.757  20.505  0.00  0.00    +0.000 A 
ATOM      2  C   UNL     1       1.422   6.576  21.166  0.00  0.00    +0.000 A 
ATOM      3  C   UNL     1       2.134   5.436  20.623  0.00  0.00    +0.000 A 
ATOM      4  C   UNL     1       2.780   5.509  19.431  0.00  0.00    +0.000 A 
ATOM      5  N   UNL     1       2.729   6.750  18.769  0.00  0.00    +0.000 N 
ATOM      6  C   UNL     1       3.289   7.158  17.588  0.00  0.00    +0.000 A 
ATOM      7  N   UNL     1       2.994   8.417  17.356  0.00  0.00    +0.000 NA
ATOM      8  N   UNL     1       2.223   8.866  18.406  0.00  0.00    +0.000 NA
ATOM      9  C   UNL     1       2.068   7.871  19.255  0.00  0.00    +0.000 A 
ENDROOT
BRANCH   1  13
ATOM     10  C   UNL     1      -0.882  10.903  22.316  0.00  0.00    +0.000 A 
ATOM     11  C   UNL     1      -0.760  10.828  20.921  0.00  0.00    +0.000 A 
ATOM     12  C   UNL     1      -0.018   9.806  20.329  0.00  0.00    +0.000 A 
ATOM     13  C   UNL     1       0.620   8.850  21.126  0.00  0.00    +0.000 A 
ATOM     14  C   UNL     1       0.530   8.940  22.521  0.00  0.00    +0.000 A 
ATOM     15  C   UNL     1      -0.215   9.962  23.112  0.00  0.00    +0.000 A 
BRANCH  10  16
ATOM     16  C   UNL     1      -1.775  11.948  22.952  0.00  0.00    +0.000 C 
BRANCH  16  18
ATOM     17  C   UNL     1      -3.926  12.769  22.152  0.00  0.00    +0.000 C 
ATOM     18  N   UNL     1      -2.471  12.791  21.963  0.00  0.00    +0.000 NA
ATOM     19  C   UNL     1      -1.988  14.169  22.046  0.00  0.00    +0.000 C 
ENDBRANCH  16  18
ENDBRANCH  10  16
ENDBRANCH   1  13
BRANCH   3  20
ATOM     20  C   UNL     1       2.162   4.102  21.352  0.00  0.00    +0.000 C 
ATOM     21  N   UNL     1       2.185   2.995  21.957  0.00  0.00    +0.000 NA
ENDBRANCH   3  20
BRANCH   4  22
ATOM     22  N   UNL     1       3.443   4.423  18.839  0.00  0.00    +0.000 N 
ATOM     23  H   UNL     1       3.038   4.165  17.937  0.00  0.00    +0.000 HD
BRANCH  22  24
ATOM     24  C   UNL     1       4.911   4.373  18.736  0.00  0.00    +0.000 C 
BRANCH  24  25
ATOM     25  C   UNL     1       5.425   4.478  17.327  0.00  0.00    +0.000 A 
ATOM     26  C   UNL     1       4.812   4.066  16.155  0.00  0.00    +0.000 A 
ATOM     27  C   UNL     1       5.637   4.265  15.006  0.00  0.00    +0.000 A 
ATOM     28  C   UNL     1       6.836   4.828  15.351  0.00  0.00    +0.000 A 
ATOM     29  F   UNL     1       7.771   5.100  14.479  0.00  0.00    +0.000 F 
ATOM     30  S   UNL     1       6.984   5.129  17.011  0.00  0.00    +0.000 S 
ENDBRANCH  24  25
ENDBRANCH  22  24
ENDBRANCH   4  22
TORSDOF 7
ENDMDL
MODEL 5
REMARK VINA RESULT:      -8.0      0.839      1.345
REMARK  Name = 
REMARK  9 active torsions:
REMARK  status: ('A' for Active; 'I' for Inactive)
REMARK    1  A    between atoms: C_1  and  N_2
REMARK    2  A    between atoms: N_2  and  C_3
REMARK    3  A    between atoms: N_2  and  C_4
REMARK    4  A    between atoms: C_4  and  C_5
REMARK    5  A    between atoms: C_8  and  C_9
REMARK    6  A    between atoms: C_11  and  C_12
REMARK    7  A    between atoms: C_14  and  N_15
REMARK    8  A    between atoms: N_15  and  C_16
REMARK    9  A    between atoms: C_16  and  C_17
REMARK                            x       y       z     vdW  Elec       q    Type
REMARK                         _______ _______ _______ _____ _____    ______ ____
ROOT
ATOM      1  C   UNL     1       1.392   7.852  20.539  0.00  0.00    +0.000 A 
ATOM      2  C   UNL     1       1.413   6.670  21.198  0.00  0.00    +0.000 A 
ATOM      3  C   UNL     1       2.044   5.499  20.621  0.00  0.00    +0.000 A 
ATOM      4  C   UNL     1       2.632   5.543  19.399  0.00  0.00    +0.000 A 
ATOM      5  N   UNL     1       2.606   6.787  18.739  0.00  0.00    +0.000 N 
ATOM      6  C   UNL     1       3.125   7.170  17.531  0.00  0.00    +0.000 A 
ATOM      7  N   UNL     1       2.877   8.442  17.314  0.00  0.00    +0.000 NA
ATOM      8  N   UNL     1       2.181   8.924  18.400  0.00  0.00    +0.000 NA
ATOM      9  C   UNL     1       2.023   7.936  19.256  0.00  0.00    +0.000 A 
ENDROOT
BRANCH   1  13
ATOM     10  C   UNL     1      -0.628  11.116  22.425  0.00  0.00    +0.000 A 
ATOM     11  C   UNL     1       0.063  11.309  21.220  0.00  0.00    +0.000 A 
ATOM     12  C   UNL     1       0.727  10.247  20.607  0.00  0.00    +0.000 A 
ATOM     13  C   UNL     1       0.717   8.978  21.197  0.00  0.00    +0.000 A 
ATOM     14  C   UNL     1       0.057   8.788  22.417  0.00  0.00    +0.000 A 
ATOM     15  C   UNL     1      -0.609   9.851  23.029  0.00  0.00    +0.000 A 
BRANCH  10  16
ATOM     16  C   UNL     1      -1.437  12.242  23.034  0.00  0.00    +0.000 C 
BRANCH  16  18
ATOM     17  C   UNL     1      -3.658  12.496  24.007  0.00  0.00    +0.000 C 
ATOM     18  N   UNL     1      -2.888  12.087  22.826  0.00  0.00    +0.000 NA
ATOM     19  C   UNL     1      -3.318  12.870  21.667  0.00  0.00    +0.000 C 
ENDBRANCH  16  18
ENDBRANCH  10  16
ENDBRANCH   1  13
BRANCH   3  20
ATOM     20  C   UNL     1       2.046   4.163  21.349  0.00  0.00    +0.000 C 
ATOM     21  N   UNL     1       2.047   3.055  21.951  0.00  0.00    +0.000 NA
ENDBRANCH   3  20
BRANCH   4  22
ATOM     22  N   UNL     1       3.214   4.429  18.775  0.00  0.00    +0.000 N 
ATOM     23  H   UNL     1       3.029   4.406  17.770  0.00  0.00    +0.000 HD
BRANCH  22  24
ATOM     24  C   UNL     1       4.616   4.050  19.012  0.00  0.00    +0.000 C 
BRANCH  24  25
ATOM     25  C   UNL     1       5.577   4.612  18.002  0.00  0.00    +0.000 A 
ATOM     26  C   UNL     1       6.531   5.601  18.179  0.00  0.00    +0.000 A 
ATOM     27  C   UNL     1       7.214   5.926  16.968  0.00  0.00    +0.000 A 
ATOM     28  C   UNL     1       6.759   5.166  15.924  0.00  0.00    +0.000 A 
ATOM     29  F   UNL     1       7.218   5.282  14.705  0.00  0.00    +0.000 F 
ATOM     30  S   UNL     1       5.545   4.072  16.370  0.00  0.00    +0.000 S 
ENDBRANCH  24  25
ENDBRANCH  22  24
ENDBRANCH   4  22
TORSDOF 7
ENDMDL
MODEL 6
REMARK VINA RESULT:      -7.9      0.924      1.156
REMARK  Name = 
REMARK  9 active torsions:
REMARK  status: ('A' for Active; 'I' for Inactive)
REMARK    1  A    between atoms: C_1  and  N_2
REMARK    2  A    between atoms: N_2  and  C_3
REMARK    3  A    between atoms: N_2  and  C_4
REMARK    4  A    between atoms: C_4  and  C_5
REMARK    5  A    between atoms: C_8  and  C_9
REMARK    6  A    between atoms: C_11  and  C_12
REMARK    7  A    between atoms: C_14  and  N_15
REMARK    8  A    between atoms: N_15  and  C_16
REMARK    9  A    between atoms: C_16  and  C_17
REMARK                            x       y       z     vdW  Elec       q    Type
REMARK                         _______ _______ _______ _____ _____    ______ ____
ROOT
ATOM      1  C   UNL     1       1.344   7.773  20.477  0.00  0.00    +0.000 A 
ATOM      2  C   UNL     1       1.377   6.596  21.145  0.00  0.00    +0.000 A 
ATOM      3  C   UNL     1       2.092   5.452  20.616  0.00  0.00    +0.000 A 
ATOM      4  C   UNL     1       2.750   5.516  19.430  0.00  0.00    +0.000 A 
ATOM      5  N   UNL     1       2.709   6.754  18.761  0.00  0.00    +0.000 N 
ATOM      6  C   UNL     1       3.282   7.154  17.583  0.00  0.00    +0.000 A 
ATOM      7  N   UNL     1       2.992   8.412  17.342  0.00  0.00    +0.000 NA
ATOM      8  N   UNL     1       2.212   8.868  18.380  0.00  0.00    +0.000 NA
ATOM      9  C   UNL     1       2.046   7.879  19.234  0.00  0.00    +0.000 A 
ENDROOT
BRANCH   1  13
ATOM     10  C   UNL     1      -0.823  11.008  22.247  0.00  0.00    +0.000 A 
ATOM     11  C   UNL     1      -0.263  10.003  23.050  0.00  0.00    +0.000 A 
ATOM     12  C   UNL     1       0.438   8.945  22.474  0.00  0.00    +0.000 A 
ATOM     13  C   UNL     1       0.582   8.872  21.085  0.00  0.00    +0.000 A 
ATOM     14  C   UNL     1      -0.003   9.854  20.276  0.00  0.00    +0.000 A 
ATOM     15  C   UNL     1      -0.704  10.914  20.854  0.00  0.00    +0.000 A 
BRANCH  10  16
ATOM     16  C   UNL     1      -1.491  12.212  22.879  0.00  0.00    +0.000 C 
BRANCH  16  18
ATOM     17  C   UNL     1      -2.637  14.223  22.118  0.00  0.00    +0.000 C 
ATOM     18  N   UNL     1      -1.411  13.421  22.041  0.00  0.00    +0.000 NA
ATOM     19  C   UNL     1      -0.266  14.239  22.443  0.00  0.00    +0.000 C 
ENDBRANCH  16  18
ENDBRANCH  10  16
ENDBRANCH   1  13
BRANCH   3  20
ATOM     20  C   UNL     1       2.110   4.121  21.353  0.00  0.00    +0.000 C 
ATOM     21  N   UNL     1       2.124   3.018  21.962  0.00  0.00    +0.000 NA
ENDBRANCH   3  20
BRANCH   4  22
ATOM     22  N   UNL     1       3.417   4.426  18.851  0.00  0.00    +0.000 N 
ATOM     23  H   UNL     1       3.026   4.169  17.942  0.00  0.00    +0.000 HD
BRANCH  22  24
ATOM     24  C   UNL     1       4.886   4.366  18.773  0.00  0.00    +0.000 C 
BRANCH  24  25
ATOM     25  C   UNL     1       5.424   4.454  17.373  0.00  0.00    +0.000 A 
ATOM     26  C   UNL     1       4.819   4.056  16.192  0.00  0.00    +0.000 A 
ATOM     27  C   UNL     1       5.667   4.231  15.056  0.00  0.00    +0.000 A 
ATOM     28  C   UNL     1       6.875   4.761  15.418  0.00  0.00    +0.000 A 
ATOM     29  F   UNL     1       7.832   5.006  14.561  0.00  0.00    +0.000 F 
ATOM     30  S   UNL     1       7.006   5.061  17.080  0.00  0.00    +0.000 S 
ENDBRANCH  24  25
ENDBRANCH  22  24
ENDBRANCH   4  22
TORSDOF 7
ENDMDL
MODEL 7
REMARK VINA RESULT:      -7.9      0.958      1.170
REMARK  Name = 
REMARK  9 active torsions:
REMARK  status: ('A' for Active; 'I' for Inactive)
REMARK    1  A    between atoms: C_1  and  N_2
REMARK    2  A    between atoms: N_2  and  C_3
REMARK    3  A    between atoms: N_2  and  C_4
REMARK    4  A    between atoms: C_4  and  C_5
REMARK    5  A    between atoms: C_8  and  C_9
REMARK    6  A    between atoms: C_11  and  C_12
REMARK    7  A    between atoms: C_14  and  N_15
REMARK    8  A    between atoms: N_15  and  C_16
REMARK    9  A    between atoms: C_16  and  C_17
REMARK                            x       y       z     vdW  Elec       q    Type
REMARK                         _______ _______ _______ _____ _____    ______ ____
ROOT
ATOM      1  C   UNL     1       1.352   7.976  20.493  0.00  0.00    +0.000 A 
ATOM      2  C   UNL     1       1.383   6.799  21.161  0.00  0.00    +0.000 A 
ATOM      3  C   UNL     1       2.057   5.640  20.611  0.00  0.00    +0.000 A 
ATOM      4  C   UNL     1       2.677   5.690  19.404  0.00  0.00    +0.000 A 
ATOM      5  N   UNL     1       2.639   6.928  18.734  0.00  0.00    +0.000 N 
ATOM      6  C   UNL     1       3.181   7.315  17.538  0.00  0.00    +0.000 A 
ATOM      7  N   UNL     1       2.908   8.579  17.304  0.00  0.00    +0.000 NA
ATOM      8  N   UNL     1       2.172   9.052  18.368  0.00  0.00    +0.000 NA
ATOM      9  C   UNL     1       2.015   8.066  19.227  0.00  0.00    +0.000 A 
ENDROOT
BRANCH   1  13
ATOM     10  C   UNL     1      -0.689  11.239  22.358  0.00  0.00    +0.000 A 
ATOM     11  C   UNL     1      -0.679   9.971  22.958  0.00  0.00    +0.000 A 
ATOM     12  C   UNL     1      -0.020   8.905  22.347  0.00  0.00    +0.000 A 
ATOM     13  C   UNL     1       0.632   9.090  21.124  0.00  0.00    +0.000 A 
ATOM     14  C   UNL     1       0.598  10.346  20.505  0.00  0.00    +0.000 A 
ATOM     15  C   UNL     1      -0.062  11.413  21.117  0.00  0.00    +0.000 A 
BRANCH  10  16
ATOM     16  C   UNL     1      -1.313  12.420  23.073  0.00  0.00    +0.000 C 
BRANCH  16  18
ATOM     17  C   UNL     1      -3.681  12.587  22.519  0.00  0.00    +0.000 C 
ATOM     18  N   UNL     1      -2.334  13.110  22.264  0.00  0.00    +0.000 NA
ATOM     19  C   UNL     1      -2.307  14.547  22.537  0.00  0.00    +0.000 C 
ENDBRANCH  16  18
ENDBRANCH  10  16
ENDBRANCH   1  13
BRANCH   3  20
ATOM     20  C   UNL     1       2.072   4.310  21.348  0.00  0.00    +0.000 C 
ATOM     21  N   UNL     1       2.085   3.207  21.959  0.00  0.00    +0.000 NA
ENDBRANCH   3  20
BRANCH   4  22
ATOM     22  N   UNL     1       3.302   4.586  18.804  0.00  0.00    +0.000 N 
ATOM     23  H   UNL     1       3.146   4.552  17.794  0.00  0.00    +0.000 HD
BRANCH  22  24
ATOM     24  C   UNL     1       4.706   4.243  19.082  0.00  0.00    +0.000 C 
BRANCH  24  25
ATOM     25  C   UNL     1       5.604   4.339  17.881  0.00  0.00    +0.000 A 
ATOM     26  C   UNL     1       6.952   4.660  17.839  0.00  0.00    +0.000 A 
ATOM     27  C   UNL     1       7.458   4.724  16.505  0.00  0.00    +0.000 A 
ATOM     28  C   UNL     1       6.479   4.441  15.591  0.00  0.00    +0.000 A 
ATOM     29  F   UNL     1       6.687   4.445  14.300  0.00  0.00    +0.000 F 
ATOM     30  S   UNL     1       4.980   4.092  16.299  0.00  0.00    +0.000 S 
ENDBRANCH  24  25
ENDBRANCH  22  24
ENDBRANCH   4  22
TORSDOF 7
ENDMDL
MODEL 8
REMARK VINA RESULT:      -7.8      1.643      2.129
REMARK  Name = 
REMARK  9 active torsions:
REMARK  status: ('A' for Active; 'I' for Inactive)
REMARK    1  A    between atoms: C_1  and  N_2
REMARK    2  A    between atoms: N_2  and  C_3
REMARK    3  A    between atoms: N_2  and  C_4
REMARK    4  A    between atoms: C_4  and  C_5
REMARK    5  A    between atoms: C_8  and  C_9
REMARK    6  A    between atoms: C_11  and  C_12
REMARK    7  A    between atoms: C_14  and  N_15
REMARK    8  A    between atoms: N_15  and  C_16
REMARK    9  A    between atoms: C_16  and  C_17
REMARK                            x       y       z     vdW  Elec       q    Type
REMARK                         _______ _______ _______ _____ _____    ______ ____
ROOT
ATOM      1  C   UNL     1       1.499   7.530  20.352  0.00  0.00    +0.000 A 
ATOM      2  C   UNL     1       1.442   6.368  21.044  0.00  0.00    +0.000 A 
ATOM      3  C   UNL     1       2.064   5.160  20.538  0.00  0.00    +0.000 A 
ATOM      4  C   UNL     1       2.722   5.149  19.351  0.00  0.00    +0.000 A 
ATOM      5  N   UNL     1       2.776   6.372  18.656  0.00  0.00    +0.000 N 
ATOM      6  C   UNL     1       3.376   6.701  17.470  0.00  0.00    +0.000 A 
ATOM      7  N   UNL     1       3.184   7.973  17.203  0.00  0.00    +0.000 NA
ATOM      8  N   UNL     1       2.445   8.511  18.233  0.00  0.00    +0.000 NA
ATOM      9  C   UNL     1       2.204   7.555  19.106  0.00  0.00    +0.000 A 
ENDROOT
BRANCH   1  13
ATOM     10  C   UNL     1      -0.511  10.894  22.065  0.00  0.00    +0.000 A 
ATOM     11  C   UNL     1      -0.486  10.714  20.674  0.00  0.00    +0.000 A 
ATOM     12  C   UNL     1       0.175   9.621  20.114  0.00  0.00    +0.000 A 
ATOM     13  C   UNL     1       0.827   8.697  20.938  0.00  0.00    +0.000 A 
ATOM     14  C   UNL     1       0.833   8.890  22.325  0.00  0.00    +0.000 A 
ATOM     15  C   UNL     1       0.170   9.984  22.885  0.00  0.00    +0.000 A 
BRANCH  10  16
ATOM     16  C   UNL     1      -1.318  12.020  22.677  0.00  0.00    +0.000 C 
BRANCH  16  18
ATOM     17  C   UNL     1       0.136  13.827  21.929  0.00  0.00    +0.000 C 
ATOM     18  N   UNL     1      -0.489  13.170  23.082  0.00  0.00    +0.000 NA
ATOM     19  C   UNL     1      -1.298  14.140  23.819  0.00  0.00    +0.000 C 
ENDBRANCH  16  18
ENDBRANCH  10  16
ENDBRANCH   1  13
BRANCH   3  20
ATOM     20  C   UNL     1       1.979   3.848  21.302  0.00  0.00    +0.000 C 
ATOM     21  N   UNL     1       1.908   2.760  21.936  0.00  0.00    +0.000 NA
ENDBRANCH   3  20
BRANCH   4  22
ATOM     22  N   UNL     1       3.300   3.998  18.793  0.00  0.00    +0.000 N 
ATOM     23  H   UNL     1       3.140   3.931  17.786  0.00  0.00    +0.000 HD
BRANCH  22  24
ATOM     24  C   UNL     1       4.689   3.608  19.083  0.00  0.00    +0.000 C 
BRANCH  24  25
ATOM     25  C   UNL     1       5.716   4.503  18.447  0.00  0.00    +0.000 A 
ATOM     26  C   UNL     1       6.170   4.496  17.138  0.00  0.00    +0.000 A 
ATOM     27  C   UNL     1       7.208   5.451  16.914  0.00  0.00    +0.000 A 
ATOM     28  C   UNL     1       7.493   6.149  18.056  0.00  0.00    +0.000 A 
ATOM     29  F   UNL     1       8.415   7.074  18.114  0.00  0.00    +0.000 F 
ATOM     30  S   UNL     1       6.539   5.691  19.378  0.00  0.00    +0.000 S 
ENDBRANCH  24  25
ENDBRANCH  22  24
ENDBRANCH   4  22
TORSDOF 7
ENDMDL
MODEL 9
REMARK VINA RESULT:      -7.7      1.392      1.512
REMARK  Name = 
REMARK  9 active torsions:
REMARK  status: ('A' for Active; 'I' for Inactive)
REMARK    1  A    between atoms: C_1  and  N_2
REMARK    2  A    between atoms: N_2  and  C_3
REMARK    3  A    between atoms: N_2  and  C_4
REMARK    4  A    between atoms: C_4  and  C_5
REMARK    5  A    between atoms: C_8  and  C_9
REMARK    6  A    between atoms: C_11  and  C_12
REMARK    7  A    between atoms: C_14  and  N_15
REMARK    8  A    between atoms: N_15  and  C_16
REMARK    9  A    between atoms: C_16  and  C_17
REMARK                            x       y       z     vdW  Elec       q    Type
REMARK                         _______ _______ _______ _____ _____    ______ ____
ROOT
ATOM      1  C   UNL     1       1.446   7.498  20.423  0.00  0.00    +0.000 A 
ATOM      2  C   UNL     1       1.409   6.328  21.103  0.00  0.00    +0.000 A 
ATOM      3  C   UNL     1       2.049   5.136  20.585  0.00  0.00    +0.000 A 
ATOM      4  C   UNL     1       2.705   5.146  19.396  0.00  0.00    +0.000 A 
ATOM      5  N   UNL     1       2.738   6.377  18.713  0.00  0.00    +0.000 N 
ATOM      6  C   UNL     1       3.330   6.728  17.529  0.00  0.00    +0.000 A 
ATOM      7  N   UNL     1       3.117   7.999  17.275  0.00  0.00    +0.000 NA
ATOM      8  N   UNL     1       2.371   8.514  18.311  0.00  0.00    +0.000 NA
ATOM      9  C   UNL     1       2.148   7.546  19.176  0.00  0.00    +0.000 A 
ENDROOT
BRANCH   1  13
ATOM     10  C   UNL     1      -0.508  10.865  22.193  0.00  0.00    +0.000 A 
ATOM     11  C   UNL     1      -0.524   9.617  22.833  0.00  0.00    +0.000 A 
ATOM     12  C   UNL     1       0.108   8.517  22.253  0.00  0.00    +0.000 A 
ATOM     13  C   UNL     1       0.756   8.648  21.021  0.00  0.00    +0.000 A 
ATOM     14  C   UNL     1       0.746   9.883  20.362  0.00  0.00    +0.000 A 
ATOM     15  C   UNL     1       0.115  10.985  20.943  0.00  0.00    +0.000 A 
BRANCH  10  16
ATOM     16  C   UNL     1      -1.101  12.083  22.872  0.00  0.00    +0.000 C 
BRANCH  16  18
ATOM     17  C   UNL     1      -3.305  12.633  23.756  0.00  0.00    +0.000 C 
ATOM     18  N   UNL     1      -2.529  12.278  22.562  0.00  0.00    +0.000 NA
ATOM     19  C   UNL     1      -2.686  13.320  21.548  0.00  0.00    +0.000 C 
ENDBRANCH  16  18
ENDBRANCH  10  16
ENDBRANCH   1  13
BRANCH   3  20
ATOM     20  C   UNL     1       1.988   3.815  21.335  0.00  0.00    +0.000 C 
ATOM     21  N   UNL     1       1.935   2.719  21.958  0.00  0.00    +0.000 NA
ENDBRANCH   3  20
BRANCH   4  22
ATOM     22  N   UNL     1       3.300   4.011  18.826  0.00  0.00    +0.000 N 
ATOM     23  H   UNL     1       3.142   3.953  17.817  0.00  0.00    +0.000 HD
BRANCH  22  24
ATOM     24  C   UNL     1       4.695   3.639  19.112  0.00  0.00    +0.000 C 
BRANCH  24  25
ATOM     25  C   UNL     1       5.709   4.533  18.457  0.00  0.00    +0.000 A 
ATOM     26  C   UNL     1       6.127   4.537  17.136  0.00  0.00    +0.000 A 
ATOM     27  C   UNL     1       7.164   5.488  16.892  0.00  0.00    +0.000 A 
ATOM     28  C   UNL     1       7.485   6.173  18.033  0.00  0.00    +0.000 A 
ATOM     29  F   UNL     1       8.414   7.092  18.075  0.00  0.00    +0.000 F 
ATOM     30  S   UNL     1       6.565   5.707  19.377  0.00  0.00    +0.000 S 
ENDBRANCH  24  25
ENDBRANCH  22  24
ENDBRANCH   4  22
TORSDOF 7
ENDMDL
