MODEL 1
REMARK VINA RESULT:      -7.1      0.000      0.000
REMARK  Name = 
REMARK  7 active torsions:
REMARK  status: ('A' for Active; 'I' for Inactive)
REMARK    1  A    between atoms: C_1  and  C_2
REMARK    2  A    between atoms: C_2  and  N_3
REMARK    3  A    between atoms: C_2  and  C_13
REMARK    4  A    between atoms: C_13  and  O_14
REMARK    5  A    between atoms: C_13  and  C_15
REMARK    6  A    between atoms: C_13  and  C_21
REMARK    7  A    between atoms: C_15  and  N_16
REMARK                            x       y       z     vdW  Elec       q    Type
REMARK                         _______ _______ _______ _____ _____    ______ ____
ROOT
ATOM      1  C   UNL     1       2.630   6.322  19.124  0.00  0.00    +0.000 C 
ENDROOT
BRANCH   1   2
ATOM      2  C   UNL     1       2.098   7.750  19.524  0.00  0.00    +0.000 A 
ATOM      3  C   UNL     1       1.702   8.008  20.857  0.00  0.00    +0.000 A 
ATOM      4  C   UNL     1       0.934   9.140  21.210  0.00  0.00    +0.000 A 
ATOM      5  C   UNL     1       0.582  10.091  20.257  0.00  0.00    +0.000 A 
ATOM      6  F   UNL     1      -0.180  11.131  20.588  0.00  0.00    +0.000 F 
ATOM      7  C   UNL     1       0.978   9.918  18.943  0.00  0.00    +0.000 A 
ATOM      8  C   UNL     1       1.671   8.752  18.598  0.00  0.00    +0.000 A 
ATOM      9  F   UNL     1       1.770   8.579  17.279  0.00  0.00    +0.000 F 
ENDBRANCH   1   2
BRANCH   1  11
ATOM     10  C   UNL     1       3.976   7.008  16.922  0.00  0.00    +0.000 C 
ATOM     11  C   UNL     1       3.899   5.945  18.074  0.00  0.00    +0.000 C 
BRANCH  11  12
ATOM     12  N   UNL     1       4.210   4.560  17.466  0.00  0.00    +0.000 NA
ATOM     13  C   UNL     1       4.813   3.650  18.484  0.00  0.00    +0.000 C 
ATOM     14  C   UNL     1       6.021   4.271  19.237  0.00  0.00    +0.000 C 
ATOM     15  C   UNL     1       6.839   5.152  18.312  0.00  0.00    +0.000 A 
ATOM     16  N   UNL     1       7.541   6.247  18.795  0.00  0.00    +0.000 NA
ATOM     17  C   UNL     1       7.734   7.100  17.810  0.00  0.00    +0.000 A 
ATOM     18 BR   UNL     1       8.153   8.910  18.107  0.00  0.00    +0.000 Br
ATOM     19  S   UNL     1       7.369   6.534  16.234  0.00  0.00    +0.000 S 
ATOM     20  C   UNL     1       6.521   5.253  16.965  0.00  0.00    +0.000 A 
ATOM     21  C   UNL     1       5.300   4.612  16.384  0.00  0.00    +0.000 C 
ENDBRANCH  11  12
ENDBRANCH   1  11
BRANCH   1  22
ATOM     22  O   UNL     1       3.083   5.794  20.419  0.00  0.00    +0.000 OA
ATOM     23  H   UNL     1       3.825   5.185  20.260  0.00  0.00    +0.000 HD
ENDBRANCH   1  22
BRANCH   1  24
ATOM     24  C   UNL     1       1.453   5.352  18.732  0.00  0.00    +0.000 C 
BRANCH  24  25
ATOM     25  N   UNL     1       1.239   4.089  19.410  0.00  0.00    +0.000 N 
ATOM     26  C   UNL     1       1.441   2.856  18.859  0.00  0.00    +0.000 A 
ATOM     27  N   UNL     1       1.506   1.938  19.811  0.00  0.00    +0.000 NA
ATOM     28  C   UNL     1       1.329   2.677  20.944  0.00  0.00    +0.000 A 
ATOM     29  N   UNL     1       1.122   3.984  20.750  0.00  0.00    +0.000 NA
ENDBRANCH  24  25
ENDBRANCH   1  24
TORSDOF 6
ENDMDL
MODEL 2
REMARK VINA RESULT:      -7.0      6.326      9.404
REMARK  Name = 
REMARK  7 active torsions:
REMARK  status: ('A' for Active; 'I' for Inactive)
REMARK    1  A    between atoms: C_1  and  C_2
REMARK    2  A    between atoms: C_2  and  N_3
REMARK    3  A    between atoms: C_2  and  C_13
REMARK    4  A    between atoms: C_13  and  O_14
REMARK    5  A    between atoms: C_13  and  C_15
REMARK    6  A    between atoms: C_13  and  C_21
REMARK    7  A    between atoms: C_15  and  N_16
REMARK                            x       y       z     vdW  Elec       q    Type
REMARK                         _______ _______ _______ _____ _____    ______ ____
ROOT
ATOM      1  C   UNL     1      -0.530  10.881  19.201  0.00  0.00    +0.000 C 
ENDROOT
BRANCH   1   2
ATOM      2  C   UNL     1       0.575   9.798  19.491  0.00  0.00    +0.000 A 
ATOM      3  C   UNL     1       1.469   9.409  18.467  0.00  0.00    +0.000 A 
ATOM      4  C   UNL     1       2.261   8.242  18.558  0.00  0.00    +0.000 A 
ATOM      5  C   UNL     1       2.235   7.449  19.701  0.00  0.00    +0.000 A 
ATOM      6  F   UNL     1       2.948   6.326  19.762  0.00  0.00    +0.000 F 
ATOM      7  C   UNL     1       1.413   7.799  20.756  0.00  0.00    +0.000 A 
ATOM      8  C   UNL     1       0.579   8.916  20.617  0.00  0.00    +0.000 A 
ATOM      9  F   UNL     1      -0.339   9.001  21.581  0.00  0.00    +0.000 F 
ENDBRANCH   1   2
BRANCH   1  11
ATOM     10  C   UNL     1      -0.800  13.533  19.023  0.00  0.00    +0.000 C 
ATOM     11  C   UNL     1      -0.806  12.329  20.029  0.00  0.00    +0.000 C 
BRANCH  11  12
ATOM     12  N   UNL     1      -0.114  12.792  21.330  0.00  0.00    +0.000 NA
ATOM     13  C   UNL     1      -0.422  11.866  22.460  0.00  0.00    +0.000 C 
ATOM     14  C   UNL     1      -1.938  11.588  22.642  0.00  0.00    +0.000 C 
ATOM     15  C   UNL     1      -2.757  12.825  22.327  0.00  0.00    +0.000 A 
ATOM     16  N   UNL     1      -4.047  12.727  21.824  0.00  0.00    +0.000 NA
ATOM     17  C   UNL     1      -4.342  13.839  21.183  0.00  0.00    +0.000 A 
ATOM     18 BR   UNL     1      -5.733  13.940  19.921  0.00  0.00    +0.000 Br
ATOM     19  S   UNL     1      -3.252  15.146  21.391  0.00  0.00    +0.000 S 
ATOM     20  C   UNL     1      -2.135  14.025  22.014  0.00  0.00    +0.000 A 
ATOM     21  C   UNL     1      -0.652  14.135  21.848  0.00  0.00    +0.000 C 
ENDBRANCH  11  12
ENDBRANCH   1  11
BRANCH   1  22
ATOM     22  O   UNL     1      -0.175  11.321  17.844  0.00  0.00    +0.000 OA
ATOM     23  H   UNL     1       0.546  11.971  17.909  0.00  0.00    +0.000 HD
ENDBRANCH   1  22
BRANCH   1  24
ATOM     24  C   UNL     1      -1.950  10.228  19.008  0.00  0.00    +0.000 C 
BRANCH  24  25
ATOM     25  N   UNL     1      -2.693  10.355  17.770  0.00  0.00    +0.000 N 
ATOM     26  C   UNL     1      -3.729  11.219  17.559  0.00  0.00    +0.000 A 
ATOM     27  N   UNL     1      -3.955  11.351  16.261  0.00  0.00    +0.000 NA
ATOM     28  C   UNL     1      -3.014  10.528  15.715  0.00  0.00    +0.000 A 
ATOM     29  N   UNL     1      -2.249   9.869  16.592  0.00  0.00    +0.000 NA
ENDBRANCH  24  25
ENDBRANCH   1  24
TORSDOF 6
ENDMDL
MODEL 3
REMARK VINA RESULT:      -6.9      4.056      6.596
REMARK  Name = 
REMARK  7 active torsions:
REMARK  status: ('A' for Active; 'I' for Inactive)
REMARK    1  A    between atoms: C_1  and  C_2
REMARK    2  A    between atoms: C_2  and  N_3
REMARK    3  A    between atoms: C_2  and  C_13
REMARK    4  A    between atoms: C_13  and  O_14
REMARK    5  A    between atoms: C_13  and  C_15
REMARK    6  A    between atoms: C_13  and  C_21
REMARK    7  A    between atoms: C_15  and  N_16
REMARK                            x       y       z     vdW  Elec       q    Type
REMARK                         _______ _______ _______ _____ _____    ______ ____
ROOT
ATOM      1  C   UNL     1       5.432   5.351  16.711  0.00  0.00    +0.000 C 
ENDROOT
BRANCH   1   2
ATOM      2  C   UNL     1       6.332   6.365  17.512  0.00  0.00    +0.000 A 
ATOM      3  C   UNL     1       6.433   7.710  17.085  0.00  0.00    +0.000 A 
ATOM      4  C   UNL     1       7.446   8.577  17.553  0.00  0.00    +0.000 A 
ATOM      5  C   UNL     1       8.362   8.154  18.510  0.00  0.00    +0.000 A 
ATOM      6  F   UNL     1       9.342   8.961  18.912  0.00  0.00    +0.000 F 
ATOM      7  C   UNL     1       8.290   6.863  19.000  0.00  0.00    +0.000 A 
ATOM      8  C   UNL     1       7.328   5.995  18.469  0.00  0.00    +0.000 A 
ATOM      9  F   UNL     1       7.521   4.725  18.828  0.00  0.00    +0.000 F 
ENDBRANCH   1   2
BRANCH   1  11
ATOM     10  C   UNL     1       3.859   3.198  16.553  0.00  0.00    +0.000 C 
ATOM     11  C   UNL     1       4.000   4.612  17.219  0.00  0.00    +0.000 C 
BRANCH  11  12
ATOM     12  N   UNL     1       2.597   5.257  17.268  0.00  0.00    +0.000 NA
ATOM     13  C   UNL     1       2.567   6.404  18.223  0.00  0.00    +0.000 C 
ATOM     14  C   UNL     1       3.128   6.058  19.629  0.00  0.00    +0.000 C 
ATOM     15  C   UNL     1       2.774   4.635  20.018  0.00  0.00    +0.000 A 
ATOM     16  N   UNL     1       3.595   3.891  20.852  0.00  0.00    +0.000 NA
ATOM     17  C   UNL     1       3.372   2.610  20.642  0.00  0.00    +0.000 A 
ATOM     18 BR   UNL     1       4.598   1.274  21.142  0.00  0.00    +0.000 Br
ATOM     19  S   UNL     1       2.000   2.226  19.687  0.00  0.00    +0.000 S 
ATOM     20  C   UNL     1       1.973   3.855  19.196  0.00  0.00    +0.000 A 
ATOM     21  C   UNL     1       1.526   4.318  17.845  0.00  0.00    +0.000 C 
ENDBRANCH  11  12
ENDBRANCH   1  11
BRANCH   1  22
ATOM     22  O   UNL     1       5.014   6.161  15.558  0.00  0.00    +0.000 OA
ATOM     23  H   UNL     1       5.694   6.087  14.867  0.00  0.00    +0.000 HD
ENDBRANCH   1  22
BRANCH   1  24
ATOM     24  C   UNL     1       6.290   4.204  16.054  0.00  0.00    +0.000 C 
BRANCH  24  25
ATOM     25  N   UNL     1       6.855   4.333  14.726  0.00  0.00    +0.000 N 
ATOM     26  C   UNL     1       6.376   3.720  13.604  0.00  0.00    +0.000 A 
ATOM     27  N   UNL     1       6.869   4.301  12.522  0.00  0.00    +0.000 NA
ATOM     28  C   UNL     1       7.662   5.278  13.050  0.00  0.00    +0.000 A 
ATOM     29  N   UNL     1       7.719   5.312  14.385  0.00  0.00    +0.000 NA
ENDBRANCH  24  25
ENDBRANCH   1  24
TORSDOF 6
ENDMDL
MODEL 4
REMARK VINA RESULT:      -6.7      8.064     11.266
REMARK  Name = 
REMARK  7 active torsions:
REMARK  status: ('A' for Active; 'I' for Inactive)
REMARK    1  A    between atoms: C_1  and  C_2
REMARK    2  A    between atoms: C_2  and  N_3
REMARK    3  A    between atoms: C_2  and  C_13
REMARK    4  A    between atoms: C_13  and  O_14
REMARK    5  A    between atoms: C_13  and  C_15
REMARK    6  A    between atoms: C_13  and  C_21
REMARK    7  A    between atoms: C_15  and  N_16
REMARK                            x       y       z     vdW  Elec       q    Type
REMARK                         _______ _______ _______ _____ _____    ______ ____
ROOT
ATOM      1  C   UNL     1      -1.095  13.294  22.126  0.00  0.00    +0.000 C 
ENDROOT
BRANCH   1   2
ATOM      2  C   UNL     1      -0.975  11.743  21.883  0.00  0.00    +0.000 A 
ATOM      3  C   UNL     1      -0.823  10.865  22.982  0.00  0.00    +0.000 A 
ATOM      4  C   UNL     1      -0.399   9.527  22.825  0.00  0.00    +0.000 A 
ATOM      5  C   UNL     1      -0.167   8.993  21.561  0.00  0.00    +0.000 A 
ATOM      6  F   UNL     1       0.277   7.746  21.424  0.00  0.00    +0.000 F 
ATOM      7  C   UNL     1      -0.340   9.789  20.443  0.00  0.00    +0.000 A 
ATOM      8  C   UNL     1      -0.686  11.133  20.622  0.00  0.00    +0.000 A 
ATOM      9  F   UNL     1      -0.573  11.851  19.503  0.00  0.00    +0.000 F 
ENDBRANCH   1   2
BRANCH   1  11
ATOM     10  C   UNL     1      -2.509  15.296  21.065  0.00  0.00    +0.000 C 
ATOM     11  C   UNL     1      -2.504  14.224  22.211  0.00  0.00    +0.000 C 
BRANCH  11  12
ATOM     12  N   UNL     1      -3.102  14.877  23.476  0.00  0.00    +0.000 NA
ATOM     13  C   UNL     1      -3.369  13.856  24.531  0.00  0.00    +0.000 C 
ATOM     14  C   UNL     1      -4.192  12.639  24.026  0.00  0.00    +0.000 C 
ATOM     15  C   UNL     1      -5.221  13.071  22.999  0.00  0.00    +0.000 A 
ATOM     16  N   UNL     1      -5.633  12.214  21.988  0.00  0.00    +0.000 NA
ATOM     17  C   UNL     1      -6.100  12.929  20.986  0.00  0.00    +0.000 A 
ATOM     18 BR   UNL     1      -6.264  12.240  19.242  0.00  0.00    +0.000 Br
ATOM     19  S   UNL     1      -6.351  14.596  21.294  0.00  0.00    +0.000 S 
ATOM     20  C   UNL     1      -5.389  14.412  22.686  0.00  0.00    +0.000 A 
ATOM     21  C   UNL     1      -4.496  15.478  23.238  0.00  0.00    +0.000 C 
ENDBRANCH  11  12
ENDBRANCH   1  11
BRANCH   1  22
ATOM     22  O   UNL     1      -0.504  13.438  23.465  0.00  0.00    +0.000 OA
ATOM     23  H   UNL     1       0.032  12.649  23.651  0.00  0.00    +0.000 HD
ENDBRANCH   1  22
BRANCH   1  24
ATOM     24  C   UNL     1      -0.106  14.106  21.207  0.00  0.00    +0.000 C 
BRANCH  24  25
ATOM     25  N   UNL     1       1.327  14.094  21.421  0.00  0.00    +0.000 N 
ATOM     26  C   UNL     1       2.245  13.548  20.571  0.00  0.00    +0.000 A 
ATOM     27  N   UNL     1       3.456  14.000  20.856  0.00  0.00    +0.000 NA
ATOM     28  C   UNL     1       3.216  14.831  21.912  0.00  0.00    +0.000 A 
ATOM     29  N   UNL     1       1.944  14.891  22.318  0.00  0.00    +0.000 NA
ENDBRANCH  24  25
ENDBRANCH   1  24
TORSDOF 6
ENDMDL
MODEL 5
REMARK VINA RESULT:      -6.7      6.645      9.676
REMARK  Name = 
REMARK  7 active torsions:
REMARK  status: ('A' for Active; 'I' for Inactive)
REMARK    1  A    between atoms: C_1  and  C_2
REMARK    2  A    between atoms: C_2  and  N_3
REMARK    3  A    between atoms: C_2  and  C_13
REMARK    4  A    between atoms: C_13  and  O_14
REMARK    5  A    between atoms: C_13  and  C_15
REMARK    6  A    between atoms: C_13  and  C_21
REMARK    7  A    between atoms: C_15  and  N_16
REMARK                            x       y       z     vdW  Elec       q    Type
REMARK                         _______ _______ _______ _____ _____    ______ ____
ROOT
ATOM      1  C   UNL     1      -1.211  11.636  19.066  0.00  0.00    +0.000 C 
ENDROOT
BRANCH   1   2
ATOM      2  C   UNL     1      -0.061  10.626  19.435  0.00  0.00    +0.000 A 
ATOM      3  C   UNL     1       0.755  10.081  18.417  0.00  0.00    +0.000 A 
ATOM      4  C   UNL     1       1.578   8.952  18.632  0.00  0.00    +0.000 A 
ATOM      5  C   UNL     1       1.665   8.360  19.887  0.00  0.00    +0.000 A 
ATOM      6  F   UNL     1       2.407   7.270  20.071  0.00  0.00    +0.000 F 
ATOM      7  C   UNL     1       0.925   8.874  20.937  0.00  0.00    +0.000 A 
ATOM      8  C   UNL     1       0.057   9.944  20.687  0.00  0.00    +0.000 A 
ATOM      9  F   UNL     1      -0.780  10.180  21.698  0.00  0.00    +0.000 F 
ENDBRANCH   1   2
BRANCH   1  11
ATOM     10  C   UNL     1      -3.210  13.255  19.785  0.00  0.00    +0.000 C 
ATOM     11  C   UNL     1      -1.658  13.044  19.886  0.00  0.00    +0.000 C 
BRANCH  11  12
ATOM     12  N   UNL     1      -0.981  14.428  19.778  0.00  0.00    +0.000 NA
ATOM     13  C   UNL     1       0.356  14.425  20.442  0.00  0.00    +0.000 C 
ATOM     14  C   UNL     1       0.329  13.872  21.892  0.00  0.00    +0.000 C 
ATOM     15  C   UNL     1      -0.955  14.265  22.598  0.00  0.00    +0.000 A 
ATOM     16  N   UNL     1      -1.509  13.463  23.586  0.00  0.00    +0.000 NA
ATOM     17  C   UNL     1      -2.797  13.722  23.675  0.00  0.00    +0.000 A 
ATOM     18 BR   UNL     1      -4.015  12.533  24.477  0.00  0.00    +0.000 Br
ATOM     19  S   UNL     1      -3.353  15.105  22.829  0.00  0.00    +0.000 S 
ATOM     20  C   UNL     1      -1.882  15.088  21.974  0.00  0.00    +0.000 A 
ATOM     21  C   UNL     1      -1.731  15.524  20.551  0.00  0.00    +0.000 C 
ENDBRANCH  11  12
ENDBRANCH   1  11
BRANCH   1  22
ATOM     22  O   UNL     1      -0.774  12.126  17.751  0.00  0.00    +0.000 OA
ATOM     23  H   UNL     1      -0.532  11.360  17.202  0.00  0.00    +0.000 HD
ENDBRANCH   1  22
BRANCH   1  24
ATOM     24  C   UNL     1      -2.560  10.889  18.742  0.00  0.00    +0.000 C 
BRANCH  24  25
ATOM     25  N   UNL     1      -2.966  10.591  17.383  0.00  0.00    +0.000 N 
ATOM     26  C   UNL     1      -3.944  11.246  16.692  0.00  0.00    +0.000 A 
ATOM     27  N   UNL     1      -3.835  10.991  15.397  0.00  0.00    +0.000 NA
ATOM     28  C   UNL     1      -2.757  10.155  15.353  0.00  0.00    +0.000 A 
ATOM     29  N   UNL     1      -2.219   9.849  16.538  0.00  0.00    +0.000 NA
ENDBRANCH  24  25
ENDBRANCH   1  24
TORSDOF 6
ENDMDL
MODEL 6
REMARK VINA RESULT:      -6.7      0.954      1.329
REMARK  Name = 
REMARK  7 active torsions:
REMARK  status: ('A' for Active; 'I' for Inactive)
REMARK    1  A    between atoms: C_1  and  C_2
REMARK    2  A    between atoms: C_2  and  N_3
REMARK    3  A    between atoms: C_2  and  C_13
REMARK    4  A    between atoms: C_13  and  O_14
REMARK    5  A    between atoms: C_13  and  C_15
REMARK    6  A    between atoms: C_13  and  C_21
REMARK    7  A    between atoms: C_15  and  N_16
REMARK                            x       y       z     vdW  Elec       q    Type
REMARK                         _______ _______ _______ _____ _____    ______ ____
ROOT
ATOM      1  C   UNL     1       2.658   6.295  18.724  0.00  0.00    +0.000 C 
ENDROOT
BRANCH   1   2
ATOM      2  C   UNL     1       1.952   7.695  18.871  0.00  0.00    +0.000 A 
ATOM      3  C   UNL     1       2.100   8.670  17.858  0.00  0.00    +0.000 A 
ATOM      4  C   UNL     1       1.768  10.028  18.063  0.00  0.00    +0.000 A 
ATOM      5  C   UNL     1       1.218  10.455  19.267  0.00  0.00    +0.000 A 
ATOM      6  F   UNL     1       0.950  11.744  19.470  0.00  0.00    +0.000 F 
ATOM      7  C   UNL     1       1.007   9.541  20.283  0.00  0.00    +0.000 A 
ATOM      8  C   UNL     1       1.414   8.215  20.090  0.00  0.00    +0.000 A 
ATOM      9  F   UNL     1       1.396   7.498  21.214  0.00  0.00    +0.000 F 
ENDBRANCH   1   2
BRANCH   1  11
ATOM     10  C   UNL     1       4.142   6.913  16.591  0.00  0.00    +0.000 C 
ATOM     11  C   UNL     1       4.014   5.910  17.791  0.00  0.00    +0.000 C 
BRANCH  11  12
ATOM     12  N   UNL     1       4.416   4.507  17.285  0.00  0.00    +0.000 NA
ATOM     13  C   UNL     1       4.953   3.669  18.397  0.00  0.00    +0.000 C 
ATOM     14  C   UNL     1       6.073   4.366  19.216  0.00  0.00    +0.000 C 
ATOM     15  C   UNL     1       6.944   5.225  18.320  0.00  0.00    +0.000 A 
ATOM     16  N   UNL     1       7.570   6.366  18.803  0.00  0.00    +0.000 NA
ATOM     17  C   UNL     1       7.824   7.174  17.795  0.00  0.00    +0.000 A 
ATOM     18 BR   UNL     1       8.164   9.010  18.031  0.00  0.00    +0.000 Br
ATOM     19  S   UNL     1       7.613   6.519  16.225  0.00  0.00    +0.000 S 
ATOM     20  C   UNL     1       6.741   5.249  16.947  0.00  0.00    +0.000 A 
ATOM     21  C   UNL     1       5.593   4.541  16.299  0.00  0.00    +0.000 C 
ENDBRANCH  11  12
ENDBRANCH   1  11
BRANCH   1  22
ATOM     22  O   UNL     1       3.100   6.032  20.101  0.00  0.00    +0.000 OA
ATOM     23  H   UNL     1       3.664   6.770  20.390  0.00  0.00    +0.000 HD
ENDBRANCH   1  22
BRANCH   1  24
ATOM     24  C   UNL     1       1.618   5.143  18.454  0.00  0.00    +0.000 C 
BRANCH  24  25
ATOM     25  N   UNL     1       1.397   4.069  19.402  0.00  0.00    +0.000 N 
ATOM     26  C   UNL     1       1.817   2.780  19.243  0.00  0.00    +0.000 A 
ATOM     27  N   UNL     1       1.782   2.143  20.403  0.00  0.00    +0.000 NA
ATOM     28  C   UNL     1       1.320   3.107  21.251  0.00  0.00    +0.000 A 
ATOM     29  N   UNL     1       1.033   4.282  20.684  0.00  0.00    +0.000 NA
ENDBRANCH  24  25
ENDBRANCH   1  24
TORSDOF 6
ENDMDL
MODEL 7
REMARK VINA RESULT:      -6.6      6.737      9.753
REMARK  Name = 
REMARK  7 active torsions:
REMARK  status: ('A' for Active; 'I' for Inactive)
REMARK    1  A    between atoms: C_1  and  C_2
REMARK    2  A    between atoms: C_2  and  N_3
REMARK    3  A    between atoms: C_2  and  C_13
REMARK    4  A    between atoms: C_13  and  O_14
REMARK    5  A    between atoms: C_13  and  C_15
REMARK    6  A    between atoms: C_13  and  C_21
REMARK    7  A    between atoms: C_15  and  N_16
REMARK                            x       y       z     vdW  Elec       q    Type
REMARK                         _______ _______ _______ _____ _____    ______ ____
ROOT
ATOM      1  C   UNL     1      -0.628  11.903  19.223  0.00  0.00    +0.000 C 
ENDROOT
BRANCH   1   2
ATOM      2  C   UNL     1       0.448  10.753  19.248  0.00  0.00    +0.000 A 
ATOM      3  C   UNL     1       1.310  10.569  18.142  0.00  0.00    +0.000 A 
ATOM      4  C   UNL     1       2.065   9.388  17.963  0.00  0.00    +0.000 A 
ATOM      5  C   UNL     1       2.036   8.370  18.911  0.00  0.00    +0.000 A 
ATOM      6  F   UNL     1       2.714   7.241  18.713  0.00  0.00    +0.000 F 
ATOM      7  C   UNL     1       1.245   8.509  20.037  0.00  0.00    +0.000 A 
ATOM      8  C   UNL     1       0.445   9.651  20.160  0.00  0.00    +0.000 A 
ATOM      9  F   UNL     1      -0.451   9.553  21.142  0.00  0.00    +0.000 F 
ENDBRANCH   1   2
BRANCH   1  11
ATOM     10  C   UNL     1      -0.578  14.542  19.631  0.00  0.00    +0.000 C 
ATOM     11  C   UNL     1      -0.826  13.162  20.334  0.00  0.00    +0.000 C 
BRANCH  11  12
ATOM     12  N   UNL     1      -0.230  13.237  21.757  0.00  0.00    +0.000 NA
ATOM     13  C   UNL     1      -0.750  12.133  22.616  0.00  0.00    +0.000 C 
ATOM     14  C   UNL     1      -2.298  12.016  22.609  0.00  0.00    +0.000 C 
ATOM     15  C   UNL     1      -2.944  13.386  22.525  0.00  0.00    +0.000 A 
ATOM     16  N   UNL     1      -4.177  13.564  21.913  0.00  0.00    +0.000 NA
ATOM     17  C   UNL     1      -4.284  14.818  21.523  0.00  0.00    +0.000 A 
ATOM     18 BR   UNL     1      -5.517  15.369  20.213  0.00  0.00    +0.000 Br
ATOM     19  S   UNL     1      -3.090  15.899  22.111  0.00  0.00    +0.000 S 
ATOM     20  C   UNL     1      -2.169  14.536  22.546  0.00  0.00    +0.000 A 
ATOM     21  C   UNL     1      -0.674  14.491  22.526  0.00  0.00    +0.000 C 
ENDBRANCH  11  12
ENDBRANCH   1  11
BRANCH   1  22
ATOM     22  O   UNL     1      -0.302  12.597  17.969  0.00  0.00    +0.000 OA
ATOM     23  H   UNL     1       0.200  11.987  17.401  0.00  0.00    +0.000 HD
ENDBRANCH   1  22
BRANCH   1  24
ATOM     24  C   UNL     1      -2.075  11.341  18.958  0.00  0.00    +0.000 C 
BRANCH  24  25
ATOM     25  N   UNL     1      -2.552  11.044  17.622  0.00  0.00    +0.000 N 
ATOM     26  C   UNL     1      -2.151   9.984  16.861  0.00  0.00    +0.000 A 
ATOM     27  N   UNL     1      -3.005   9.788  15.869  0.00  0.00    +0.000 NA
ATOM     28  C   UNL     1      -3.923  10.778  16.072  0.00  0.00    +0.000 A 
ATOM     29  N   UNL     1      -3.669  11.593  17.101  0.00  0.00    +0.000 NA
ENDBRANCH  24  25
ENDBRANCH   1  24
TORSDOF 6
ENDMDL
MODEL 8
REMARK VINA RESULT:      -6.6      2.745      4.404
REMARK  Name = 
REMARK  7 active torsions:
REMARK  status: ('A' for Active; 'I' for Inactive)
REMARK    1  A    between atoms: C_1  and  C_2
REMARK    2  A    between atoms: C_2  and  N_3
REMARK    3  A    between atoms: C_2  and  C_13
REMARK    4  A    between atoms: C_13  and  O_14
REMARK    5  A    between atoms: C_13  and  C_15
REMARK    6  A    between atoms: C_13  and  C_21
REMARK    7  A    between atoms: C_15  and  N_16
REMARK                            x       y       z     vdW  Elec       q    Type
REMARK                         _______ _______ _______ _____ _____    ______ ____
ROOT
ATOM      1  C   UNL     1       2.584   5.998  18.506  0.00  0.00    +0.000 C 
ENDROOT
BRANCH   1   2
ATOM      2  C   UNL     1       1.993   4.977  19.550  0.00  0.00    +0.000 A 
ATOM      3  C   UNL     1       2.415   5.024  20.900  0.00  0.00    +0.000 A 
ATOM      4  C   UNL     1       2.175   3.963  21.802  0.00  0.00    +0.000 A 
ATOM      5  C   UNL     1       1.453   2.840  21.410  0.00  0.00    +0.000 A 
ATOM      6  F   UNL     1       1.271   1.825  22.252  0.00  0.00    +0.000 F 
ATOM      7  C   UNL     1       0.976   2.754  20.115  0.00  0.00    +0.000 A 
ATOM      8  C   UNL     1       1.289   3.779  19.213  0.00  0.00    +0.000 A 
ATOM      9  F   UNL     1       0.999   3.465  17.950  0.00  0.00    +0.000 F 
ENDBRANCH   1   2
BRANCH   1  11
ATOM     10  C   UNL     1       3.945   6.938  16.409  0.00  0.00    +0.000 C 
ATOM     11  C   UNL     1       3.883   5.765  17.450  0.00  0.00    +0.000 C 
BRANCH  11  12
ATOM     12  N   UNL     1       4.251   4.457  16.716  0.00  0.00    +0.000 NA
ATOM     13  C   UNL     1       4.716   3.415  17.679  0.00  0.00    +0.000 C 
ATOM     14  C   UNL     1       5.831   3.909  18.639  0.00  0.00    +0.000 C 
ATOM     15  C   UNL     1       6.765   4.874  17.934  0.00  0.00    +0.000 A 
ATOM     16  N   UNL     1       7.415   5.884  18.629  0.00  0.00    +0.000 NA
ATOM     17  C   UNL     1       7.734   6.845  17.787  0.00  0.00    +0.000 A 
ATOM     18 BR   UNL     1       8.133   8.595  18.353  0.00  0.00    +0.000 Br
ATOM     19  S   UNL     1       7.556   6.485  16.121  0.00  0.00    +0.000 S 
ATOM     20  C   UNL     1       6.612   5.146  16.582  0.00  0.00    +0.000 A 
ATOM     21  C   UNL     1       5.463   4.613  15.786  0.00  0.00    +0.000 C 
ENDBRANCH  11  12
ENDBRANCH   1  11
BRANCH   1  22
ATOM     22  O   UNL     1       1.440   6.209  17.608  0.00  0.00    +0.000 OA
ATOM     23  H   UNL     1       1.177   7.144  17.658  0.00  0.00    +0.000 HD
ENDBRANCH   1  22
BRANCH   1  24
ATOM     24  C   UNL     1       2.808   7.420  19.145  0.00  0.00    +0.000 C 
BRANCH  24  25
ATOM     25  N   UNL     1       1.790   8.451  19.102  0.00  0.00    +0.000 N 
ATOM     26  C   UNL     1       1.142   8.963  20.189  0.00  0.00    +0.000 A 
ATOM     27  N   UNL     1       0.551  10.104  19.871  0.00  0.00    +0.000 NA
ATOM     28  C   UNL     1       0.873  10.242  18.553  0.00  0.00    +0.000 A 
ATOM     29  N   UNL     1       1.590   9.243  18.028  0.00  0.00    +0.000 NA
ENDBRANCH  24  25
ENDBRANCH   1  24
TORSDOF 6
ENDMDL
MODEL 9
REMARK VINA RESULT:      -6.5      7.035     10.053
REMARK  Name = 
REMARK  7 active torsions:
REMARK  status: ('A' for Active; 'I' for Inactive)
REMARK    1  A    between atoms: C_1  and  C_2
REMARK    2  A    between atoms: C_2  and  N_3
REMARK    3  A    between atoms: C_2  and  C_13
REMARK    4  A    between atoms: C_13  and  O_14
REMARK    5  A    between atoms: C_13  and  C_15
REMARK    6  A    between atoms: C_13  and  C_21
REMARK    7  A    between atoms: C_15  and  N_16
REMARK                            x       y       z     vdW  Elec       q    Type
REMARK                         _______ _______ _______ _____ _____    ______ ____
ROOT
ATOM      1  C   UNL     1      -1.087  12.322  19.463  0.00  0.00    +0.000 C 
ENDROOT
BRANCH   1   2
ATOM      2  C   UNL     1       0.130  11.340  19.281  0.00  0.00    +0.000 A 
ATOM      3  C   UNL     1       1.136  11.630  18.330  0.00  0.00    +0.000 A 
ATOM      4  C   UNL     1       2.067  10.660  17.897  0.00  0.00    +0.000 A 
ATOM      5  C   UNL     1       2.070   9.379  18.440  0.00  0.00    +0.000 A 
ATOM      6  F   UNL     1       2.921   8.457  17.994  0.00  0.00    +0.000 F 
ATOM      7  C   UNL     1       1.139   9.046  19.407  0.00  0.00    +0.000 A 
ATOM      8  C   UNL     1       0.176   9.996  19.768  0.00  0.00    +0.000 A 
ATOM      9  F   UNL     1      -0.809   9.481  20.506  0.00  0.00    +0.000 F 
ENDBRANCH   1   2
BRANCH   1  11
ATOM     10  C   UNL     1      -1.404  14.886  20.142  0.00  0.00    +0.000 C 
ATOM     11  C   UNL     1      -1.352  13.426  20.715  0.00  0.00    +0.000 C 
BRANCH  11  12
ATOM     12  N   UNL     1      -0.616  13.472  22.072  0.00  0.00    +0.000 NA
ATOM     13  C   UNL     1      -0.659  12.144  22.752  0.00  0.00    +0.000 C 
ATOM     14  C   UNL     1      -2.087  11.543  22.853  0.00  0.00    +0.000 C 
ATOM     15  C   UNL     1      -3.118  12.632  23.078  0.00  0.00    +0.000 A 
ATOM     16  N   UNL     1      -4.420  12.499  22.615  0.00  0.00    +0.000 NA
ATOM     17  C   UNL     1      -4.949  13.697  22.476  0.00  0.00    +0.000 A 
ATOM     18 BR   UNL     1      -6.458  14.016  21.398  0.00  0.00    +0.000 Br
ATOM     19  S   UNL     1      -4.065  15.000  23.152  0.00  0.00    +0.000 S 
ATOM     20  C   UNL     1      -2.728  13.953  23.248  0.00  0.00    +0.000 A 
ATOM     21  C   UNL     1      -1.305  14.389  23.095  0.00  0.00    +0.000 C 
ENDBRANCH  11  12
ENDBRANCH   1  11
BRANCH   1  22
ATOM     22  O   UNL     1      -0.971  13.173  18.270  0.00  0.00    +0.000 OA
ATOM     23  H   UNL     1      -1.157  14.092  18.528  0.00  0.00    +0.000 HD
ENDBRANCH   1  22
BRANCH   1  24
ATOM     24  C   UNL     1      -2.465  11.588  19.248  0.00  0.00    +0.000 C 
BRANCH  24  25
ATOM     25  N   UNL     1      -2.925  11.186  17.934  0.00  0.00    +0.000 N 
ATOM     26  C   UNL     1      -4.135  11.508  17.391  0.00  0.00    +0.000 A 
ATOM     27  N   UNL     1      -4.115  11.307  16.083  0.00  0.00    +0.000 NA
ATOM     28  C   UNL     1      -2.847  10.848  15.877  0.00  0.00    +0.000 A 
ATOM     29  N   UNL     1      -2.098  10.718  16.976  0.00  0.00    +0.000 NA
ENDBRANCH  24  25
ENDBRANCH   1  24
TORSDOF 6
ENDMDL
