MODEL 1
REMARK VINA RESULT:      -9.0      0.000      0.000
REMARK  Name = 
REMARK  2 active torsions:
REMARK  status: ('A' for Active; 'I' for Inactive)
REMARK    1  A    between atoms: C_8  and  C_9
REMARK    2  A    between atoms: C_17  and  C_18
REMARK                            x       y       z     vdW  Elec       q    Type
REMARK                         _______ _______ _______ _____ _____    ______ ____
ROOT
ATOM      1  O   UNL     1       0.819   5.277  21.205  0.00  0.00    +0.000 OA
ATOM      2  C   UNL     1       1.403   4.876  20.216  0.00  0.00    +0.000 C 
ATOM      3  N   UNL     1       1.359   3.591  19.722  0.00  0.00    +0.000 N 
ATOM      4  C   UNL     1       2.272   3.412  18.692  0.00  0.00    +0.000 A 
ATOM      5  C   UNL     1       2.520   2.202  18.078  0.00  0.00    +0.000 A 
ATOM      6  C   UNL     1       3.542   2.171  17.142  0.00  0.00    +0.000 A 
ATOM      7  C   UNL     1       4.312   3.320  16.895  0.00  0.00    +0.000 A 
ATOM      8  C   UNL     1       4.091   4.551  17.554  0.00  0.00    +0.000 A 
ATOM      9  C   UNL     1       2.982   4.600  18.417  0.00  0.00    +0.000 A 
ATOM     10  C   UNL     1       2.340   5.621  19.293  0.00  0.00    +0.000 C 
ATOM     11  C   UNL     1       2.422   6.956  19.161  0.00  0.00    +0.000 C 
ATOM     12  H   UNL     1       0.806   2.865  20.151  0.00  0.00    +0.000 HD
ENDROOT
BRANCH  11  13
ATOM     13  C   UNL     1       1.814   7.962  19.966  0.00  0.00    +0.000 A 
ATOM     14  N   UNL     1       1.877   7.930  21.346  0.00  0.00    +0.000 N 
ATOM     15  C   UNL     1       1.350   9.078  21.884  0.00  0.00    +0.000 A 
ATOM     16  C   UNL     1       0.888   9.856  20.851  0.00  0.00    +0.000 A 
ATOM     17  C   UNL     1       1.176   9.147  19.644  0.00  0.00    +0.000 A 
ATOM     18  C   UNL     1       0.804   9.743  18.327  0.00  0.00    +0.000 C 
ATOM     19  C   UNL     1      -0.374  10.716  18.527  0.00  0.00    +0.000 C 
ATOM     20  N   UNL     1      -0.201  11.611  19.669  0.00  0.00    +0.000 N 
ATOM     21  C   UNL     1       0.235  11.149  20.903  0.00  0.00    +0.000 C 
ATOM     22  O   UNL     1       0.078  11.817  21.920  0.00  0.00    +0.000 OA
ATOM     23  H   UNL     1       2.214   7.143  21.892  0.00  0.00    +0.000 HD
ATOM     24  H   UNL     1      -0.755  12.455  19.731  0.00  0.00    +0.000 HD
ENDBRANCH  11  13
BRANCH   8  25
ATOM     25  C   UNL     1       5.096   5.691  17.396  0.00  0.00    +0.000 C 
ATOM     26  C   UNL     1       5.196   6.262  15.974  0.00  0.00    +0.000 C 
ATOM     27  C   UNL     1       6.134   5.471  15.064  0.00  0.00    +0.000 C 
ATOM     28  N   UNL     1       7.474   5.335  15.630  0.00  0.00    +0.000 NA
ATOM     29  C   UNL     1       7.470   4.724  16.955  0.00  0.00    +0.000 C 
ATOM     30  C   UNL     1       6.508   5.384  17.945  0.00  0.00    +0.000 C 
ATOM     31  H   UNL     1       7.917   6.253  15.679  0.00  0.00    +0.000 HD
ENDBRANCH   8  25
TORSDOF 2
ENDMDL
MODEL 2
REMARK VINA RESULT:      -8.8      1.817      2.365
REMARK  Name = 
REMARK  2 active torsions:
REMARK  status: ('A' for Active; 'I' for Inactive)
REMARK    1  A    between atoms: C_8  and  C_9
REMARK    2  A    between atoms: C_17  and  C_18
REMARK                            x       y       z     vdW  Elec       q    Type
REMARK                         _______ _______ _______ _____ _____    ______ ____
ROOT
ATOM      1  O   UNL     1       1.374   8.189  21.152  0.00  0.00    +0.000 OA
ATOM      2  C   UNL     1       1.811   7.326  20.415  0.00  0.00    +0.000 C 
ATOM      3  N   UNL     1       1.925   5.988  20.723  0.00  0.00    +0.000 N 
ATOM      4  C   UNL     1       2.625   5.300  19.742  0.00  0.00    +0.000 A 
ATOM      5  C   UNL     1       2.979   3.970  19.831  0.00  0.00    +0.000 A 
ATOM      6  C   UNL     1       3.772   3.462  18.815  0.00  0.00    +0.000 A 
ATOM      7  C   UNL     1       4.229   4.301  17.785  0.00  0.00    +0.000 A 
ATOM      8  C   UNL     1       3.905   5.676  17.712  0.00  0.00    +0.000 A 
ATOM      9  C   UNL     1       3.010   6.152  18.685  0.00  0.00    +0.000 A 
ATOM     10  C   UNL     1       2.370   7.457  19.016  0.00  0.00    +0.000 C 
ATOM     11  C   UNL     1       2.154   8.481  18.173  0.00  0.00    +0.000 C 
ATOM     12  H   UNL     1       1.629   5.610  21.609  0.00  0.00    +0.000 HD
ENDROOT
BRANCH  11  13
ATOM     13  C   UNL     1       1.535   9.734  18.446  0.00  0.00    +0.000 A 
ATOM     14  N   UNL     1       2.218  10.770  19.055  0.00  0.00    +0.000 N 
ATOM     15  C   UNL     1       1.457  11.912  19.073  0.00  0.00    +0.000 A 
ATOM     16  C   UNL     1       0.238  11.617  18.513  0.00  0.00    +0.000 A 
ATOM     17  C   UNL     1       0.287  10.242  18.127  0.00  0.00    +0.000 A 
ATOM     18  C   UNL     1      -0.896   9.614  17.468  0.00  0.00    +0.000 C 
ATOM     19  C   UNL     1      -2.169  10.374  17.885  0.00  0.00    +0.000 C 
ATOM     20  N   UNL     1      -2.028  11.827  17.817  0.00  0.00    +0.000 N 
ATOM     21  C   UNL     1      -0.912  12.479  18.320  0.00  0.00    +0.000 C 
ATOM     22  O   UNL     1      -0.932  13.684  18.548  0.00  0.00    +0.000 OA
ATOM     23  H   UNL     1       3.135  10.685  19.483  0.00  0.00    +0.000 HD
ATOM     24  H   UNL     1      -2.855  12.408  17.794  0.00  0.00    +0.000 HD
ENDBRANCH  11  13
BRANCH   8  25
ATOM     25  C   UNL     1       4.607   6.571  16.692  0.00  0.00    +0.000 C 
ATOM     26  C   UNL     1       5.084   5.844  15.426  0.00  0.00    +0.000 C 
ATOM     27  C   UNL     1       6.445   5.168  15.587  0.00  0.00    +0.000 C 
ATOM     28  N   UNL     1       7.479   6.098  16.034  0.00  0.00    +0.000 NA
ATOM     29  C   UNL     1       7.133   6.774  17.280  0.00  0.00    +0.000 C 
ATOM     30  C   UNL     1       5.752   7.433  17.271  0.00  0.00    +0.000 C 
ATOM     31  H   UNL     1       7.649   6.792  15.305  0.00  0.00    +0.000 HD
ENDBRANCH   8  25
TORSDOF 2
ENDMDL
MODEL 3
REMARK VINA RESULT:      -8.4      1.909      2.624
REMARK  Name = 
REMARK  2 active torsions:
REMARK  status: ('A' for Active; 'I' for Inactive)
REMARK    1  A    between atoms: C_8  and  C_9
REMARK    2  A    between atoms: C_17  and  C_18
REMARK                            x       y       z     vdW  Elec       q    Type
REMARK                         _______ _______ _______ _____ _____    ______ ____
ROOT
ATOM      1  O   UNL     1       0.988   8.323  21.005  0.00  0.00    +0.000 OA
ATOM      2  C   UNL     1       1.595   7.475  20.381  0.00  0.00    +0.000 C 
ATOM      3  N   UNL     1       1.847   6.189  20.807  0.00  0.00    +0.000 N 
ATOM      4  C   UNL     1       2.716   5.531  19.947  0.00  0.00    +0.000 A 
ATOM      5  C   UNL     1       3.223   4.268  20.175  0.00  0.00    +0.000 A 
ATOM      6  C   UNL     1       4.164   3.798  19.274  0.00  0.00    +0.000 A 
ATOM      7  C   UNL     1       4.606   4.615  18.218  0.00  0.00    +0.000 A 
ATOM      8  C   UNL     1       4.120   5.927  18.005  0.00  0.00    +0.000 A 
ATOM      9  C   UNL     1       3.087   6.349  18.859  0.00  0.00    +0.000 A 
ATOM     10  C   UNL     1       2.260   7.578  19.027  0.00  0.00    +0.000 C 
ATOM     11  C   UNL     1       1.996   8.501  18.086  0.00  0.00    +0.000 C 
ATOM     12  H   UNL     1       1.521   5.840  21.694  0.00  0.00    +0.000 HD
ENDROOT
BRANCH  11  13
ATOM     13  C   UNL     1       1.203   9.678  18.203  0.00  0.00    +0.000 A 
ATOM     14  N   UNL     1      -0.172   9.623  18.333  0.00  0.00    +0.000 N 
ATOM     15  C   UNL     1      -0.689  10.870  18.578  0.00  0.00    +0.000 A 
ATOM     16  C   UNL     1       0.349  11.769  18.562  0.00  0.00    +0.000 A 
ATOM     17  C   UNL     1       1.539  11.016  18.319  0.00  0.00    +0.000 A 
ATOM     18  C   UNL     1       2.858  11.712  18.256  0.00  0.00    +0.000 C 
ATOM     19  C   UNL     1       2.635  13.180  17.843  0.00  0.00    +0.000 C 
ATOM     20  N   UNL     1       1.543  13.828  18.566  0.00  0.00    +0.000 N 
ATOM     21  C   UNL     1       0.317  13.207  18.751  0.00  0.00    +0.000 C 
ATOM     22  O   UNL     1      -0.678  13.851  19.066  0.00  0.00    +0.000 OA
ATOM     23  H   UNL     1      -0.731   8.785  18.207  0.00  0.00    +0.000 HD
ATOM     24  H   UNL     1       1.487  14.838  18.585  0.00  0.00    +0.000 HD
ENDBRANCH  11  13
BRANCH   8  25
ATOM     25  C   UNL     1       4.796   6.830  16.975  0.00  0.00    +0.000 C 
ATOM     26  C   UNL     1       5.052   6.168  15.614  0.00  0.00    +0.000 C 
ATOM     27  C   UNL     1       6.343   5.353  15.566  0.00  0.00    +0.000 C 
ATOM     28  N   UNL     1       7.512   6.140  15.952  0.00  0.00    +0.000 NA
ATOM     29  C   UNL     1       7.378   6.741  17.276  0.00  0.00    +0.000 C 
ATOM     30  C   UNL     1       6.081   7.528  17.476  0.00  0.00    +0.000 C 
ATOM     31  H   UNL     1       7.673   6.872  15.260  0.00  0.00    +0.000 HD
ENDBRANCH   8  25
TORSDOF 2
ENDMDL
MODEL 4
REMARK VINA RESULT:      -8.1      2.180      4.244
REMARK  Name = 
REMARK  2 active torsions:
REMARK  status: ('A' for Active; 'I' for Inactive)
REMARK    1  A    between atoms: C_8  and  C_9
REMARK    2  A    between atoms: C_17  and  C_18
REMARK                            x       y       z     vdW  Elec       q    Type
REMARK                         _______ _______ _______ _____ _____    ______ ____
ROOT
ATOM      1  O   UNL     1       2.411  10.015  17.503  0.00  0.00    +0.000 OA
ATOM      2  C   UNL     1       2.792   8.885  17.736  0.00  0.00    +0.000 C 
ATOM      3  N   UNL     1       3.862   8.257  17.137  0.00  0.00    +0.000 N 
ATOM      4  C   UNL     1       3.925   6.915  17.489  0.00  0.00    +0.000 A 
ATOM      5  C   UNL     1       4.830   6.017  16.962  0.00  0.00    +0.000 A 
ATOM      6  C   UNL     1       4.688   4.691  17.336  0.00  0.00    +0.000 A 
ATOM      7  C   UNL     1       3.627   4.298  18.169  0.00  0.00    +0.000 A 
ATOM      8  C   UNL     1       2.670   5.208  18.677  0.00  0.00    +0.000 A 
ATOM      9  C   UNL     1       2.889   6.564  18.381  0.00  0.00    +0.000 A 
ATOM     10  C   UNL     1       2.213   7.858  18.684  0.00  0.00    +0.000 C 
ATOM     11  C   UNL     1       1.397   8.113  19.721  0.00  0.00    +0.000 C 
ATOM     12  H   UNL     1       4.439   8.711  16.447  0.00  0.00    +0.000 HD
ENDROOT
BRANCH  11  13
ATOM     13  C   UNL     1       0.745   9.335  20.051  0.00  0.00    +0.000 A 
ATOM     14  N   UNL     1       1.042  10.034  21.206  0.00  0.00    +0.000 N 
ATOM     15  C   UNL     1       0.396  11.244  21.223  0.00  0.00    +0.000 A 
ATOM     16  C   UNL     1      -0.377  11.328  20.090  0.00  0.00    +0.000 A 
ATOM     17  C   UNL     1      -0.160  10.120  19.358  0.00  0.00    +0.000 A 
ATOM     18  C   UNL     1      -0.857   9.908  18.055  0.00  0.00    +0.000 C 
ATOM     19  C   UNL     1      -2.154  10.740  18.034  0.00  0.00    +0.000 C 
ATOM     20  N   UNL     1      -1.974  12.110  18.509  0.00  0.00    +0.000 N 
ATOM     21  C   UNL     1      -1.256  12.398  19.661  0.00  0.00    +0.000 C 
ATOM     22  O   UNL     1      -1.370  13.482  20.223  0.00  0.00    +0.000 OA
ATOM     23  H   UNL     1       1.614   9.678  21.965  0.00  0.00    +0.000 HD
ATOM     24  H   UNL     1      -2.666  12.812  18.283  0.00  0.00    +0.000 HD
ENDBRANCH  11  13
BRANCH   8  25
ATOM     25  C   UNL     1       1.427   4.684  19.395  0.00  0.00    +0.000 C 
ATOM     26  C   UNL     1       1.477   4.797  20.925  0.00  0.00    +0.000 C 
ATOM     27  C   UNL     1       2.206   3.636  21.599  0.00  0.00    +0.000 C 
ATOM     28  N   UNL     1       1.650   2.338  21.224  0.00  0.00    +0.000 NA
ATOM     29  C   UNL     1       1.641   2.121  19.781  0.00  0.00    +0.000 C 
ATOM     30  C   UNL     1       0.999   3.257  18.982  0.00  0.00    +0.000 C 
ATOM     31  H   UNL     1       0.700   2.258  21.587  0.00  0.00    +0.000 HD
ENDBRANCH   8  25
TORSDOF 2
ENDMDL
MODEL 5
REMARK VINA RESULT:      -8.1      1.211      1.387
REMARK  Name = 
REMARK  2 active torsions:
REMARK  status: ('A' for Active; 'I' for Inactive)
REMARK    1  A    between atoms: C_8  and  C_9
REMARK    2  A    between atoms: C_17  and  C_18
REMARK                            x       y       z     vdW  Elec       q    Type
REMARK                         _______ _______ _______ _____ _____    ______ ____
ROOT
ATOM      1  O   UNL     1       1.229   6.589  21.271  0.00  0.00    +0.000 OA
ATOM      2  C   UNL     1       1.712   5.967  20.346  0.00  0.00    +0.000 C 
ATOM      3  N   UNL     1       1.852   4.597  20.284  0.00  0.00    +0.000 N 
ATOM      4  C   UNL     1       2.602   4.213  19.181  0.00  0.00    +0.000 A 
ATOM      5  C   UNL     1       2.988   2.915  18.920  0.00  0.00    +0.000 A 
ATOM      6  C   UNL     1       3.827   2.715  17.836  0.00  0.00    +0.000 A 
ATOM      7  C   UNL     1       4.295   3.810  17.090  0.00  0.00    +0.000 A 
ATOM      8  C   UNL     1       3.937   5.148  17.379  0.00  0.00    +0.000 A 
ATOM      9  C   UNL     1       2.998   5.326  18.410  0.00  0.00    +0.000 A 
ATOM     10  C   UNL     1       2.313   6.482  19.057  0.00  0.00    +0.000 C 
ATOM     11  C   UNL     1       2.097   7.692  18.514  0.00  0.00    +0.000 C 
ATOM     12  H   UNL     1       1.538   3.988  21.022  0.00  0.00    +0.000 HD
ENDROOT
BRANCH  11  13
ATOM     13  C   UNL     1       1.436   8.814  19.093  0.00  0.00    +0.000 A 
ATOM     14  N   UNL     1       1.833   9.352  20.302  0.00  0.00    +0.000 N 
ATOM     15  C   UNL     1       1.143  10.508  20.570  0.00  0.00    +0.000 A 
ATOM     16  C   UNL     1       0.244  10.711  19.551  0.00  0.00    +0.000 A 
ATOM     17  C   UNL     1       0.427   9.638  18.626  0.00  0.00    +0.000 A 
ATOM     18  C   UNL     1      -0.403   9.579  17.386  0.00  0.00    +0.000 C 
ATOM     19  C   UNL     1      -1.727  10.328  17.628  0.00  0.00    +0.000 C 
ATOM     20  N   UNL     1      -1.552  11.622  18.284  0.00  0.00    +0.000 N 
ATOM     21  C   UNL     1      -0.721  11.779  19.384  0.00  0.00    +0.000 C 
ATOM     22  O   UNL     1      -0.816  12.761  20.112  0.00  0.00    +0.000 OA
ATOM     23  H   UNL     1       2.501   8.923  20.935  0.00  0.00    +0.000 HD
ATOM     24  H   UNL     1      -2.294  12.308  18.241  0.00  0.00    +0.000 HD
ENDBRANCH  11  13
BRANCH   8  25
ATOM     25  C   UNL     1       4.648   6.297  16.667  0.00  0.00    +0.000 C 
ATOM     26  C   UNL     1       5.259   5.926  15.308  0.00  0.00    +0.000 C 
ATOM     27  C   UNL     1       6.647   5.296  15.416  0.00  0.00    +0.000 C 
ATOM     28  N   UNL     1       7.583   6.137  16.158  0.00  0.00    +0.000 NA
ATOM     29  C   UNL     1       7.106   6.470  17.497  0.00  0.00    +0.000 C 
ATOM     30  C   UNL     1       5.689   7.044  17.531  0.00  0.00    +0.000 C 
ATOM     31  H   UNL     1       7.757   6.996  15.635  0.00  0.00    +0.000 HD
ENDBRANCH   8  25
TORSDOF 2
ENDMDL
MODEL 6
REMARK VINA RESULT:      -8.1      2.141      7.534
REMARK  Name = 
REMARK  2 active torsions:
REMARK  status: ('A' for Active; 'I' for Inactive)
REMARK    1  A    between atoms: C_8  and  C_9
REMARK    2  A    between atoms: C_17  and  C_18
REMARK                            x       y       z     vdW  Elec       q    Type
REMARK                         _______ _______ _______ _____ _____    ______ ____
ROOT
ATOM      1  O   UNL     1       2.289   5.266  20.408  0.00  0.00    +0.000 OA
ATOM      2  C   UNL     1       1.985   6.430  20.584  0.00  0.00    +0.000 C 
ATOM      3  N   UNL     1       1.464   6.958  21.745  0.00  0.00    +0.000 N 
ATOM      4  C   UNL     1       1.057   8.273  21.566  0.00  0.00    +0.000 A 
ATOM      5  C   UNL     1       0.406   9.020  22.526  0.00  0.00    +0.000 A 
ATOM      6  C   UNL     1      -0.031  10.280  22.150  0.00  0.00    +0.000 A 
ATOM      7  C   UNL     1       0.141  10.727  20.829  0.00  0.00    +0.000 A 
ATOM      8  C   UNL     1       0.769   9.947  19.829  0.00  0.00    +0.000 A 
ATOM      9  C   UNL     1       1.306   8.719  20.251  0.00  0.00    +0.000 A 
ATOM     10  C   UNL     1       2.048   7.591  19.617  0.00  0.00    +0.000 C 
ATOM     11  C   UNL     1       2.794   7.648  18.500  0.00  0.00    +0.000 C 
ATOM     12  H   UNL     1       1.306   6.400  22.570  0.00  0.00    +0.000 HD
ENDROOT
BRANCH  11  13
ATOM     13  C   UNL     1       3.526   6.600  17.873  0.00  0.00    +0.000 A 
ATOM     14  N   UNL     1       2.949   5.379  17.580  0.00  0.00    +0.000 N 
ATOM     15  C   UNL     1       3.808   4.597  16.849  0.00  0.00    +0.000 A 
ATOM     16  C   UNL     1       4.985   5.289  16.697  0.00  0.00    +0.000 A 
ATOM     17  C   UNL     1       4.807   6.547  17.350  0.00  0.00    +0.000 A 
ATOM     18  C   UNL     1       5.916   7.546  17.352  0.00  0.00    +0.000 C 
ATOM     19  C   UNL     1       7.260   6.808  17.196  0.00  0.00    +0.000 C 
ATOM     20  N   UNL     1       7.245   5.789  16.148  0.00  0.00    +0.000 N 
ATOM     21  C   UNL     1       6.201   4.885  16.020  0.00  0.00    +0.000 C 
ATOM     22  O   UNL     1       6.332   3.856  15.365  0.00  0.00    +0.000 OA
ATOM     23  H   UNL     1       2.037   5.077  17.909  0.00  0.00    +0.000 HD
ATOM     24  H   UNL     1       8.120   5.447  15.772  0.00  0.00    +0.000 HD
ENDBRANCH  11  13
BRANCH   8  25
ATOM     25  C   UNL     1       0.731  10.404  18.372  0.00  0.00    +0.000 C 
ATOM     26  C   UNL     1       1.050  11.890  18.159  0.00  0.00    +0.000 C 
ATOM     27  C   UNL     1      -0.157  12.807  18.351  0.00  0.00    +0.000 C 
ATOM     28  N   UNL     1      -1.285  12.425  17.504  0.00  0.00    +0.000 NA
ATOM     29  C   UNL     1      -1.702  11.040  17.706  0.00  0.00    +0.000 C 
ATOM     30  C   UNL     1      -0.561  10.025  17.612  0.00  0.00    +0.000 C 
ATOM     31  H   UNL     1      -1.038  12.567  16.525  0.00  0.00    +0.000 HD
ENDBRANCH   8  25
TORSDOF 2
ENDMDL
MODEL 7
REMARK VINA RESULT:      -7.8      2.119      4.394
REMARK  Name = 
REMARK  2 active torsions:
REMARK  status: ('A' for Active; 'I' for Inactive)
REMARK    1  A    between atoms: C_8  and  C_9
REMARK    2  A    between atoms: C_17  and  C_18
REMARK                            x       y       z     vdW  Elec       q    Type
REMARK                         _______ _______ _______ _____ _____    ______ ____
ROOT
ATOM      1  O   UNL     1       2.584   9.740  17.382  0.00  0.00    +0.000 OA
ATOM      2  C   UNL     1       2.930   8.596  17.607  0.00  0.00    +0.000 C 
ATOM      3  N   UNL     1       3.974   7.937  16.996  0.00  0.00    +0.000 N 
ATOM      4  C   UNL     1       3.996   6.592  17.341  0.00  0.00    +0.000 A 
ATOM      5  C   UNL     1       4.866   5.668  16.801  0.00  0.00    +0.000 A 
ATOM      6  C   UNL     1       4.685   4.345  17.170  0.00  0.00    +0.000 A 
ATOM      7  C   UNL     1       3.618   3.983  18.011  0.00  0.00    +0.000 A 
ATOM      8  C   UNL     1       2.696   4.921  18.532  0.00  0.00    +0.000 A 
ATOM      9  C   UNL     1       2.958   6.271  18.241  0.00  0.00    +0.000 A 
ATOM     10  C   UNL     1       2.327   7.585  18.555  0.00  0.00    +0.000 C 
ATOM     11  C   UNL     1       1.529   7.860  19.601  0.00  0.00    +0.000 C 
ATOM     12  H   UNL     1       4.559   8.376  16.302  0.00  0.00    +0.000 HD
ENDROOT
BRANCH  11  13
ATOM     13  C   UNL     1       0.920   9.102  19.943  0.00  0.00    +0.000 A 
ATOM     14  N   UNL     1       0.862  10.157  19.052  0.00  0.00    +0.000 N 
ATOM     15  C   UNL     1       0.100  11.180  19.559  0.00  0.00    +0.000 A 
ATOM     16  C   UNL     1      -0.311  10.819  20.819  0.00  0.00    +0.000 A 
ATOM     17  C   UNL     1       0.213   9.512  21.060  0.00  0.00    +0.000 A 
ATOM     18  C   UNL     1      -0.073   8.826  22.355  0.00  0.00    +0.000 C 
ATOM     19  C   UNL     1      -0.350   9.886  23.438  0.00  0.00    +0.000 C 
ATOM     20  N   UNL     1      -1.259  10.943  22.998  0.00  0.00    +0.000 N 
ATOM     21  C   UNL     1      -1.118  11.563  21.765  0.00  0.00    +0.000 C 
ATOM     22  O   UNL     1      -1.663  12.637  21.532  0.00  0.00    +0.000 OA
ATOM     23  H   UNL     1       1.361  10.197  18.169  0.00  0.00    +0.000 HD
ATOM     24  H   UNL     1      -1.724  11.519  23.686  0.00  0.00    +0.000 HD
ENDBRANCH  11  13
BRANCH   8  25
ATOM     25  C   UNL     1       1.444   4.434  19.258  0.00  0.00    +0.000 C 
ATOM     26  C   UNL     1       1.433   4.709  20.769  0.00  0.00    +0.000 C 
ATOM     27  C   UNL     1       2.171   3.649  21.586  0.00  0.00    +0.000 C 
ATOM     28  N   UNL     1       1.667   2.302  21.332  0.00  0.00    +0.000 NA
ATOM     29  C   UNL     1       1.719   1.934  19.921  0.00  0.00    +0.000 C 
ATOM     30  C   UNL     1       1.074   2.958  18.985  0.00  0.00    +0.000 C 
ATOM     31  H   UNL     1       0.707   2.228  21.669  0.00  0.00    +0.000 HD
ENDBRANCH   8  25
TORSDOF 2
ENDMDL
MODEL 8
REMARK VINA RESULT:      -7.3      5.793     10.891
REMARK  Name = 
REMARK  2 active torsions:
REMARK  status: ('A' for Active; 'I' for Inactive)
REMARK    1  A    between atoms: C_8  and  C_9
REMARK    2  A    between atoms: C_17  and  C_18
REMARK                            x       y       z     vdW  Elec       q    Type
REMARK                         _______ _______ _______ _____ _____    ______ ____
ROOT
ATOM      1  O   UNL     1      -2.970  11.564  16.915  0.00  0.00    +0.000 OA
ATOM      2  C   UNL     1      -3.778  11.462  17.817  0.00  0.00    +0.000 C 
ATOM      3  N   UNL     1      -4.954  10.747  17.766  0.00  0.00    +0.000 N 
ATOM      4  C   UNL     1      -5.737  10.977  18.889  0.00  0.00    +0.000 A 
ATOM      5  C   UNL     1      -7.010  10.474  19.063  0.00  0.00    +0.000 A 
ATOM      6  C   UNL     1      -7.700  10.888  20.191  0.00  0.00    +0.000 A 
ATOM      7  C   UNL     1      -7.126  11.822  21.071  0.00  0.00    +0.000 A 
ATOM      8  C   UNL     1      -5.838  12.373  20.874  0.00  0.00    +0.000 A 
ATOM      9  C   UNL     1      -5.106  11.862  19.788  0.00  0.00    +0.000 A 
ATOM     10  C   UNL     1      -3.758  12.088  19.193  0.00  0.00    +0.000 C 
ATOM     11  C   UNL     1      -2.675  12.575  19.823  0.00  0.00    +0.000 C 
ATOM     12  H   UNL     1      -5.234  10.223  16.951  0.00  0.00    +0.000 HD
ENDROOT
BRANCH  11  13
ATOM     13  C   UNL     1      -1.370  12.792  19.295  0.00  0.00    +0.000 A 
ATOM     14  N   UNL     1      -0.867  14.063  19.088  0.00  0.00    +0.000 N 
ATOM     15  C   UNL     1       0.453  14.009  18.718  0.00  0.00    +0.000 A 
ATOM     16  C   UNL     1       0.816  12.687  18.631  0.00  0.00    +0.000 A 
ATOM     17  C   UNL     1      -0.337  11.923  18.988  0.00  0.00    +0.000 A 
ATOM     18  C   UNL     1      -0.263  10.432  19.005  0.00  0.00    +0.000 C 
ATOM     19  C   UNL     1       0.845   9.971  18.038  0.00  0.00    +0.000 C 
ATOM     20  N   UNL     1       2.087  10.729  18.172  0.00  0.00    +0.000 N 
ATOM     21  C   UNL     1       2.095  12.113  18.261  0.00  0.00    +0.000 C 
ATOM     22  O   UNL     1       3.120  12.754  18.057  0.00  0.00    +0.000 OA
ATOM     23  H   UNL     1      -1.413  14.917  19.145  0.00  0.00    +0.000 HD
ATOM     24  H   UNL     1       2.947  10.346  17.803  0.00  0.00    +0.000 HD
ENDBRANCH  11  13
BRANCH   8  25
ATOM     25  C   UNL     1      -5.367  13.537  21.745  0.00  0.00    +0.000 C 
ATOM     26  C   UNL     1      -4.652  13.118  23.038  0.00  0.00    +0.000 C 
ATOM     27  C   UNL     1      -5.607  12.803  24.188  0.00  0.00    +0.000 C 
ATOM     28  N   UNL     1      -6.520  13.908  24.471  0.00  0.00    +0.000 NA
ATOM     29  C   UNL     1      -7.298  14.314  23.305  0.00  0.00    +0.000 C 
ATOM     30  C   UNL     1      -6.456  14.589  22.057  0.00  0.00    +0.000 C 
ATOM     31  H   UNL     1      -5.989  14.706  24.822  0.00  0.00    +0.000 HD
ENDBRANCH   8  25
TORSDOF 2
ENDMDL
MODEL 9
REMARK VINA RESULT:      -7.2      3.432      9.391
REMARK  Name = 
REMARK  2 active torsions:
REMARK  status: ('A' for Active; 'I' for Inactive)
REMARK    1  A    between atoms: C_8  and  C_9
REMARK    2  A    between atoms: C_17  and  C_18
REMARK                            x       y       z     vdW  Elec       q    Type
REMARK                         _______ _______ _______ _____ _____    ______ ____
ROOT
ATOM      1  O   UNL     1      -1.684   9.736  17.021  0.00  0.00    +0.000 OA
ATOM      2  C   UNL     1      -2.124  10.437  17.911  0.00  0.00    +0.000 C 
ATOM      3  N   UNL     1      -3.427  10.870  18.024  0.00  0.00    +0.000 N 
ATOM      4  C   UNL     1      -3.566  11.798  19.048  0.00  0.00    +0.000 A 
ATOM      5  C   UNL     1      -4.734  12.477  19.325  0.00  0.00    +0.000 A 
ATOM      6  C   UNL     1      -4.676  13.450  20.309  0.00  0.00    +0.000 A 
ATOM      7  C   UNL     1      -3.456  13.751  20.938  0.00  0.00    +0.000 A 
ATOM      8  C   UNL     1      -2.245  13.088  20.627  0.00  0.00    +0.000 A 
ATOM      9  C   UNL     1      -2.341  12.028  19.709  0.00  0.00    +0.000 A 
ATOM     10  C   UNL     1      -1.402  11.047  19.091  0.00  0.00    +0.000 C 
ATOM     11  C   UNL     1      -0.225  10.639  19.594  0.00  0.00    +0.000 C 
ATOM     12  H   UNL     1      -4.141  10.616  17.360  0.00  0.00    +0.000 HD
ENDROOT
BRANCH  11  13
ATOM     13  C   UNL     1       0.691   9.696  19.044  0.00  0.00    +0.000 A 
ATOM     14  N   UNL     1       1.220   9.846  17.776  0.00  0.00    +0.000 N 
ATOM     15  C   UNL     1       2.183   8.899  17.535  0.00  0.00    +0.000 A 
ATOM     16  C   UNL     1       2.258   8.081  18.637  0.00  0.00    +0.000 A 
ATOM     17  C   UNL     1       1.311   8.582  19.582  0.00  0.00    +0.000 A 
ATOM     18  C   UNL     1       1.159   7.910  20.907  0.00  0.00    +0.000 C 
ATOM     19  C   UNL     1       1.593   6.437  20.778  0.00  0.00    +0.000 C 
ATOM     20  N   UNL     1       2.849   6.263  20.052  0.00  0.00    +0.000 N 
ATOM     21  C   UNL     1       3.106   6.928  18.863  0.00  0.00    +0.000 C 
ATOM     22  O   UNL     1       3.996   6.551  18.107  0.00  0.00    +0.000 OA
ATOM     23  H   UNL     1       0.901  10.527  17.093  0.00  0.00    +0.000 HD
ATOM     24  H   UNL     1       3.364   5.397  20.147  0.00  0.00    +0.000 HD
ENDBRANCH  11  13
BRANCH   8  25
ATOM     25  C   UNL     1      -0.925  13.609  21.191  0.00  0.00    +0.000 C 
ATOM     26  C   UNL     1      -0.657  13.223  22.652  0.00  0.00    +0.000 C 
ATOM     27  C   UNL     1      -1.317  14.161  23.661  0.00  0.00    +0.000 C 
ATOM     28  N   UNL     1      -0.944  15.557  23.450  0.00  0.00    +0.000 NA
ATOM     29  C   UNL     1      -1.242  16.026  22.100  0.00  0.00    +0.000 C 
ATOM     30  C   UNL     1      -0.694  15.125  20.991  0.00  0.00    +0.000 C 
ATOM     31  H   UNL     1       0.051  15.676  23.640  0.00  0.00    +0.000 HD
ENDBRANCH   8  25
TORSDOF 2
ENDMDL
