MODEL 1
REMARK VINA RESULT:      -8.0      0.000      0.000
REMARK  Name = 
REMARK  6 active torsions:
REMARK  status: ('A' for Active; 'I' for Inactive)
REMARK    1  A    between atoms: C_1  and  O_2
REMARK    2  A    between atoms: O_2  and  C_3
REMARK    3  A    between atoms: C_6  and  C_7
REMARK    4  A    between atoms: C_7  and  N_8
REMARK    5  A    between atoms: C_9  and  C_11
REMARK    6  A    between atoms: C_11  and  C_12
REMARK                            x       y       z     vdW  Elec       q    Type
REMARK                         _______ _______ _______ _____ _____    ______ ____
ROOT
ATOM      1  N   UNL     1       2.285   6.770  19.875  0.00  0.00    +0.000 N 
ATOM      2  C   UNL     1       2.597   5.435  20.032  0.00  0.00    +0.000 C 
ATOM      3  O   UNL     1       2.407   4.805  21.066  0.00  0.00    +0.000 OA
ATOM      4  H   UNL     1       2.297   7.152  18.926  0.00  0.00    +0.000 HD
ENDROOT
BRANCH   2   5
ATOM      5  C   UNL     1       3.366   4.876  18.828  0.00  0.00    +0.000 C 
ATOM      6  C   UNL     1       2.484   3.727  18.297  0.00  0.00    +0.000 C 
ATOM      7  C   UNL     1       3.593   5.852  17.684  0.00  0.00    +0.000 C 
ATOM      8  C   UNL     1       4.787   5.312  16.940  0.00  0.00    +0.000 A 
ATOM      9  C   UNL     1       4.772   4.591  15.753  0.00  0.00    +0.000 A 
ATOM     10  C   UNL     1       5.976   4.101  15.231  0.00  0.00    +0.000 A 
ATOM     11  C   UNL     1       7.196   4.427  15.832  0.00  0.00    +0.000 A 
ATOM     12  C   UNL     1       7.200   5.043  17.079  0.00  0.00    +0.000 A 
ATOM     13  C   UNL     1       5.971   5.321  17.671  0.00  0.00    +0.000 A 
ATOM     14  C   UNL     1       5.793   5.133  19.134  0.00  0.00    +0.000 C 
ATOM     15  O   UNL     1       6.680   5.320  19.949  0.00  0.00    +0.000 OA
ATOM     16  O   UNL     1       4.640   4.429  19.405  0.00  0.00    +0.000 OA
ENDBRANCH   2   5
BRANCH   1  17
ATOM     17  C   UNL     1       1.762   7.632  20.918  0.00  0.00    +0.000 C 
BRANCH  17  21
ATOM     18  C   UNL     1      -0.274  11.112  19.366  0.00  0.00    +0.000 A 
ATOM     19  C   UNL     1       0.629  10.408  18.579  0.00  0.00    +0.000 A 
ATOM     20  C   UNL     1       1.290   9.288  19.091  0.00  0.00    +0.000 A 
ATOM     21  C   UNL     1       1.079   8.867  20.402  0.00  0.00    +0.000 A 
ATOM     22  C   UNL     1       0.171   9.588  21.195  0.00  0.00    +0.000 A 
ATOM     23  C   UNL     1      -0.504  10.705  20.681  0.00  0.00    +0.000 A 
BRANCH  18  25
ATOM     24  C   UNL     1      -1.031  13.354  19.550  0.00  0.00    +0.000 C 
ATOM     25  O   UNL     1      -0.841  12.195  18.751  0.00  0.00    +0.000 OA
ENDBRANCH  18  25
ENDBRANCH  17  21
ENDBRANCH   1  17
TORSDOF 4
ENDMDL
MODEL 2
REMARK VINA RESULT:      -8.0      0.304      1.027
REMARK  Name = 
REMARK  6 active torsions:
REMARK  status: ('A' for Active; 'I' for Inactive)
REMARK    1  A    between atoms: C_1  and  O_2
REMARK    2  A    between atoms: O_2  and  C_3
REMARK    3  A    between atoms: C_6  and  C_7
REMARK    4  A    between atoms: C_7  and  N_8
REMARK    5  A    between atoms: C_9  and  C_11
REMARK    6  A    between atoms: C_11  and  C_12
REMARK                            x       y       z     vdW  Elec       q    Type
REMARK                         _______ _______ _______ _____ _____    ______ ____
ROOT
ATOM      1  N   UNL     1       2.272   6.706  19.874  0.00  0.00    +0.000 N 
ATOM      2  C   UNL     1       2.604   5.379  20.055  0.00  0.00    +0.000 C 
ATOM      3  O   UNL     1       2.437   4.768  21.104  0.00  0.00    +0.000 OA
ATOM      4  H   UNL     1       2.267   7.067  18.916  0.00  0.00    +0.000 HD
ENDROOT
BRANCH   2   5
ATOM      5  C   UNL     1       3.368   4.805  18.854  0.00  0.00    +0.000 C 
ATOM      6  C   UNL     1       2.496   3.633  18.358  0.00  0.00    +0.000 C 
ATOM      7  C   UNL     1       3.567   5.760  17.687  0.00  0.00    +0.000 C 
ATOM      8  C   UNL     1       4.760   5.222  16.940  0.00  0.00    +0.000 A 
ATOM      9  C   UNL     1       4.742   4.475  15.768  0.00  0.00    +0.000 A 
ATOM     10  C   UNL     1       5.946   3.992  15.242  0.00  0.00    +0.000 A 
ATOM     11  C   UNL     1       7.168   4.348  15.822  0.00  0.00    +0.000 A 
ATOM     12  C   UNL     1       7.179   4.989  17.056  0.00  0.00    +0.000 A 
ATOM     13  C   UNL     1       5.953   5.263  17.657  0.00  0.00    +0.000 A 
ATOM     14  C   UNL     1       5.795   5.103  19.124  0.00  0.00    +0.000 C 
ATOM     15  O   UNL     1       6.688   5.319  19.926  0.00  0.00    +0.000 OA
ATOM     16  O   UNL     1       4.655   4.389  19.425  0.00  0.00    +0.000 OA
ENDBRANCH   2   5
BRANCH   1  17
ATOM     17  C   UNL     1       1.748   7.582  20.904  0.00  0.00    +0.000 C 
BRANCH  17  21
ATOM     18  C   UNL     1      -0.224  11.136  19.439  0.00  0.00    +0.000 A 
ATOM     19  C   UNL     1      -0.483  10.655  20.717  0.00  0.00    +0.000 A 
ATOM     20  C   UNL     1       0.152   9.500  21.181  0.00  0.00    +0.000 A 
ATOM     21  C   UNL     1       1.038   8.793  20.370  0.00  0.00    +0.000 A 
ATOM     22  C   UNL     1       1.290   9.280  19.077  0.00  0.00    +0.000 A 
ATOM     23  C   UNL     1       0.663  10.446  18.612  0.00  0.00    +0.000 A 
BRANCH  18  25
ATOM     24  C   UNL     1      -2.114  12.516  19.832  0.00  0.00    +0.000 C 
ATOM     25  O   UNL     1      -0.921  12.265  19.103  0.00  0.00    +0.000 OA
ENDBRANCH  18  25
ENDBRANCH  17  21
ENDBRANCH   1  17
TORSDOF 4
ENDMDL
MODEL 3
REMARK VINA RESULT:      -7.7      4.281      8.110
REMARK  Name = 
REMARK  6 active torsions:
REMARK  status: ('A' for Active; 'I' for Inactive)
REMARK    1  A    between atoms: C_1  and  O_2
REMARK    2  A    between atoms: O_2  and  C_3
REMARK    3  A    between atoms: C_6  and  C_7
REMARK    4  A    between atoms: C_7  and  N_8
REMARK    5  A    between atoms: C_9  and  C_11
REMARK    6  A    between atoms: C_11  and  C_12
REMARK                            x       y       z     vdW  Elec       q    Type
REMARK                         _______ _______ _______ _____ _____    ______ ____
ROOT
ATOM      1  N   UNL     1       6.062   5.746  16.559  0.00  0.00    +0.000 N 
ATOM      2  C   UNL     1       6.140   4.925  17.666  0.00  0.00    +0.000 C 
ATOM      3  O   UNL     1       7.082   4.175  17.897  0.00  0.00    +0.000 OA
ATOM      4  H   UNL     1       5.339   6.469  16.556  0.00  0.00    +0.000 HD
ENDROOT
BRANCH   2   5
ATOM      5  C   UNL     1       4.839   4.925  18.479  0.00  0.00    +0.000 C 
ATOM      6  C   UNL     1       4.574   6.412  18.796  0.00  0.00    +0.000 C 
ATOM      7  C   UNL     1       3.615   4.381  17.758  0.00  0.00    +0.000 C 
ATOM      8  C   UNL     1       2.674   3.954  18.853  0.00  0.00    +0.000 A 
ATOM      9  C   UNL     1       1.561   4.648  19.313  0.00  0.00    +0.000 A 
ATOM     10  C   UNL     1       0.831   4.138  20.394  0.00  0.00    +0.000 A 
ATOM     11  C   UNL     1       1.144   2.887  20.936  0.00  0.00    +0.000 A 
ATOM     12  C   UNL     1       2.323   2.254  20.558  0.00  0.00    +0.000 A 
ATOM     13  C   UNL     1       3.140   2.900  19.633  0.00  0.00    +0.000 A 
ATOM     14  C   UNL     1       4.616   2.857  19.791  0.00  0.00    +0.000 C 
ATOM     15  O   UNL     1       5.216   1.903  20.256  0.00  0.00    +0.000 OA
ATOM     16  O   UNL     1       5.164   4.114  19.659  0.00  0.00    +0.000 OA
ENDBRANCH   2   5
BRANCH   1  17
ATOM     17  C   UNL     1       7.035   5.791  15.485  0.00  0.00    +0.000 C 
BRANCH  17  21
ATOM     18  C   UNL     1       6.020   3.258  12.135  0.00  0.00    +0.000 A 
ATOM     19  C   UNL     1       5.183   3.343  13.241  0.00  0.00    +0.000 A 
ATOM     20  C   UNL     1       5.521   4.158  14.324  0.00  0.00    +0.000 A 
ATOM     21  C   UNL     1       6.712   4.882  14.332  0.00  0.00    +0.000 A 
ATOM     22  C   UNL     1       7.558   4.785  13.216  0.00  0.00    +0.000 A 
ATOM     23  C   UNL     1       7.216   3.977  12.121  0.00  0.00    +0.000 A 
BRANCH  18  25
ATOM     24  C   UNL     1       6.157   1.117  11.119  0.00  0.00    +0.000 C 
ATOM     25  O   UNL     1       5.580   2.415  11.151  0.00  0.00    +0.000 OA
ENDBRANCH  18  25
ENDBRANCH  17  21
ENDBRANCH   1  17
TORSDOF 4
ENDMDL
MODEL 4
REMARK VINA RESULT:      -7.7      1.909      2.687
REMARK  Name = 
REMARK  6 active torsions:
REMARK  status: ('A' for Active; 'I' for Inactive)
REMARK    1  A    between atoms: C_1  and  O_2
REMARK    2  A    between atoms: O_2  and  C_3
REMARK    3  A    between atoms: C_6  and  C_7
REMARK    4  A    between atoms: C_7  and  N_8
REMARK    5  A    between atoms: C_9  and  C_11
REMARK    6  A    between atoms: C_11  and  C_12
REMARK                            x       y       z     vdW  Elec       q    Type
REMARK                         _______ _______ _______ _____ _____    ______ ____
ROOT
ATOM      1  N   UNL     1       1.828   7.721  20.405  0.00  0.00    +0.000 N 
ATOM      2  C   UNL     1       2.082   6.432  19.982  0.00  0.00    +0.000 C 
ATOM      3  O   UNL     1       1.852   5.433  20.655  0.00  0.00    +0.000 OA
ATOM      4  H   UNL     1       1.869   8.466  19.705  0.00  0.00    +0.000 HD
ENDROOT
BRANCH   2   5
ATOM      5  C   UNL     1       2.846   6.400  18.652  0.00  0.00    +0.000 C 
ATOM      6  C   UNL     1       2.589   7.783  18.018  0.00  0.00    +0.000 C 
ATOM      7  C   UNL     1       4.351   6.214  18.764  0.00  0.00    +0.000 C 
ATOM      8  C   UNL     1       4.777   5.655  17.432  0.00  0.00    +0.000 A 
ATOM      9  C   UNL     1       5.374   6.352  16.388  0.00  0.00    +0.000 A 
ATOM     10  C   UNL     1       5.643   5.689  15.185  0.00  0.00    +0.000 A 
ATOM     11  C   UNL     1       5.420   4.314  15.066  0.00  0.00    +0.000 A 
ATOM     12  C   UNL     1       4.715   3.646  16.062  0.00  0.00    +0.000 A 
ATOM     13  C   UNL     1       4.271   4.389  17.152  0.00  0.00    +0.000 A 
ATOM     14  C   UNL     1       2.933   4.118  17.738  0.00  0.00    +0.000 C 
ATOM     15  O   UNL     1       2.428   3.009  17.778  0.00  0.00    +0.000 OA
ATOM     16  O   UNL     1       2.227   5.287  17.921  0.00  0.00    +0.000 OA
ENDBRANCH   2   5
BRANCH   1  17
ATOM     17  C   UNL     1       1.325   8.084  21.716  0.00  0.00    +0.000 C 
BRANCH  17  21
ATOM     18  C   UNL     1      -1.261  11.545  21.740  0.00  0.00    +0.000 A 
ATOM     19  C   UNL     1      -1.006  10.840  22.910  0.00  0.00    +0.000 A 
ATOM     20  C   UNL     1      -0.176   9.717  22.893  0.00  0.00    +0.000 A 
ATOM     21  C   UNL     1       0.396   9.265  21.706  0.00  0.00    +0.000 A 
ATOM     22  C   UNL     1       0.128   9.977  20.525  0.00  0.00    +0.000 A 
ATOM     23  C   UNL     1      -0.696  11.112  20.540  0.00  0.00    +0.000 A 
BRANCH  18  25
ATOM     24  C   UNL     1      -3.209  12.437  22.762  0.00  0.00    +0.000 C 
ATOM     25  O   UNL     1      -2.101  12.615  21.891  0.00  0.00    +0.000 OA
ENDBRANCH  18  25
ENDBRANCH  17  21
ENDBRANCH   1  17
TORSDOF 4
ENDMDL
MODEL 5
REMARK VINA RESULT:      -7.6      1.826      2.414
REMARK  Name = 
REMARK  6 active torsions:
REMARK  status: ('A' for Active; 'I' for Inactive)
REMARK    1  A    between atoms: C_1  and  O_2
REMARK    2  A    between atoms: O_2  and  C_3
REMARK    3  A    between atoms: C_6  and  C_7
REMARK    4  A    between atoms: C_7  and  N_8
REMARK    5  A    between atoms: C_9  and  C_11
REMARK    6  A    between atoms: C_11  and  C_12
REMARK                            x       y       z     vdW  Elec       q    Type
REMARK                         _______ _______ _______ _____ _____    ______ ____
ROOT
ATOM      1  N   UNL     1       1.815   7.641  20.343  0.00  0.00    +0.000 N 
ATOM      2  C   UNL     1       2.163   6.362  19.960  0.00  0.00    +0.000 C 
ATOM      3  O   UNL     1       2.006   5.371  20.664  0.00  0.00    +0.000 OA
ATOM      4  H   UNL     1       1.803   8.365  19.620  0.00  0.00    +0.000 HD
ENDROOT
BRANCH   2   5
ATOM      5  C   UNL     1       2.927   6.344  18.630  0.00  0.00    +0.000 C 
ATOM      6  C   UNL     1       2.682   7.739  18.017  0.00  0.00    +0.000 C 
ATOM      7  C   UNL     1       4.431   6.144  18.740  0.00  0.00    +0.000 C 
ATOM      8  C   UNL     1       4.853   5.602  17.400  0.00  0.00    +0.000 A 
ATOM      9  C   UNL     1       5.456   6.311  16.367  0.00  0.00    +0.000 A 
ATOM     10  C   UNL     1       5.721   5.664  15.153  0.00  0.00    +0.000 A 
ATOM     11  C   UNL     1       5.487   4.292  15.013  0.00  0.00    +0.000 A 
ATOM     12  C   UNL     1       4.776   3.615  15.998  0.00  0.00    +0.000 A 
ATOM     13  C   UNL     1       4.336   4.345  17.100  0.00  0.00    +0.000 A 
ATOM     14  C   UNL     1       2.997   4.076  17.681  0.00  0.00    +0.000 C 
ATOM     15  O   UNL     1       2.482   2.971  17.704  0.00  0.00    +0.000 OA
ATOM     16  O   UNL     1       2.300   5.248  17.881  0.00  0.00    +0.000 OA
ENDBRANCH   2   5
BRANCH   1  17
ATOM     17  C   UNL     1       1.287   8.008  21.643  0.00  0.00    +0.000 C 
BRANCH  17  21
ATOM     18  C   UNL     1      -1.241  11.510  21.557  0.00  0.00    +0.000 A 
ATOM     19  C   UNL     1      -0.724  10.978  20.382  0.00  0.00    +0.000 A 
ATOM     20  C   UNL     1       0.100   9.851  20.418  0.00  0.00    +0.000 A 
ATOM     21  C   UNL     1       0.440   9.249  21.628  0.00  0.00    +0.000 A 
ATOM     22  C   UNL     1      -0.079   9.796  22.813  0.00  0.00    +0.000 A 
ATOM     23  C   UNL     1      -0.916  10.921  22.779  0.00  0.00    +0.000 A 
BRANCH  18  25
ATOM     24  C   UNL     1      -3.217  12.685  22.147  0.00  0.00    +0.000 C 
ATOM     25  O   UNL     1      -2.021  12.622  21.384  0.00  0.00    +0.000 OA
ENDBRANCH  18  25
ENDBRANCH  17  21
ENDBRANCH   1  17
TORSDOF 4
ENDMDL
MODEL 6
REMARK VINA RESULT:      -7.5      3.901      8.372
REMARK  Name = 
REMARK  6 active torsions:
REMARK  status: ('A' for Active; 'I' for Inactive)
REMARK    1  A    between atoms: C_1  and  O_2
REMARK    2  A    between atoms: O_2  and  C_3
REMARK    3  A    between atoms: C_6  and  C_7
REMARK    4  A    between atoms: C_7  and  N_8
REMARK    5  A    between atoms: C_9  and  C_11
REMARK    6  A    between atoms: C_11  and  C_12
REMARK                            x       y       z     vdW  Elec       q    Type
REMARK                         _______ _______ _______ _____ _____    ______ ____
ROOT
ATOM      1  N   UNL     1       5.637   5.268  16.452  0.00  0.00    +0.000 N 
ATOM      2  C   UNL     1       4.771   6.044  17.196  0.00  0.00    +0.000 C 
ATOM      3  O   UNL     1       4.561   7.232  16.982  0.00  0.00    +0.000 OA
ATOM      4  H   UNL     1       5.596   4.254  16.584  0.00  0.00    +0.000 HD
ENDROOT
BRANCH   2   5
ATOM      5  C   UNL     1       4.238   5.298  18.427  0.00  0.00    +0.000 C 
ATOM      6  C   UNL     1       5.432   5.248  19.403  0.00  0.00    +0.000 C 
ATOM      7  C   UNL     1       3.079   5.968  19.148  0.00  0.00    +0.000 C 
ATOM      8  C   UNL     1       2.389   4.857  19.895  0.00  0.00    +0.000 A 
ATOM      9  C   UNL     1       2.503   4.568  21.250  0.00  0.00    +0.000 A 
ATOM     10  C   UNL     1       1.843   3.449  21.772  0.00  0.00    +0.000 A 
ATOM     11  C   UNL     1       0.985   2.690  20.968  0.00  0.00    +0.000 A 
ATOM     12  C   UNL     1       0.967   2.906  19.594  0.00  0.00    +0.000 A 
ATOM     13  C   UNL     1       1.806   3.891  19.080  0.00  0.00    +0.000 A 
ATOM     14  C   UNL     1       2.511   3.666  17.792  0.00  0.00    +0.000 C 
ATOM     15  O   UNL     1       2.041   3.022  16.870  0.00  0.00    +0.000 OA
ATOM     16  O   UNL     1       3.848   3.985  17.898  0.00  0.00    +0.000 OA
ENDBRANCH   2   5
BRANCH   1  17
ATOM     17  C   UNL     1       6.468   5.753  15.368  0.00  0.00    +0.000 C 
BRANCH  17  21
ATOM     18  C   UNL     1       6.433   3.225  11.864  0.00  0.00    +0.000 A 
ATOM     19  C   UNL     1       5.439   3.117  12.828  0.00  0.00    +0.000 A 
ATOM     20  C   UNL     1       5.461   3.932  13.963  0.00  0.00    +0.000 A 
ATOM     21  C   UNL     1       6.488   4.852  14.166  0.00  0.00    +0.000 A 
ATOM     22  C   UNL     1       7.495   4.951  13.191  0.00  0.00    +0.000 A 
ATOM     23  C   UNL     1       7.469   4.142  12.045  0.00  0.00    +0.000 A 
BRANCH  18  25
ATOM     24  C   UNL     1       6.418   0.976  11.106  0.00  0.00    +0.000 C 
ATOM     25  O   UNL     1       6.302   2.361  10.811  0.00  0.00    +0.000 OA
ENDBRANCH  18  25
ENDBRANCH  17  21
ENDBRANCH   1  17
TORSDOF 4
ENDMDL
MODEL 7
REMARK VINA RESULT:      -7.5      2.336      3.620
REMARK  Name = 
REMARK  6 active torsions:
REMARK  status: ('A' for Active; 'I' for Inactive)
REMARK    1  A    between atoms: C_1  and  O_2
REMARK    2  A    between atoms: O_2  and  C_3
REMARK    3  A    between atoms: C_6  and  C_7
REMARK    4  A    between atoms: C_7  and  N_8
REMARK    5  A    between atoms: C_9  and  C_11
REMARK    6  A    between atoms: C_11  and  C_12
REMARK                            x       y       z     vdW  Elec       q    Type
REMARK                         _______ _______ _______ _____ _____    ______ ____
ROOT
ATOM      1  N   UNL     1       1.668   8.828  18.909  0.00  0.00    +0.000 N 
ATOM      2  C   UNL     1       2.536   8.032  18.191  0.00  0.00    +0.000 C 
ATOM      3  O   UNL     1       3.163   8.414  17.210  0.00  0.00    +0.000 OA
ATOM      4  H   UNL     1       1.347   8.482  19.817  0.00  0.00    +0.000 HD
ENDROOT
BRANCH   2   5
ATOM      5  C   UNL     1       2.494   6.569  18.652  0.00  0.00    +0.000 C 
ATOM      6  C   UNL     1       2.004   6.632  20.114  0.00  0.00    +0.000 C 
ATOM      7  C   UNL     1       1.542   5.666  17.883  0.00  0.00    +0.000 C 
ATOM      8  C   UNL     1       2.069   4.271  18.094  0.00  0.00    +0.000 A 
ATOM      9  C   UNL     1       1.575   3.318  18.976  0.00  0.00    +0.000 A 
ATOM     10  C   UNL     1       2.232   2.087  19.097  0.00  0.00    +0.000 A 
ATOM     11  C   UNL     1       3.307   1.770  18.260  0.00  0.00    +0.000 A 
ATOM     12  C   UNL     1       3.873   2.763  17.468  0.00  0.00    +0.000 A 
ATOM     13  C   UNL     1       3.324   4.041  17.537  0.00  0.00    +0.000 A 
ATOM     14  C   UNL     1       4.212   5.231  17.508  0.00  0.00    +0.000 C 
ATOM     15  O   UNL     1       5.254   5.279  16.878  0.00  0.00    +0.000 OA
ATOM     16  O   UNL     1       3.884   6.118  18.511  0.00  0.00    +0.000 OA
ENDBRANCH   2   5
BRANCH   1  17
ATOM     17  C   UNL     1       1.318  10.195  18.572  0.00  0.00    +0.000 C 
BRANCH  17  21
ATOM     18  C   UNL     1      -2.913  10.991  18.209  0.00  0.00    +0.000 A 
ATOM     19  C   UNL     1      -2.127  11.718  19.095  0.00  0.00    +0.000 A 
ATOM     20  C   UNL     1      -0.761  11.449  19.213  0.00  0.00    +0.000 A 
ATOM     21  C   UNL     1      -0.161  10.436  18.467  0.00  0.00    +0.000 A 
ATOM     22  C   UNL     1      -0.963   9.700  17.580  0.00  0.00    +0.000 A 
ATOM     23  C   UNL     1      -2.333   9.974  17.450  0.00  0.00    +0.000 A 
BRANCH  18  25
ATOM     24  C   UNL     1      -4.774  11.764  16.956  0.00  0.00    +0.000 C 
ATOM     25  O   UNL     1      -4.235  11.344  18.201  0.00  0.00    +0.000 OA
ENDBRANCH  18  25
ENDBRANCH  17  21
ENDBRANCH   1  17
TORSDOF 4
ENDMDL
MODEL 8
REMARK VINA RESULT:      -7.4      1.981      8.982
REMARK  Name = 
REMARK  6 active torsions:
REMARK  status: ('A' for Active; 'I' for Inactive)
REMARK    1  A    between atoms: C_1  and  O_2
REMARK    2  A    between atoms: O_2  and  C_3
REMARK    3  A    between atoms: C_6  and  C_7
REMARK    4  A    between atoms: C_7  and  N_8
REMARK    5  A    between atoms: C_9  and  C_11
REMARK    6  A    between atoms: C_11  and  C_12
REMARK                            x       y       z     vdW  Elec       q    Type
REMARK                         _______ _______ _______ _____ _____    ______ ____
ROOT
ATOM      1  N   UNL     1       1.436   8.888  18.615  0.00  0.00    +0.000 N 
ATOM      2  C   UNL     1       1.205  10.218  18.900  0.00  0.00    +0.000 C 
ATOM      3  O   UNL     1       1.807  11.146  18.373  0.00  0.00    +0.000 OA
ATOM      4  H   UNL     1       0.756   8.204  18.956  0.00  0.00    +0.000 HD
ENDROOT
BRANCH   2   5
ATOM      5  C   UNL     1       0.235  10.396  20.076  0.00  0.00    +0.000 C 
ATOM      6  C   UNL     1       0.442   9.141  20.949  0.00  0.00    +0.000 C 
ATOM      7  C   UNL     1       0.483  11.615  20.951  0.00  0.00    +0.000 C 
ATOM      8  C   UNL     1      -0.839  11.892  21.619  0.00  0.00    +0.000 A 
ATOM      9  C   UNL     1      -1.199  11.565  22.921  0.00  0.00    +0.000 A 
ATOM     10  C   UNL     1      -2.501  11.835  23.362  0.00  0.00    +0.000 A 
ATOM     11  C   UNL     1      -3.399  12.529  22.544  0.00  0.00    +0.000 A 
ATOM     12  C   UNL     1      -3.079  12.746  21.208  0.00  0.00    +0.000 A 
ATOM     13  C   UNL     1      -1.856  12.267  20.746  0.00  0.00    +0.000 A 
ATOM     14  C   UNL     1      -1.760  11.663  19.393  0.00  0.00    +0.000 C 
ATOM     15  O   UNL     1      -2.429  12.030  18.442  0.00  0.00    +0.000 OA
ATOM     16  O   UNL     1      -1.084  10.462  19.434  0.00  0.00    +0.000 OA
ENDBRANCH   2   5
BRANCH   1  17
ATOM     17  C   UNL     1       2.462   8.395  17.715  0.00  0.00    +0.000 C 
BRANCH  17  21
ATOM     18  C   UNL     1       4.412   4.787  19.074  0.00  0.00    +0.000 A 
ATOM     19  C   UNL     1       4.907   5.496  17.987  0.00  0.00    +0.000 A 
ATOM     20  C   UNL     1       4.267   6.657  17.548  0.00  0.00    +0.000 A 
ATOM     21  C   UNL     1       3.109   7.118  18.171  0.00  0.00    +0.000 A 
ATOM     22  C   UNL     1       2.608   6.392  19.265  0.00  0.00    +0.000 A 
ATOM     23  C   UNL     1       3.256   5.232  19.716  0.00  0.00    +0.000 A 
BRANCH  18  25
ATOM     24  C   UNL     1       4.376   2.547  19.857  0.00  0.00    +0.000 C 
ATOM     25  O   UNL     1       5.123   3.662  19.393  0.00  0.00    +0.000 OA
ENDBRANCH  18  25
ENDBRANCH  17  21
ENDBRANCH   1  17
TORSDOF 4
ENDMDL
MODEL 9
REMARK VINA RESULT:      -7.4      3.314      7.940
REMARK  Name = 
REMARK  6 active torsions:
REMARK  status: ('A' for Active; 'I' for Inactive)
REMARK    1  A    between atoms: C_1  and  O_2
REMARK    2  A    between atoms: O_2  and  C_3
REMARK    3  A    between atoms: C_6  and  C_7
REMARK    4  A    between atoms: C_7  and  N_8
REMARK    5  A    between atoms: C_9  and  C_11
REMARK    6  A    between atoms: C_11  and  C_12
REMARK                            x       y       z     vdW  Elec       q    Type
REMARK                         _______ _______ _______ _____ _____    ______ ____
ROOT
ATOM      1  N   UNL     1       5.179   5.549  16.703  0.00  0.00    +0.000 N 
ATOM      2  C   UNL     1       4.211   6.433  17.135  0.00  0.00    +0.000 C 
ATOM      3  O   UNL     1       4.125   7.594  16.752  0.00  0.00    +0.000 OA
ATOM      4  H   UNL     1       5.050   4.559  16.928  0.00  0.00    +0.000 HD
ENDROOT
BRANCH   2   5
ATOM      5  C   UNL     1       3.367   5.853  18.278  0.00  0.00    +0.000 C 
ATOM      6  C   UNL     1       2.520   7.040  18.781  0.00  0.00    +0.000 C 
ATOM      7  C   UNL     1       2.412   4.736  17.886  0.00  0.00    +0.000 C 
ATOM      8  C   UNL     1       2.152   3.978  19.161  0.00  0.00    +0.000 A 
ATOM      9  C   UNL     1       1.028   4.072  19.972  0.00  0.00    +0.000 A 
ATOM     10  C   UNL     1       0.979   3.343  21.166  0.00  0.00    +0.000 A 
ATOM     11  C   UNL     1       1.998   2.441  21.491  0.00  0.00    +0.000 A 
ATOM     12  C   UNL     1       3.172   2.438  20.745  0.00  0.00    +0.000 A 
ATOM     13  C   UNL     1       3.271   3.338  19.686  0.00  0.00    +0.000 A 
ATOM     14  C   UNL     1       4.558   4.029  19.420  0.00  0.00    +0.000 C 
ATOM     15  O   UNL     1       5.649   3.521  19.615  0.00  0.00    +0.000 OA
ATOM     16  O   UNL     1       4.366   5.383  19.246  0.00  0.00    +0.000 OA
ENDBRANCH   2   5
BRANCH   1  17
ATOM     17  C   UNL     1       6.264   5.877  15.799  0.00  0.00    +0.000 C 
BRANCH  17  21
ATOM     18  C   UNL     1       6.334   3.465  12.216  0.00  0.00    +0.000 A 
ATOM     19  C   UNL     1       5.258   3.404  13.093  0.00  0.00    +0.000 A 
ATOM     20  C   UNL     1       5.246   4.180  14.254  0.00  0.00    +0.000 A 
ATOM     21  C   UNL     1       6.317   5.013  14.571  0.00  0.00    +0.000 A 
ATOM     22  C   UNL     1       7.405   5.065  13.685  0.00  0.00    +0.000 A 
ATOM     23  C   UNL     1       7.416   4.295  12.512  0.00  0.00    +0.000 A 
BRANCH  18  25
ATOM     24  C   UNL     1       6.056   1.259  11.386  0.00  0.00    +0.000 C 
ATOM     25  O   UNL     1       6.227   2.645  11.125  0.00  0.00    +0.000 OA
ENDBRANCH  18  25
ENDBRANCH  17  21
ENDBRANCH   1  17
TORSDOF 4
ENDMDL
