MODEL 1
REMARK VINA RESULT:      -6.6      0.000      0.000
REMARK  Name = 
REMARK  6 active torsions:
REMARK  status: ('A' for Active; 'I' for Inactive)
REMARK    1  A    between atoms: C_1  and  O_2
REMARK    2  A    between atoms: O_2  and  C_3
REMARK    3  A    between atoms: C_8  and  C_9
REMARK    4  A    between atoms: N_11  and  C_12
REMARK    5  A    between atoms: C_12  and  C_13
REMARK    6  A    between atoms: C_13  and  N_14
REMARK                            x       y       z     vdW  Elec       q    Type
REMARK                         _______ _______ _______ _____ _____    ______ ____
ROOT
ATOM      1  C   UNL     1       5.027   4.404  17.490  0.00  0.00    +0.000 C 
ATOM      2  O   UNL     1       3.894   4.871  17.565  0.00  0.00    +0.000 OA
ATOM      3  N   UNL     1       5.604   3.732  18.545  0.00  0.00    +0.000 N 
ATOM      4  H   UNL     1       6.584   3.467  18.469  0.00  0.00    +0.000 HD
ENDROOT
BRANCH   1  10
ATOM      5  C   UNL     1       7.025   5.227  16.107  0.00  0.00    +0.000 A 
ATOM      6  N   UNL     1       7.690   5.355  14.930  0.00  0.00    +0.000 NA
ATOM      7  C   UNL     1       7.123   4.814  13.830  0.00  0.00    +0.000 A 
ATOM      8  C   UNL     1       5.923   4.132  13.846  0.00  0.00    +0.000 A 
ATOM      9  C   UNL     1       5.261   4.001  15.063  0.00  0.00    +0.000 A 
ATOM     10  C   UNL     1       5.805   4.560  16.230  0.00  0.00    +0.000 A 
BRANCH   5  12
ATOM     11  C   UNL     1       7.337   7.195  17.351  0.00  0.00    +0.000 C 
ATOM     12  O   UNL     1       7.596   5.797  17.230  0.00  0.00    +0.000 OA
ENDBRANCH   5  12
ENDBRANCH   1  10
BRANCH   3  13
ATOM     13  C   UNL     1       4.947   3.619  19.834  0.00  0.00    +0.000 C 
BRANCH  13  14
ATOM     14  C   UNL     1       4.142   2.329  19.994  0.00  0.00    +0.000 C 
BRANCH  14  15
ATOM     15  N   UNL     1       2.735   2.533  19.727  0.00  0.00    +0.000 N 
ATOM     16  C   UNL     1       2.016   2.000  18.697  0.00  0.00    +0.000 A 
ATOM     17  C   UNL     1       0.744   2.501  18.859  0.00  0.00    +0.000 A 
ATOM     18  N   UNL     1       0.679   3.318  19.957  0.00  0.00    +0.000 NA
ATOM     19  C   UNL     1       1.896   3.330  20.453  0.00  0.00    +0.000 A 
ENDBRANCH  14  15
ENDBRANCH  13  14
ENDBRANCH   3  13
TORSDOF 5
ENDMDL
MODEL 2
REMARK VINA RESULT:      -6.4      1.486      1.789
REMARK  Name = 
REMARK  6 active torsions:
REMARK  status: ('A' for Active; 'I' for Inactive)
REMARK    1  A    between atoms: C_1  and  O_2
REMARK    2  A    between atoms: O_2  and  C_3
REMARK    3  A    between atoms: C_8  and  C_9
REMARK    4  A    between atoms: N_11  and  C_12
REMARK    5  A    between atoms: C_12  and  C_13
REMARK    6  A    between atoms: C_13  and  N_14
REMARK                            x       y       z     vdW  Elec       q    Type
REMARK                         _______ _______ _______ _____ _____    ______ ____
ROOT
ATOM      1  C   UNL     1       5.014   4.888  17.878  0.00  0.00    +0.000 C 
ATOM      2  O   UNL     1       5.194   3.992  18.699  0.00  0.00    +0.000 OA
ATOM      3  N   UNL     1       4.147   5.929  18.123  0.00  0.00    +0.000 N 
ATOM      4  H   UNL     1       3.949   6.580  17.366  0.00  0.00    +0.000 HD
ENDROOT
BRANCH   1  10
ATOM      5  C   UNL     1       7.007   5.416  16.351  0.00  0.00    +0.000 A 
ATOM      6  N   UNL     1       7.630   5.375  15.146  0.00  0.00    +0.000 NA
ATOM      7  C   UNL     1       6.983   4.769  14.128  0.00  0.00    +0.000 A 
ATOM      8  C   UNL     1       5.739   4.183  14.254  0.00  0.00    +0.000 A 
ATOM      9  C   UNL     1       5.120   4.226  15.500  0.00  0.00    +0.000 A 
ATOM     10  C   UNL     1       5.749   4.858  16.583  0.00  0.00    +0.000 A 
BRANCH   5  12
ATOM     11  C   UNL     1       7.528   7.473  17.360  0.00  0.00    +0.000 C 
ATOM     12  O   UNL     1       7.662   6.053  17.390  0.00  0.00    +0.000 OA
ENDBRANCH   5  12
ENDBRANCH   1  10
BRANCH   3  13
ATOM     13  C   UNL     1       3.326   5.979  19.320  0.00  0.00    +0.000 C 
BRANCH  13  14
ATOM     14  C   UNL     1       2.012   5.209  19.185  0.00  0.00    +0.000 C 
BRANCH  14  15
ATOM     15  N   UNL     1       1.874   4.194  20.208  0.00  0.00    +0.000 N 
ATOM     16  C   UNL     1       1.118   3.061  20.132  0.00  0.00    +0.000 A 
ATOM     17  C   UNL     1       1.294   2.437  21.347  0.00  0.00    +0.000 A 
ATOM     18  N   UNL     1       2.136   3.165  22.149  0.00  0.00    +0.000 NA
ATOM     19  C   UNL     1       2.458   4.224  21.442  0.00  0.00    +0.000 A 
ENDBRANCH  14  15
ENDBRANCH  13  14
ENDBRANCH   3  13
TORSDOF 5
ENDMDL
MODEL 3
REMARK VINA RESULT:      -6.4      1.527      1.869
REMARK  Name = 
REMARK  6 active torsions:
REMARK  status: ('A' for Active; 'I' for Inactive)
REMARK    1  A    between atoms: C_1  and  O_2
REMARK    2  A    between atoms: O_2  and  C_3
REMARK    3  A    between atoms: C_8  and  C_9
REMARK    4  A    between atoms: N_11  and  C_12
REMARK    5  A    between atoms: C_12  and  C_13
REMARK    6  A    between atoms: C_13  and  N_14
REMARK                            x       y       z     vdW  Elec       q    Type
REMARK                         _______ _______ _______ _____ _____    ______ ____
ROOT
ATOM      1  C   UNL     1       5.249   5.079  18.308  0.00  0.00    +0.000 C 
ATOM      2  O   UNL     1       5.766   4.482  19.249  0.00  0.00    +0.000 OA
ATOM      3  N   UNL     1       4.110   5.837  18.470  0.00  0.00    +0.000 N 
ATOM      4  H   UNL     1       3.661   6.214  17.638  0.00  0.00    +0.000 HD
ENDROOT
BRANCH   1  10
ATOM      5  C   UNL     1       7.072   5.576  16.572  0.00  0.00    +0.000 A 
ATOM      6  N   UNL     1       7.584   5.478  15.318  0.00  0.00    +0.000 NA
ATOM      7  C   UNL     1       6.871   4.785  14.405  0.00  0.00    +0.000 A 
ATOM      8  C   UNL     1       5.669   4.167  14.682  0.00  0.00    +0.000 A 
ATOM      9  C   UNL     1       5.164   4.269  15.976  0.00  0.00    +0.000 A 
ATOM     10  C   UNL     1       5.864   4.991  16.955  0.00  0.00    +0.000 A 
BRANCH   5  12
ATOM     11  C   UNL     1       7.559   7.707  17.433  0.00  0.00    +0.000 C 
ATOM     12  O   UNL     1       7.793   6.301  17.504  0.00  0.00    +0.000 OA
ENDBRANCH   5  12
ENDBRANCH   1  10
BRANCH   3  13
ATOM     13  C   UNL     1       3.402   5.896  19.736  0.00  0.00    +0.000 C 
BRANCH  13  14
ATOM     14  C   UNL     1       2.086   5.117  19.731  0.00  0.00    +0.000 C 
BRANCH  14  15
ATOM     15  N   UNL     1       2.226   3.825  19.094  0.00  0.00    +0.000 N 
ATOM     16  C   UNL     1       2.743   2.694  19.654  0.00  0.00    +0.000 A 
ATOM     17  C   UNL     1       2.682   1.746  18.657  0.00  0.00    +0.000 A 
ATOM     18  N   UNL     1       2.142   2.278  17.515  0.00  0.00    +0.000 NA
ATOM     19  C   UNL     1       1.889   3.534  17.803  0.00  0.00    +0.000 A 
ENDBRANCH  14  15
ENDBRANCH  13  14
ENDBRANCH   3  13
TORSDOF 5
ENDMDL
MODEL 4
REMARK VINA RESULT:      -6.3      1.572      2.851
REMARK  Name = 
REMARK  6 active torsions:
REMARK  status: ('A' for Active; 'I' for Inactive)
REMARK    1  A    between atoms: C_1  and  O_2
REMARK    2  A    between atoms: O_2  and  C_3
REMARK    3  A    between atoms: C_8  and  C_9
REMARK    4  A    between atoms: N_11  and  C_12
REMARK    5  A    between atoms: C_12  and  C_13
REMARK    6  A    between atoms: C_13  and  N_14
REMARK                            x       y       z     vdW  Elec       q    Type
REMARK                         _______ _______ _______ _____ _____    ______ ____
ROOT
ATOM      1  C   UNL     1       5.171   3.665  18.436  0.00  0.00    +0.000 C 
ATOM      2  O   UNL     1       5.171   3.344  19.622  0.00  0.00    +0.000 OA
ATOM      3  N   UNL     1       4.367   3.030  17.515  0.00  0.00    +0.000 N 
ATOM      4  H   UNL     1       4.491   3.257  16.531  0.00  0.00    +0.000 HD
ENDROOT
BRANCH   1  10
ATOM      5  C   UNL     1       6.280   5.125  16.642  0.00  0.00    +0.000 A 
ATOM      6  N   UNL     1       7.111   6.133  16.270  0.00  0.00    +0.000 NA
ATOM      7  C   UNL     1       7.754   6.806  17.247  0.00  0.00    +0.000 A 
ATOM      8  C   UNL     1       7.600   6.534  18.592  0.00  0.00    +0.000 A 
ATOM      9  C   UNL     1       6.736   5.505  18.955  0.00  0.00    +0.000 A 
ATOM     10  C   UNL     1       6.057   4.768  17.973  0.00  0.00    +0.000 A 
BRANCH   5  12
ATOM     11  C   UNL     1       6.439   4.224  14.479  0.00  0.00    +0.000 C 
ATOM     12  O   UNL     1       5.635   4.423  15.640  0.00  0.00    +0.000 OA
ENDBRANCH   5  12
ENDBRANCH   1  10
BRANCH   3  13
ATOM     13  C   UNL     1       3.547   1.887  17.872  0.00  0.00    +0.000 C 
BRANCH  13  14
ATOM     14  C   UNL     1       2.068   2.233  18.048  0.00  0.00    +0.000 C 
BRANCH  14  15
ATOM     15  N   UNL     1       1.818   2.912  19.301  0.00  0.00    +0.000 N 
ATOM     16  C   UNL     1       1.873   2.364  20.549  0.00  0.00    +0.000 A 
ATOM     17  C   UNL     1       1.539   3.392  21.401  0.00  0.00    +0.000 A 
ATOM     18  N   UNL     1       1.286   4.542  20.699  0.00  0.00    +0.000 NA
ATOM     19  C   UNL     1       1.449   4.220  19.436  0.00  0.00    +0.000 A 
ENDBRANCH  14  15
ENDBRANCH  13  14
ENDBRANCH   3  13
TORSDOF 5
ENDMDL
MODEL 5
REMARK VINA RESULT:      -6.3      1.701      1.897
REMARK  Name = 
REMARK  6 active torsions:
REMARK  status: ('A' for Active; 'I' for Inactive)
REMARK    1  A    between atoms: C_1  and  O_2
REMARK    2  A    between atoms: O_2  and  C_3
REMARK    3  A    between atoms: C_8  and  C_9
REMARK    4  A    between atoms: N_11  and  C_12
REMARK    5  A    between atoms: C_12  and  C_13
REMARK    6  A    between atoms: C_13  and  N_14
REMARK                            x       y       z     vdW  Elec       q    Type
REMARK                         _______ _______ _______ _____ _____    ______ ____
ROOT
ATOM      1  C   UNL     1       4.181   4.723  16.985  0.00  0.00    +0.000 C 
ATOM      2  O   UNL     1       3.695   3.623  17.236  0.00  0.00    +0.000 OA
ATOM      3  N   UNL     1       3.678   5.880  17.539  0.00  0.00    +0.000 N 
ATOM      4  H   UNL     1       4.043   6.771  17.209  0.00  0.00    +0.000 HD
ENDROOT
BRANCH   1  10
ATOM      5  C   UNL     1       6.493   5.583  16.280  0.00  0.00    +0.000 A 
ATOM      6  N   UNL     1       7.523   5.649  15.398  0.00  0.00    +0.000 NA
ATOM      7  C   UNL     1       7.412   4.943  14.253  0.00  0.00    +0.000 A 
ATOM      8  C   UNL     1       6.322   4.155  13.944  0.00  0.00    +0.000 A 
ATOM      9  C   UNL     1       5.279   4.092  14.864  0.00  0.00    +0.000 A 
ATOM     10  C   UNL     1       5.345   4.820  16.062  0.00  0.00    +0.000 A 
BRANCH   5  12
ATOM     11  C   UNL     1       7.543   5.786  18.372  0.00  0.00    +0.000 C 
ATOM     12  O   UNL     1       6.598   6.321  17.446  0.00  0.00    +0.000 OA
ENDBRANCH   5  12
ENDBRANCH   1  10
BRANCH   3  13
ATOM     13  C   UNL     1       2.489   5.877  18.373  0.00  0.00    +0.000 C 
BRANCH  13  14
ATOM     14  C   UNL     1       2.795   5.723  19.863  0.00  0.00    +0.000 C 
BRANCH  14  15
ATOM     15  N   UNL     1       2.229   4.508  20.408  0.00  0.00    +0.000 N 
ATOM     16  C   UNL     1       1.319   3.691  19.804  0.00  0.00    +0.000 A 
ATOM     17  C   UNL     1       1.078   2.692  20.719  0.00  0.00    +0.000 A 
ATOM     18  N   UNL     1       1.819   2.886  21.856  0.00  0.00    +0.000 NA
ATOM     19  C   UNL     1       2.493   3.994  21.646  0.00  0.00    +0.000 A 
ENDBRANCH  14  15
ENDBRANCH  13  14
ENDBRANCH   3  13
TORSDOF 5
ENDMDL
MODEL 6
REMARK VINA RESULT:      -6.2      2.138      6.244
REMARK  Name = 
REMARK  6 active torsions:
REMARK  status: ('A' for Active; 'I' for Inactive)
REMARK    1  A    between atoms: C_1  and  O_2
REMARK    2  A    between atoms: O_2  and  C_3
REMARK    3  A    between atoms: C_8  and  C_9
REMARK    4  A    between atoms: N_11  and  C_12
REMARK    5  A    between atoms: C_12  and  C_13
REMARK    6  A    between atoms: C_13  and  N_14
REMARK                            x       y       z     vdW  Elec       q    Type
REMARK                         _______ _______ _______ _____ _____    ______ ____
ROOT
ATOM      1  C   UNL     1       3.738   5.999  17.456  0.00  0.00    +0.000 C 
ATOM      2  O   UNL     1       3.855   7.216  17.336  0.00  0.00    +0.000 OA
ATOM      3  N   UNL     1       4.434   5.122  16.653  0.00  0.00    +0.000 N 
ATOM      4  H   UNL     1       4.213   4.131  16.718  0.00  0.00    +0.000 HD
ENDROOT
BRANCH   1  10
ATOM      5  C   UNL     1       2.116   4.249  18.398  0.00  0.00    +0.000 A 
ATOM      6  N   UNL     1       1.282   3.795  19.369  0.00  0.00    +0.000 NA
ATOM      7  C   UNL     1       1.136   4.557  20.473  0.00  0.00    +0.000 A 
ATOM      8  C   UNL     1       1.794   5.755  20.668  0.00  0.00    +0.000 A 
ATOM      9  C   UNL     1       2.652   6.200  19.666  0.00  0.00    +0.000 A 
ATOM     10  C   UNL     1       2.825   5.447  18.495  0.00  0.00    +0.000 A 
BRANCH   5  12
ATOM     11  C   UNL     1       2.522   2.102  17.534  0.00  0.00    +0.000 C 
ATOM     12  O   UNL     1       2.253   3.476  17.259  0.00  0.00    +0.000 OA
ENDBRANCH   5  12
ENDBRANCH   1  10
BRANCH   3  13
ATOM     13  C   UNL     1       5.270   5.583  15.560  0.00  0.00    +0.000 C 
BRANCH  13  14
ATOM     14  C   UNL     1       6.741   5.198  15.718  0.00  0.00    +0.000 C 
BRANCH  14  15
ATOM     15  N   UNL     1       7.249   5.531  17.032  0.00  0.00    +0.000 N 
ATOM     16  C   UNL     1       7.421   6.783  17.544  0.00  0.00    +0.000 A 
ATOM     17  C   UNL     1       7.943   6.581  18.802  0.00  0.00    +0.000 A 
ATOM     18  N   UNL     1       8.087   5.242  19.058  0.00  0.00    +0.000 NA
ATOM     19  C   UNL     1       7.674   4.634  17.970  0.00  0.00    +0.000 A 
ENDBRANCH  14  15
ENDBRANCH  13  14
ENDBRANCH   3  13
TORSDOF 5
ENDMDL
MODEL 7
REMARK VINA RESULT:      -6.2      1.607      2.913
REMARK  Name = 
REMARK  6 active torsions:
REMARK  status: ('A' for Active; 'I' for Inactive)
REMARK    1  A    between atoms: C_1  and  O_2
REMARK    2  A    between atoms: O_2  and  C_3
REMARK    3  A    between atoms: C_8  and  C_9
REMARK    4  A    between atoms: N_11  and  C_12
REMARK    5  A    between atoms: C_12  and  C_13
REMARK    6  A    between atoms: C_13  and  N_14
REMARK                            x       y       z     vdW  Elec       q    Type
REMARK                         _______ _______ _______ _____ _____    ______ ____
ROOT
ATOM      1  C   UNL     1       4.885   3.539  18.273  0.00  0.00    +0.000 C 
ATOM      2  O   UNL     1       5.059   3.083  19.400  0.00  0.00    +0.000 OA
ATOM      3  N   UNL     1       3.852   3.108  17.470  0.00  0.00    +0.000 N 
ATOM      4  H   UNL     1       3.823   3.435  16.506  0.00  0.00    +0.000 HD
ENDROOT
BRANCH   1  10
ATOM      5  C   UNL     1       6.356   4.620  16.471  0.00  0.00    +0.000 A 
ATOM      6  N   UNL     1       7.205   5.592  16.048  0.00  0.00    +0.000 NA
ATOM      7  C   UNL     1       7.533   6.561  16.929  0.00  0.00    +0.000 A 
ATOM      8  C   UNL     1       7.043   6.620  18.218  0.00  0.00    +0.000 A 
ATOM      9  C   UNL     1       6.166   5.622  18.630  0.00  0.00    +0.000 A 
ATOM     10  C   UNL     1       5.807   4.586  17.753  0.00  0.00    +0.000 A 
BRANCH   5  12
ATOM     11  C   UNL     1       5.932   4.073  14.226  0.00  0.00    +0.000 C 
ATOM     12  O   UNL     1       6.033   3.618  15.574  0.00  0.00    +0.000 OA
ENDBRANCH   5  12
ENDBRANCH   1  10
BRANCH   3  13
ATOM     13  C   UNL     1       2.970   2.027  17.869  0.00  0.00    +0.000 C 
BRANCH  13  14
ATOM     14  C   UNL     1       1.635   2.511  18.433  0.00  0.00    +0.000 C 
BRANCH  14  15
ATOM     15  N   UNL     1       1.791   3.144  19.725  0.00  0.00    +0.000 N 
ATOM     16  C   UNL     1       1.815   4.484  19.978  0.00  0.00    +0.000 A 
ATOM     17  C   UNL     1       2.006   4.584  21.337  0.00  0.00    +0.000 A 
ATOM     18  N   UNL     1       2.097   3.341  21.908  0.00  0.00    +0.000 NA
ATOM     19  C   UNL     1       1.977   2.493  20.912  0.00  0.00    +0.000 A 
ENDBRANCH  14  15
ENDBRANCH  13  14
ENDBRANCH   3  13
TORSDOF 5
ENDMDL
MODEL 8
REMARK VINA RESULT:      -6.1      2.090      6.295
REMARK  Name = 
REMARK  6 active torsions:
REMARK  status: ('A' for Active; 'I' for Inactive)
REMARK    1  A    between atoms: C_1  and  O_2
REMARK    2  A    between atoms: O_2  and  C_3
REMARK    3  A    between atoms: C_8  and  C_9
REMARK    4  A    between atoms: N_11  and  C_12
REMARK    5  A    between atoms: C_12  and  C_13
REMARK    6  A    between atoms: C_13  and  N_14
REMARK                            x       y       z     vdW  Elec       q    Type
REMARK                         _______ _______ _______ _____ _____    ______ ____
ROOT
ATOM      1  C   UNL     1       3.178   3.482  17.774  0.00  0.00    +0.000 C 
ATOM      2  O   UNL     1       2.441   3.216  16.827  0.00  0.00    +0.000 OA
ATOM      3  N   UNL     1       4.447   3.981  17.585  0.00  0.00    +0.000 N 
ATOM      4  H   UNL     1       5.054   4.074  18.397  0.00  0.00    +0.000 HD
ENDROOT
BRANCH   1  10
ATOM      5  C   UNL     1       3.457   2.763  20.221  0.00  0.00    +0.000 A 
ATOM      6  N   UNL     1       2.964   2.569  21.471  0.00  0.00    +0.000 NA
ATOM      7  C   UNL     1       1.666   2.872  21.685  0.00  0.00    +0.000 A 
ATOM      8  C   UNL     1       0.829   3.376  20.711  0.00  0.00    +0.000 A 
ATOM      9  C   UNL     1       1.354   3.578  19.438  0.00  0.00    +0.000 A 
ATOM     10  C   UNL     1       2.694   3.264  19.166  0.00  0.00    +0.000 A 
BRANCH   5  12
ATOM     11  C   UNL     1       5.242   1.350  20.800  0.00  0.00    +0.000 C 
ATOM     12  O   UNL     1       4.782   2.435  19.997  0.00  0.00    +0.000 OA
ENDBRANCH   5  12
ENDBRANCH   1  10
BRANCH   3  13
ATOM     13  C   UNL     1       5.023   4.132  16.261  0.00  0.00    +0.000 C 
BRANCH  13  14
ATOM     14  C   UNL     1       6.550   4.205  16.268  0.00  0.00    +0.000 C 
BRANCH  14  15
ATOM     15  N   UNL     1       7.036   5.263  17.127  0.00  0.00    +0.000 N 
ATOM     16  C   UNL     1       6.995   6.602  16.871  0.00  0.00    +0.000 A 
ATOM     17  C   UNL     1       7.592   7.188  17.965  0.00  0.00    +0.000 A 
ATOM     18  N   UNL     1       7.989   6.238  18.870  0.00  0.00    +0.000 NA
ATOM     19  C   UNL     1       7.654   5.087  18.333  0.00  0.00    +0.000 A 
ENDBRANCH  14  15
ENDBRANCH  13  14
ENDBRANCH   3  13
TORSDOF 5
ENDMDL
MODEL 9
REMARK VINA RESULT:      -6.1      1.515      2.725
REMARK  Name = 
REMARK  6 active torsions:
REMARK  status: ('A' for Active; 'I' for Inactive)
REMARK    1  A    between atoms: C_1  and  O_2
REMARK    2  A    between atoms: O_2  and  C_3
REMARK    3  A    between atoms: C_8  and  C_9
REMARK    4  A    between atoms: N_11  and  C_12
REMARK    5  A    between atoms: C_12  and  C_13
REMARK    6  A    between atoms: C_13  and  N_14
REMARK                            x       y       z     vdW  Elec       q    Type
REMARK                         _______ _______ _______ _____ _____    ______ ____
ROOT
ATOM      1  C   UNL     1       4.396   4.367  17.510  0.00  0.00    +0.000 C 
ATOM      2  O   UNL     1       3.311   4.918  17.345  0.00  0.00    +0.000 OA
ATOM      3  N   UNL     1       4.512   2.996  17.558  0.00  0.00    +0.000 N 
ATOM      4  H   UNL     1       5.413   2.597  17.811  0.00  0.00    +0.000 HD
ENDROOT
BRANCH   1  10
ATOM      5  C   UNL     1       6.253   5.908  16.639  0.00  0.00    +0.000 A 
ATOM      6  N   UNL     1       7.383   6.637  16.825  0.00  0.00    +0.000 NA
ATOM      7  C   UNL     1       7.919   6.656  18.064  0.00  0.00    +0.000 A 
ATOM      8  C   UNL     1       7.374   5.988  19.142  0.00  0.00    +0.000 A 
ATOM      9  C   UNL     1       6.210   5.253  18.935  0.00  0.00    +0.000 A 
ATOM     10  C   UNL     1       5.625   5.194  17.661  0.00  0.00    +0.000 A 
BRANCH   5  12
ATOM     11  C   UNL     1       6.308   4.887  14.524  0.00  0.00    +0.000 C 
ATOM     12  O   UNL     1       5.714   5.874  15.366  0.00  0.00    +0.000 OA
ENDBRANCH   5  12
ENDBRANCH   1  10
BRANCH   3  13
ATOM     13  C   UNL     1       3.350   2.126  17.513  0.00  0.00    +0.000 C 
BRANCH  13  14
ATOM     14  C   UNL     1       2.936   1.595  18.885  0.00  0.00    +0.000 C 
BRANCH  14  15
ATOM     15  N   UNL     1       2.282   2.610  19.683  0.00  0.00    +0.000 N 
ATOM     16  C   UNL     1       1.061   3.169  19.446  0.00  0.00    +0.000 A 
ATOM     17  C   UNL     1       0.890   4.087  20.458  0.00  0.00    +0.000 A 
ATOM     18  N   UNL     1       1.976   4.094  21.295  0.00  0.00    +0.000 NA
ATOM     19  C   UNL     1       2.804   3.204  20.797  0.00  0.00    +0.000 A 
ENDBRANCH  14  15
ENDBRANCH  13  14
ENDBRANCH   3  13
TORSDOF 5
ENDMDL
