MODEL 1
REMARK VINA RESULT:      -8.5      0.000      0.000
REMARK  Name = 
REMARK  8 active torsions:
REMARK  status: ('A' for Active; 'I' for Inactive)
REMARK    1  A    between atoms: C_1  and  C_2
REMARK    2  A    between atoms: C_2  and  S_3
REMARK    3  A    between atoms: C_2  and  C_15
REMARK    4  A    between atoms: S_3  and  C_4
REMARK    5  A    between atoms: C_6  and  O_7
REMARK    6  A    between atoms: N_17  and  C_18
REMARK    7  A    between atoms: C_21  and  S_22
REMARK    8  A    between atoms: S_22  and  N_23
REMARK                            x       y       z     vdW  Elec       q    Type
REMARK                         _______ _______ _______ _____ _____    ______ ____
ROOT
ATOM      1  C   UNL     1       1.969   4.457  20.198  0.00  0.00    +0.000 C 
ATOM      2  O   UNL     1       0.813   4.387  19.787  0.00  0.00    +0.000 OA
ATOM      3  N   UNL     1       2.717   5.632  20.258  0.00  0.00    +0.000 N 
ATOM      4  H   UNL     1       3.721   5.529  20.349  0.00  0.00    +0.000 HD
ENDROOT
BRANCH   3   5
ATOM      5  C   UNL     1       2.212   6.917  19.951  0.00  0.00    +0.000 A 
ATOM      6  C   UNL     1       2.388   7.503  18.691  0.00  0.00    +0.000 A 
ATOM      7  C   UNL     1       1.910   8.781  18.415  0.00  0.00    +0.000 A 
ATOM      8  C   UNL     1       1.218   9.479  19.398  0.00  0.00    +0.000 A 
ATOM      9  C   UNL     1       1.013   8.912  20.660  0.00  0.00    +0.000 A 
ATOM     10  C   UNL     1       1.500   7.623  20.929  0.00  0.00    +0.000 A 
BRANCH   8  11
ATOM     11  S   UNL     1       0.626  11.098  19.017  0.00  0.00    +0.000 S 
ATOM     12  O   UNL     1      -0.605  10.994  18.269  0.00  0.00    +0.000 OA
ATOM     13  O   UNL     1       0.757  11.940  20.184  0.00  0.00    +0.000 OA
BRANCH  11  14
ATOM     14  N   UNL     1       1.791  11.626  17.933  0.00  0.00    +0.000 NA
ATOM     15  H   UNL     1       2.482  12.199  18.415  0.00  0.00    +0.000 HD
ATOM     16  H   UNL     1       2.185  10.834  17.425  0.00  0.00    +0.000 HD
ENDBRANCH  11  14
ENDBRANCH   8  11
ENDBRANCH   3   5
BRANCH   1  18
ATOM     17  C   UNL     1       1.725   2.440  21.667  0.00  0.00    +0.000 C 
ATOM     18  C   UNL     1       2.672   3.213  20.744  0.00  0.00    +0.000 C 
BRANCH  18  19
ATOM     19  S   UNL     1       3.343   2.148  19.416  0.00  0.00    +0.000 S 
BRANCH  19  20
ATOM     20  C   UNL     1       4.371   3.327  18.582  0.00  0.00    +0.000 A 
ATOM     21  N   UNL     1       4.242   3.404  17.255  0.00  0.00    +0.000 NA
ATOM     22  C   UNL     1       5.076   4.252  16.653  0.00  0.00    +0.000 A 
ATOM     23  C   UNL     1       5.988   5.061  17.286  0.00  0.00    +0.000 A 
ATOM     24  C   UNL     1       6.030   4.912  18.661  0.00  0.00    +0.000 A 
ATOM     25  N   UNL     1       5.223   4.051  19.324  0.00  0.00    +0.000 NA
ATOM     26  C   UNL     1       6.955   5.750  19.506  0.00  0.00    +0.000 C 
ATOM     27  C   UNL     1       8.099   6.377  18.708  0.00  0.00    +0.000 C 
ATOM     28  C   UNL     1       7.568   7.016  17.429  0.00  0.00    +0.000 C 
ATOM     29  C   UNL     1       6.918   5.962  16.533  0.00  0.00    +0.000 C 
BRANCH  22  30
ATOM     30  O   UNL     1       4.977   4.232  15.299  0.00  0.00    +0.000 OA
ATOM     31  H   UNL     1       4.396   5.001  15.148  0.00  0.00    +0.000 HD
ENDBRANCH  22  30
ENDBRANCH  19  20
ENDBRANCH  18  19
ENDBRANCH   1  18
TORSDOF 7
ENDMDL
MODEL 2
REMARK VINA RESULT:      -8.5      1.157      2.148
REMARK  Name = 
REMARK  8 active torsions:
REMARK  status: ('A' for Active; 'I' for Inactive)
REMARK    1  A    between atoms: C_1  and  C_2
REMARK    2  A    between atoms: C_2  and  S_3
REMARK    3  A    between atoms: C_2  and  C_15
REMARK    4  A    between atoms: S_3  and  C_4
REMARK    5  A    between atoms: C_6  and  O_7
REMARK    6  A    between atoms: N_17  and  C_18
REMARK    7  A    between atoms: C_21  and  S_22
REMARK    8  A    between atoms: S_22  and  N_23
REMARK                            x       y       z     vdW  Elec       q    Type
REMARK                         _______ _______ _______ _____ _____    ______ ____
ROOT
ATOM      1  C   UNL     1       1.793   4.608  20.389  0.00  0.00    +0.000 C 
ATOM      2  O   UNL     1       0.576   4.598  20.220  0.00  0.00    +0.000 OA
ATOM      3  N   UNL     1       2.601   5.735  20.240  0.00  0.00    +0.000 N 
ATOM      4  H   UNL     1       3.596   5.570  20.136  0.00  0.00    +0.000 HD
ENDROOT
BRANCH   3   5
ATOM      5  C   UNL     1       2.117   7.037  19.975  0.00  0.00    +0.000 A 
ATOM      6  C   UNL     1       1.463   7.799  20.951  0.00  0.00    +0.000 A 
ATOM      7  C   UNL     1       0.966   9.067  20.665  0.00  0.00    +0.000 A 
ATOM      8  C   UNL     1       1.147   9.602  19.395  0.00  0.00    +0.000 A 
ATOM      9  C   UNL     1       1.810   8.869  18.405  0.00  0.00    +0.000 A 
ATOM     10  C   UNL     1       2.307   7.590  18.703  0.00  0.00    +0.000 A 
BRANCH   8  11
ATOM     11  S   UNL     1       0.504  11.212  19.063  0.00  0.00    +0.000 S 
ATOM     12  O   UNL     1      -0.691  11.095  18.262  0.00  0.00    +0.000 OA
ATOM     13  O   UNL     1       0.555  12.004  20.272  0.00  0.00    +0.000 OA
BRANCH  11  14
ATOM     14  N   UNL     1       1.687  11.835  18.052  0.00  0.00    +0.000 NA
ATOM     15  H   UNL     1       2.165  12.610  18.511  0.00  0.00    +0.000 HD
ATOM     16  H   UNL     1       2.308  11.091  17.735  0.00  0.00    +0.000 HD
ENDBRANCH  11  14
ENDBRANCH   8  11
ENDBRANCH   3   5
BRANCH   1  18
ATOM     17  C   UNL     1       1.705   2.633  21.931  0.00  0.00    +0.000 C 
ATOM     18  C   UNL     1       2.521   3.344  20.847  0.00  0.00    +0.000 C 
BRANCH  18  19
ATOM     19  S   UNL     1       2.921   2.224  19.456  0.00  0.00    +0.000 S 
BRANCH  19  20
ATOM     20  C   UNL     1       4.203   3.167  18.675  0.00  0.00    +0.000 A 
ATOM     21  N   UNL     1       5.065   3.792  19.482  0.00  0.00    +0.000 NA
ATOM     22  C   UNL     1       5.975   4.545  18.865  0.00  0.00    +0.000 A 
ATOM     23  C   UNL     1       6.114   4.676  17.505  0.00  0.00    +0.000 A 
ATOM     24  C   UNL     1       5.179   3.977  16.762  0.00  0.00    +0.000 A 
ATOM     25  N   UNL     1       4.219   3.214  17.335  0.00  0.00    +0.000 NA
ATOM     26  C   UNL     1       5.215   3.991  15.255  0.00  0.00    +0.000 C 
ATOM     27  C   UNL     1       6.020   5.157  14.682  0.00  0.00    +0.000 C 
ATOM     28  C   UNL     1       7.358   5.286  15.402  0.00  0.00    +0.000 C 
ATOM     29  C   UNL     1       7.142   5.574  16.887  0.00  0.00    +0.000 C 
BRANCH  22  30
ATOM     30  O   UNL     1       6.771   5.235  19.722  0.00  0.00    +0.000 OA
ATOM     31  H   UNL     1       6.399   6.132  19.634  0.00  0.00    +0.000 HD
ENDBRANCH  22  30
ENDBRANCH  19  20
ENDBRANCH  18  19
ENDBRANCH   1  18
TORSDOF 7
ENDMDL
MODEL 3
REMARK VINA RESULT:      -8.3      0.706      1.310
REMARK  Name = 
REMARK  8 active torsions:
REMARK  status: ('A' for Active; 'I' for Inactive)
REMARK    1  A    between atoms: C_1  and  C_2
REMARK    2  A    between atoms: C_2  and  S_3
REMARK    3  A    between atoms: C_2  and  C_15
REMARK    4  A    between atoms: S_3  and  C_4
REMARK    5  A    between atoms: C_6  and  O_7
REMARK    6  A    between atoms: N_17  and  C_18
REMARK    7  A    between atoms: C_21  and  S_22
REMARK    8  A    between atoms: S_22  and  N_23
REMARK                            x       y       z     vdW  Elec       q    Type
REMARK                         _______ _______ _______ _____ _____    ______ ____
ROOT
ATOM      1  C   UNL     1       2.032   4.487  20.093  0.00  0.00    +0.000 C 
ATOM      2  O   UNL     1       1.017   4.391  19.408  0.00  0.00    +0.000 OA
ATOM      3  N   UNL     1       2.657   5.691  20.414  0.00  0.00    +0.000 N 
ATOM      4  H   UNL     1       3.615   5.634  20.742  0.00  0.00    +0.000 HD
ENDROOT
BRANCH   3   5
ATOM      5  C   UNL     1       2.150   6.969  20.081  0.00  0.00    +0.000 A 
ATOM      6  C   UNL     1       1.429   7.744  20.997  0.00  0.00    +0.000 A 
ATOM      7  C   UNL     1       0.911   8.987  20.643  0.00  0.00    +0.000 A 
ATOM      8  C   UNL     1       1.139   9.483  19.364  0.00  0.00    +0.000 A 
ATOM      9  C   UNL     1       1.870   8.738  18.434  0.00  0.00    +0.000 A 
ATOM     10  C   UNL     1       2.387   7.484  18.800  0.00  0.00    +0.000 A 
BRANCH   8  11
ATOM     11  S   UNL     1       0.468  11.061  18.946  0.00  0.00    +0.000 S 
ATOM     12  O   UNL     1       1.535  11.941  18.531  0.00  0.00    +0.000 OA
ATOM     13  O   UNL     1      -0.735  10.876  18.166  0.00  0.00    +0.000 OA
BRANCH  11  14
ATOM     14  N   UNL     1      -0.036  11.612  20.448  0.00  0.00    +0.000 NA
ATOM     15  H   UNL     1      -0.373  12.571  20.372  0.00  0.00    +0.000 HD
ATOM     16  H   UNL     1      -0.710  10.962  20.853  0.00  0.00    +0.000 HD
ENDBRANCH  11  14
ENDBRANCH   8  11
ENDBRANCH   3   5
BRANCH   1  18
ATOM     17  C   UNL     1       1.642   2.497  21.566  0.00  0.00    +0.000 C 
ATOM     18  C   UNL     1       2.670   3.242  20.709  0.00  0.00    +0.000 C 
BRANCH  18  19
ATOM     19  S   UNL     1       3.425   2.146  19.452  0.00  0.00    +0.000 S 
BRANCH  19  20
ATOM     20  C   UNL     1       4.442   3.326  18.605  0.00  0.00    +0.000 A 
ATOM     21  N   UNL     1       4.319   3.379  17.276  0.00  0.00    +0.000 NA
ATOM     22  C   UNL     1       5.145   4.229  16.664  0.00  0.00    +0.000 A 
ATOM     23  C   UNL     1       6.042   5.061  17.289  0.00  0.00    +0.000 A 
ATOM     24  C   UNL     1       6.077   4.935  18.667  0.00  0.00    +0.000 A 
ATOM     25  N   UNL     1       5.278   4.074  19.339  0.00  0.00    +0.000 NA
ATOM     26  C   UNL     1       6.986   5.800  19.503  0.00  0.00    +0.000 C 
ATOM     27  C   UNL     1       8.125   6.429  18.701  0.00  0.00    +0.000 C 
ATOM     28  C   UNL     1       7.594   7.040  17.409  0.00  0.00    +0.000 C 
ATOM     29  C   UNL     1       6.963   5.963  16.527  0.00  0.00    +0.000 C 
BRANCH  22  30
ATOM     30  O   UNL     1       5.054   4.185  15.311  0.00  0.00    +0.000 OA
ATOM     31  H   UNL     1       5.862   4.670  15.058  0.00  0.00    +0.000 HD
ENDBRANCH  22  30
ENDBRANCH  19  20
ENDBRANCH  18  19
ENDBRANCH   1  18
TORSDOF 7
ENDMDL
MODEL 4
REMARK VINA RESULT:      -8.2      1.349      2.146
REMARK  Name = 
REMARK  8 active torsions:
REMARK  status: ('A' for Active; 'I' for Inactive)
REMARK    1  A    between atoms: C_1  and  C_2
REMARK    2  A    between atoms: C_2  and  S_3
REMARK    3  A    between atoms: C_2  and  C_15
REMARK    4  A    between atoms: S_3  and  C_4
REMARK    5  A    between atoms: C_6  and  O_7
REMARK    6  A    between atoms: N_17  and  C_18
REMARK    7  A    between atoms: C_21  and  S_22
REMARK    8  A    between atoms: S_22  and  N_23
REMARK                            x       y       z     vdW  Elec       q    Type
REMARK                         _______ _______ _______ _____ _____    ______ ____
ROOT
ATOM      1  C   UNL     1       1.815   4.593  20.365  0.00  0.00    +0.000 C 
ATOM      2  O   UNL     1       0.614   4.549  20.108  0.00  0.00    +0.000 OA
ATOM      3  N   UNL     1       2.598   5.744  20.284  0.00  0.00    +0.000 N 
ATOM      4  H   UNL     1       3.602   5.610  20.249  0.00  0.00    +0.000 HD
ENDROOT
BRANCH   3   5
ATOM      5  C   UNL     1       2.095   7.035  19.997  0.00  0.00    +0.000 A 
ATOM      6  C   UNL     1       2.233   7.621  18.733  0.00  0.00    +0.000 A 
ATOM      7  C   UNL     1       1.758   8.905  18.476  0.00  0.00    +0.000 A 
ATOM      8  C   UNL     1       1.108   9.607  19.484  0.00  0.00    +0.000 A 
ATOM      9  C   UNL     1       0.941   9.039  20.751  0.00  0.00    +0.000 A 
ATOM     10  C   UNL     1       1.425   7.745  21.001  0.00  0.00    +0.000 A 
BRANCH   8  11
ATOM     11  S   UNL     1       0.518  11.232  19.127  0.00  0.00    +0.000 S 
ATOM     12  O   UNL     1       1.636  12.090  18.812  0.00  0.00    +0.000 OA
ATOM     13  O   UNL     1      -0.653  11.140  18.284  0.00  0.00    +0.000 OA
BRANCH  11  14
ATOM     14  N   UNL     1      -0.035  11.718  20.634  0.00  0.00    +0.000 NA
ATOM     15  H   UNL     1      -0.238  12.717  20.625  0.00  0.00    +0.000 HD
ATOM     16  H   UNL     1      -0.819  11.135  20.926  0.00  0.00    +0.000 HD
ENDBRANCH  11  14
ENDBRANCH   8  11
ENDBRANCH   3   5
BRANCH   1  18
ATOM     17  C   UNL     1       1.715   2.648  21.942  0.00  0.00    +0.000 C 
ATOM     18  C   UNL     1       2.547   3.346  20.861  0.00  0.00    +0.000 C 
BRANCH  18  19
ATOM     19  S   UNL     1       2.986   2.203  19.501  0.00  0.00    +0.000 S 
BRANCH  19  20
ATOM     20  C   UNL     1       4.247   3.161  18.706  0.00  0.00    +0.000 A 
ATOM     21  N   UNL     1       5.112   3.795  19.502  0.00  0.00    +0.000 NA
ATOM     22  C   UNL     1       6.005   4.559  18.875  0.00  0.00    +0.000 A 
ATOM     23  C   UNL     1       6.127   4.692  17.513  0.00  0.00    +0.000 A 
ATOM     24  C   UNL     1       5.192   3.982  16.781  0.00  0.00    +0.000 A 
ATOM     25  N   UNL     1       4.247   3.207  17.365  0.00  0.00    +0.000 NA
ATOM     26  C   UNL     1       5.209   3.996  15.273  0.00  0.00    +0.000 C 
ATOM     27  C   UNL     1       5.994   5.172  14.692  0.00  0.00    +0.000 C 
ATOM     28  C   UNL     1       7.339   5.316  15.395  0.00  0.00    +0.000 C 
ATOM     29  C   UNL     1       7.137   5.602  16.883  0.00  0.00    +0.000 C 
BRANCH  22  30
ATOM     30  O   UNL     1       6.804   5.258  19.721  0.00  0.00    +0.000 OA
ATOM     31  H   UNL     1       7.245   5.864  19.098  0.00  0.00    +0.000 HD
ENDBRANCH  22  30
ENDBRANCH  19  20
ENDBRANCH  18  19
ENDBRANCH   1  18
TORSDOF 7
ENDMDL
MODEL 5
REMARK VINA RESULT:      -7.9      1.066      1.160
REMARK  Name = 
REMARK  8 active torsions:
REMARK  status: ('A' for Active; 'I' for Inactive)
REMARK    1  A    between atoms: C_1  and  C_2
REMARK    2  A    between atoms: C_2  and  S_3
REMARK    3  A    between atoms: C_2  and  C_15
REMARK    4  A    between atoms: S_3  and  C_4
REMARK    5  A    between atoms: C_6  and  O_7
REMARK    6  A    between atoms: N_17  and  C_18
REMARK    7  A    between atoms: C_21  and  S_22
REMARK    8  A    between atoms: S_22  and  N_23
REMARK                            x       y       z     vdW  Elec       q    Type
REMARK                         _______ _______ _______ _____ _____    ______ ____
ROOT
ATOM      1  C   UNL     1       2.046   4.199  18.955  0.00  0.00    +0.000 C 
ATOM      2  O   UNL     1       1.147   4.311  18.125  0.00  0.00    +0.000 OA
ATOM      3  N   UNL     1       2.684   5.272  19.578  0.00  0.00    +0.000 N 
ATOM      4  H   UNL     1       3.573   5.076  20.023  0.00  0.00    +0.000 HD
ENDROOT
BRANCH   3   5
ATOM      5  C   UNL     1       2.312   6.627  19.414  0.00  0.00    +0.000 A 
ATOM      6  C   UNL     1       2.571   7.330  18.232  0.00  0.00    +0.000 A 
ATOM      7  C   UNL     1       2.225   8.672  18.098  0.00  0.00    +0.000 A 
ATOM      8  C   UNL     1       1.584   9.320  19.148  0.00  0.00    +0.000 A 
ATOM      9  C   UNL     1       1.298   8.637  20.335  0.00  0.00    +0.000 A 
ATOM     10  C   UNL     1       1.653   7.285  20.460  0.00  0.00    +0.000 A 
BRANCH   8  11
ATOM     11  S   UNL     1       1.159  11.022  18.948  0.00  0.00    +0.000 S 
ATOM     12  O   UNL     1       0.705  11.554  20.211  0.00  0.00    +0.000 OA
ATOM     13  O   UNL     1       2.171  11.675  18.149  0.00  0.00    +0.000 OA
BRANCH  11  14
ATOM     14  N   UNL     1      -0.199  10.908  17.972  0.00  0.00    +0.000 NA
ATOM     15  H   UNL     1      -0.763  10.106  18.251  0.00  0.00    +0.000 HD
ATOM     16  H   UNL     1      -0.705  11.794  17.967  0.00  0.00    +0.000 HD
ENDBRANCH  11  14
ENDBRANCH   8  11
ENDBRANCH   3   5
BRANCH   1  18
ATOM     17  C   UNL     1       1.287   1.935  19.717  0.00  0.00    +0.000 C 
ATOM     18  C   UNL     1       2.505   2.816  19.418  0.00  0.00    +0.000 C 
BRANCH  18  19
ATOM     19  S   UNL     1       3.641   2.019  18.225  0.00  0.00    +0.000 S 
BRANCH  19  20
ATOM     20  C   UNL     1       4.648   3.415  17.799  0.00  0.00    +0.000 A 
ATOM     21  N   UNL     1       4.589   3.833  16.532  0.00  0.00    +0.000 NA
ATOM     22  C   UNL     1       5.408   4.841  16.230  0.00  0.00    +0.000 A 
ATOM     23  C   UNL     1       6.237   5.489  17.112  0.00  0.00    +0.000 A 
ATOM     24  C   UNL     1       6.210   4.986  18.401  0.00  0.00    +0.000 A 
ATOM     25  N   UNL     1       5.415   3.950  18.760  0.00  0.00    +0.000 NA
ATOM     26  C   UNL     1       7.039   5.607  19.496  0.00  0.00    +0.000 C 
ATOM     27  C   UNL     1       8.189   6.465  18.968  0.00  0.00    +0.000 C 
ATOM     28  C   UNL     1       7.697   7.397  17.867  0.00  0.00    +0.000 C 
ATOM     29  C   UNL     1       7.156   6.592  16.685  0.00  0.00    +0.000 C 
BRANCH  22  30
ATOM     30  O   UNL     1       5.386   5.174  14.914  0.00  0.00    +0.000 OA
ATOM     31  H   UNL     1       5.065   4.341  14.520  0.00  0.00    +0.000 HD
ENDBRANCH  22  30
ENDBRANCH  19  20
ENDBRANCH  18  19
ENDBRANCH   1  18
TORSDOF 7
ENDMDL
MODEL 6
REMARK VINA RESULT:      -7.7      2.174      4.461
REMARK  Name = 
REMARK  8 active torsions:
REMARK  status: ('A' for Active; 'I' for Inactive)
REMARK    1  A    between atoms: C_1  and  C_2
REMARK    2  A    between atoms: C_2  and  S_3
REMARK    3  A    between atoms: C_2  and  C_15
REMARK    4  A    between atoms: S_3  and  C_4
REMARK    5  A    between atoms: C_6  and  O_7
REMARK    6  A    between atoms: N_17  and  C_18
REMARK    7  A    between atoms: C_21  and  S_22
REMARK    8  A    between atoms: S_22  and  N_23
REMARK                            x       y       z     vdW  Elec       q    Type
REMARK                         _______ _______ _______ _____ _____    ______ ____
ROOT
ATOM      1  C   UNL     1       5.007   6.252  17.642  0.00  0.00    +0.000 C 
ATOM      2  O   UNL     1       5.470   6.272  18.781  0.00  0.00    +0.000 OA
ATOM      3  N   UNL     1       3.770   6.787  17.284  0.00  0.00    +0.000 N 
ATOM      4  H   UNL     1       3.379   6.477  16.402  0.00  0.00    +0.000 HD
ENDROOT
BRANCH   3   5
ATOM      5  C   UNL     1       2.930   7.514  18.159  0.00  0.00    +0.000 A 
ATOM      6  C   UNL     1       2.576   7.028  19.424  0.00  0.00    +0.000 A 
ATOM      7  C   UNL     1       1.724   7.742  20.261  0.00  0.00    +0.000 A 
ATOM      8  C   UNL     1       1.236   8.976  19.847  0.00  0.00    +0.000 A 
ATOM      9  C   UNL     1       1.585   9.494  18.595  0.00  0.00    +0.000 A 
ATOM     10  C   UNL     1       2.445   8.765  17.758  0.00  0.00    +0.000 A 
BRANCH   8  11
ATOM     11  S   UNL     1       0.156   9.857  20.930  0.00  0.00    +0.000 S 
ATOM     12  O   UNL     1       0.939  10.652  21.846  0.00  0.00    +0.000 OA
ATOM     13  O   UNL     1      -0.941  10.407  20.166  0.00  0.00    +0.000 OA
BRANCH  11  14
ATOM     14  N   UNL     1      -0.494   8.604  21.835  0.00  0.00    +0.000 NA
ATOM     15  H   UNL     1      -0.570   7.763  21.262  0.00  0.00    +0.000 HD
ATOM     16  H   UNL     1       0.040   8.476  22.695  0.00  0.00    +0.000 HD
ENDBRANCH  11  14
ENDBRANCH   8  11
ENDBRANCH   3   5
BRANCH   1  18
ATOM     17  C   UNL     1       7.305   5.977  16.679  0.00  0.00    +0.000 C 
ATOM     18  C   UNL     1       5.818   5.663  16.488  0.00  0.00    +0.000 C 
BRANCH  18  19
ATOM     19  S   UNL     1       5.527   3.869  16.272  0.00  0.00    +0.000 S 
BRANCH  19  20
ATOM     20  C   UNL     1       4.138   3.663  17.354  0.00  0.00    +0.000 A 
ATOM     21  N   UNL     1       2.934   3.942  16.846  0.00  0.00    +0.000 NA
ATOM     22  C   UNL     1       1.920   3.840  17.705  0.00  0.00    +0.000 A 
ATOM     23  C   UNL     1       2.017   3.432  19.013  0.00  0.00    +0.000 A 
ATOM     24  C   UNL     1       3.306   3.155  19.433  0.00  0.00    +0.000 A 
ATOM     25  N   UNL     1       4.377   3.261  18.612  0.00  0.00    +0.000 NA
ATOM     26  C   UNL     1       3.580   2.665  20.832  0.00  0.00    +0.000 C 
ATOM     27  C   UNL     1       2.438   2.956  21.806  0.00  0.00    +0.000 C 
ATOM     28  C   UNL     1       1.099   2.564  21.191  0.00  0.00    +0.000 C 
ATOM     29  C   UNL     1       0.831   3.380  19.927  0.00  0.00    +0.000 C 
BRANCH  22  30
ATOM     30  O   UNL     1       0.729   4.221  17.176  0.00  0.00    +0.000 OA
ATOM     31  H   UNL     1       0.970   4.320  16.236  0.00  0.00    +0.000 HD
ENDBRANCH  22  30
ENDBRANCH  19  20
ENDBRANCH  18  19
ENDBRANCH   1  18
TORSDOF 7
ENDMDL
MODEL 7
REMARK VINA RESULT:      -7.6      2.127      4.344
REMARK  Name = 
REMARK  8 active torsions:
REMARK  status: ('A' for Active; 'I' for Inactive)
REMARK    1  A    between atoms: C_1  and  C_2
REMARK    2  A    between atoms: C_2  and  S_3
REMARK    3  A    between atoms: C_2  and  C_15
REMARK    4  A    between atoms: S_3  and  C_4
REMARK    5  A    between atoms: C_6  and  O_7
REMARK    6  A    between atoms: N_17  and  C_18
REMARK    7  A    between atoms: C_21  and  S_22
REMARK    8  A    between atoms: S_22  and  N_23
REMARK                            x       y       z     vdW  Elec       q    Type
REMARK                         _______ _______ _______ _____ _____    ______ ____
ROOT
ATOM      1  C   UNL     1       5.025   6.238  17.517  0.00  0.00    +0.000 C 
ATOM      2  O   UNL     1       5.561   6.355  18.617  0.00  0.00    +0.000 OA
ATOM      3  N   UNL     1       3.743   6.693  17.211  0.00  0.00    +0.000 N 
ATOM      4  H   UNL     1       3.310   6.307  16.380  0.00  0.00    +0.000 HD
ENDROOT
BRANCH   3   5
ATOM      5  C   UNL     1       2.928   7.439  18.094  0.00  0.00    +0.000 A 
ATOM      6  C   UNL     1       2.430   8.703  17.756  0.00  0.00    +0.000 A 
ATOM      7  C   UNL     1       1.653   9.436  18.649  0.00  0.00    +0.000 A 
ATOM      8  C   UNL     1       1.340   8.893  19.889  0.00  0.00    +0.000 A 
ATOM      9  C   UNL     1       1.811   7.625  20.247  0.00  0.00    +0.000 A 
ATOM     10  C   UNL     1       2.595   6.894  19.341  0.00  0.00    +0.000 A 
BRANCH   8  11
ATOM     11  S   UNL     1       0.355   9.848  20.999  0.00  0.00    +0.000 S 
ATOM     12  O   UNL     1      -0.385   8.963  21.867  0.00  0.00    +0.000 OA
ATOM     13  O   UNL     1       1.139  10.954  21.501  0.00  0.00    +0.000 OA
BRANCH  11  14
ATOM     14  N   UNL     1      -0.767  10.518  19.947  0.00  0.00    +0.000 NA
ATOM     15  H   UNL     1      -0.314  10.772  19.070  0.00  0.00    +0.000 HD
ATOM     16  H   UNL     1      -1.565   9.893  19.839  0.00  0.00    +0.000 HD
ENDBRANCH  11  14
ENDBRANCH   8  11
ENDBRANCH   3   5
BRANCH   1  18
ATOM     17  C   UNL     1       7.259   6.023  16.401  0.00  0.00    +0.000 C 
ATOM     18  C   UNL     1       5.785   5.609  16.349  0.00  0.00    +0.000 C 
BRANCH  18  19
ATOM     19  S   UNL     1       5.595   3.790  16.288  0.00  0.00    +0.000 S 
BRANCH  19  20
ATOM     20  C   UNL     1       4.197   3.603  17.364  0.00  0.00    +0.000 A 
ATOM     21  N   UNL     1       2.999   3.887  16.846  0.00  0.00    +0.000 NA
ATOM     22  C   UNL     1       1.978   3.800  17.699  0.00  0.00    +0.000 A 
ATOM     23  C   UNL     1       2.064   3.403  19.011  0.00  0.00    +0.000 A 
ATOM     24  C   UNL     1       3.349   3.120  19.441  0.00  0.00    +0.000 A 
ATOM     25  N   UNL     1       4.426   3.211  18.626  0.00  0.00    +0.000 NA
ATOM     26  C   UNL     1       3.610   2.641  20.847  0.00  0.00    +0.000 C 
ATOM     27  C   UNL     1       2.465   2.949  21.811  0.00  0.00    +0.000 C 
ATOM     28  C   UNL     1       1.127   2.561  21.191  0.00  0.00    +0.000 C 
ATOM     29  C   UNL     1       0.873   3.368  19.918  0.00  0.00    +0.000 C 
BRANCH  22  30
ATOM     30  O   UNL     1       0.794   4.185  17.159  0.00  0.00    +0.000 OA
ATOM     31  H   UNL     1       1.032   5.061  16.801  0.00  0.00    +0.000 HD
ENDBRANCH  22  30
ENDBRANCH  19  20
ENDBRANCH  18  19
ENDBRANCH   1  18
TORSDOF 7
ENDMDL
MODEL 8
REMARK VINA RESULT:      -7.5      4.577      6.803
REMARK  Name = 
REMARK  8 active torsions:
REMARK  status: ('A' for Active; 'I' for Inactive)
REMARK    1  A    between atoms: C_1  and  C_2
REMARK    2  A    between atoms: C_2  and  S_3
REMARK    3  A    between atoms: C_2  and  C_15
REMARK    4  A    between atoms: S_3  and  C_4
REMARK    5  A    between atoms: C_6  and  O_7
REMARK    6  A    between atoms: N_17  and  C_18
REMARK    7  A    between atoms: C_21  and  S_22
REMARK    8  A    between atoms: S_22  and  N_23
REMARK                            x       y       z     vdW  Elec       q    Type
REMARK                         _______ _______ _______ _____ _____    ______ ____
ROOT
ATOM      1  C   UNL     1       7.819   7.531  17.932  0.00  0.00    +0.000 C 
ATOM      2  O   UNL     1       7.119   8.080  17.084  0.00  0.00    +0.000 OA
ATOM      3  N   UNL     1       8.713   8.198  18.769  0.00  0.00    +0.000 N 
ATOM      4  H   UNL     1       9.420   7.632  19.223  0.00  0.00    +0.000 HD
ENDROOT
BRANCH   3   5
ATOM      5  C   UNL     1       8.859   9.604  18.825  0.00  0.00    +0.000 A 
ATOM      6  C   UNL     1       8.545  10.427  17.736  0.00  0.00    +0.000 A 
ATOM      7  C   UNL     1       8.722  11.807  17.798  0.00  0.00    +0.000 A 
ATOM      8  C   UNL     1       9.192  12.383  18.972  0.00  0.00    +0.000 A 
ATOM      9  C   UNL     1       9.498  11.587  20.081  0.00  0.00    +0.000 A 
ATOM     10  C   UNL     1       9.318  10.196  20.008  0.00  0.00    +0.000 A 
BRANCH   8  11
ATOM     11  S   UNL     1       9.407  14.135  19.019  0.00  0.00    +0.000 S 
ATOM     12  O   UNL     1       8.130  14.769  19.245  0.00  0.00    +0.000 OA
ATOM     13  O   UNL     1      10.581  14.450  19.801  0.00  0.00    +0.000 OA
BRANCH  11  14
ATOM     14  N   UNL     1       9.815  14.457  17.425  0.00  0.00    +0.000 NA
ATOM     15  H   UNL     1      10.031  13.587  16.937  0.00  0.00    +0.000 HD
ATOM     16  H   UNL     1       9.087  15.015  16.980  0.00  0.00    +0.000 HD
ENDBRANCH  11  14
ENDBRANCH   8  11
ENDBRANCH   3   5
BRANCH   1  18
ATOM     17  C   UNL     1       7.311   5.753  19.624  0.00  0.00    +0.000 C 
ATOM     18  C   UNL     1       7.710   6.025  18.170  0.00  0.00    +0.000 C 
BRANCH  18  19
ATOM     19  S   UNL     1       6.570   5.211  16.992  0.00  0.00    +0.000 S 
BRANCH  19  20
ATOM     20  C   UNL     1       5.115   5.125  18.001  0.00  0.00    +0.000 A 
ATOM     21  N   UNL     1       4.358   6.223  18.058  0.00  0.00    +0.000 NA
ATOM     22  C   UNL     1       3.309   6.147  18.876  0.00  0.00    +0.000 A 
ATOM     23  C   UNL     1       2.937   5.039  19.598  0.00  0.00    +0.000 A 
ATOM     24  C   UNL     1       3.782   3.952  19.456  0.00  0.00    +0.000 A 
ATOM     25  N   UNL     1       4.873   3.979  18.656  0.00  0.00    +0.000 NA
ATOM     26  C   UNL     1       3.496   2.648  20.157  0.00  0.00    +0.000 C 
ATOM     27  C   UNL     1       2.529   2.795  21.332  0.00  0.00    +0.000 C 
ATOM     28  C   UNL     1       1.323   3.636  20.928  0.00  0.00    +0.000 C 
ATOM     29  C   UNL     1       1.762   5.044  20.527  0.00  0.00    +0.000 C 
BRANCH  22  30
ATOM     30  O   UNL     1       2.620   7.312  18.976  0.00  0.00    +0.000 OA
ATOM     31  H   UNL     1       2.503   7.537  18.034  0.00  0.00    +0.000 HD
ENDBRANCH  22  30
ENDBRANCH  19  20
ENDBRANCH  18  19
ENDBRANCH   1  18
TORSDOF 7
ENDMDL
MODEL 9
REMARK VINA RESULT:      -7.5      3.876      9.126
REMARK  Name = 
REMARK  8 active torsions:
REMARK  status: ('A' for Active; 'I' for Inactive)
REMARK    1  A    between atoms: C_1  and  C_2
REMARK    2  A    between atoms: C_2  and  S_3
REMARK    3  A    between atoms: C_2  and  C_15
REMARK    4  A    between atoms: S_3  and  C_4
REMARK    5  A    between atoms: C_6  and  O_7
REMARK    6  A    between atoms: N_17  and  C_18
REMARK    7  A    between atoms: C_21  and  S_22
REMARK    8  A    between atoms: S_22  and  N_23
REMARK                            x       y       z     vdW  Elec       q    Type
REMARK                         _______ _______ _______ _____ _____    ______ ____
ROOT
ATOM      1  C   UNL     1       1.860   8.571  18.438  0.00  0.00    +0.000 C 
ATOM      2  O   UNL     1       2.138   9.205  17.422  0.00  0.00    +0.000 OA
ATOM      3  N   UNL     1       2.423   7.342  18.780  0.00  0.00    +0.000 N 
ATOM      4  H   UNL     1       1.931   6.794  19.476  0.00  0.00    +0.000 HD
ENDROOT
BRANCH   3   5
ATOM      5  C   UNL     1       3.463   6.711  18.058  0.00  0.00    +0.000 A 
ATOM      6  C   UNL     1       4.645   7.381  17.720  0.00  0.00    +0.000 A 
ATOM      7  C   UNL     1       5.646   6.753  16.983  0.00  0.00    +0.000 A 
ATOM      8  C   UNL     1       5.483   5.427  16.601  0.00  0.00    +0.000 A 
ATOM      9  C   UNL     1       4.320   4.728  16.939  0.00  0.00    +0.000 A 
ATOM     10  C   UNL     1       3.315   5.370  17.681  0.00  0.00    +0.000 A 
BRANCH   8  11
ATOM     11  S   UNL     1       6.770   4.660  15.667  0.00  0.00    +0.000 S 
ATOM     12  O   UNL     1       6.267   3.451  15.059  0.00  0.00    +0.000 OA
ATOM     13  O   UNL     1       7.481   5.670  14.916  0.00  0.00    +0.000 OA
BRANCH  11  14
ATOM     14  N   UNL     1       7.813   4.173  16.886  0.00  0.00    +0.000 NA
ATOM     15  H   UNL     1       8.752   4.043  16.510  0.00  0.00    +0.000 HD
ATOM     16  H   UNL     1       7.764   4.820  17.672  0.00  0.00    +0.000 HD
ENDBRANCH  11  14
ENDBRANCH   8  11
ENDBRANCH   3   5
BRANCH   1  18
ATOM     17  C   UNL     1       1.308   8.747  20.877  0.00  0.00    +0.000 C 
ATOM     18  C   UNL     1       0.876   9.141  19.461  0.00  0.00    +0.000 C 
BRANCH  18  19
ATOM     19  S   UNL     1       0.664  10.951  19.296  0.00  0.00    +0.000 S 
BRANCH  19  20
ATOM     20  C   UNL     1      -0.991  10.997  18.662  0.00  0.00    +0.000 A 
ATOM     21  N   UNL     1      -1.202  10.391  17.490  0.00  0.00    +0.000 NA
ATOM     22  C   UNL     1      -2.440  10.502  17.010  0.00  0.00    +0.000 A 
ATOM     23  C   UNL     1      -3.489  11.128  17.639  0.00  0.00    +0.000 A 
ATOM     24  C   UNL     1      -3.164  11.711  18.852  0.00  0.00    +0.000 A 
ATOM     25  N   UNL     1      -1.919  11.649  19.378  0.00  0.00    +0.000 NA
ATOM     26  C   UNL     1      -4.210  12.410  19.684  0.00  0.00    +0.000 C 
ATOM     27  C   UNL     1      -5.451  12.805  18.883  0.00  0.00    +0.000 C 
ATOM     28  C   UNL     1      -5.925  11.638  18.023  0.00  0.00    +0.000 C 
ATOM     29  C   UNL     1      -4.845  11.243  17.016  0.00  0.00    +0.000 C 
BRANCH  22  30
ATOM     30  O   UNL     1      -2.589   9.953  15.778  0.00  0.00    +0.000 OA
ATOM     31  H   UNL     1      -3.111   9.158  15.994  0.00  0.00    +0.000 HD
ENDBRANCH  22  30
ENDBRANCH  19  20
ENDBRANCH  18  19
ENDBRANCH   1  18
TORSDOF 7
ENDMDL
