MODEL 1
REMARK VINA RESULT:      -8.2      0.000      0.000
REMARK  Name = 
REMARK  2 active torsions:
REMARK  status: ('A' for Active; 'I' for Inactive)
REMARK    1  A    between atoms: C_1  and  N_2
REMARK    2  A    between atoms: C_9  and  C_10
REMARK                            x       y       z     vdW  Elec       q    Type
REMARK                         _______ _______ _______ _____ _____    ______ ____
ROOT
ATOM      1  C   UNL     1       5.589   3.717  13.634  0.00  0.00    +0.000 C 
ATOM      2  N   UNL     1       6.002   4.409  14.838  0.00  0.00    +0.000 N 
ATOM      3  C   UNL     1       7.230   5.001  14.992  0.00  0.00    +0.000 C 
ATOM      4  N   UNL     1       8.052   5.487  14.143  0.00  0.00    +0.000 NA
ATOM      5  N   UNL     1       7.542   5.070  16.302  0.00  0.00    +0.000 N 
ATOM      6  C   UNL     1       6.537   4.567  17.084  0.00  0.00    +0.000 C 
ATOM      7  O   UNL     1       6.564   4.420  18.290  0.00  0.00    +0.000 OA
ATOM      8  C   UNL     1       5.449   4.181  16.101  0.00  0.00    +0.000 C 
ATOM      9  C   UNL     1       4.214   3.778  16.430  0.00  0.00    +0.000 C 
ATOM     10  H   UNL     1       7.656   5.438  13.203  0.00  0.00    +0.000 HD
ATOM     11  H   UNL     1       8.413   5.426  16.654  0.00  0.00    +0.000 HD
ENDROOT
BRANCH   9  12
ATOM     12  C   UNL     1       3.662   3.738  17.739  0.00  0.00    +0.000 A 
ATOM     13  C   UNL     1       3.558   2.616  18.526  0.00  0.00    +0.000 A 
ATOM     14  N   UNL     1       2.994   2.997  19.716  0.00  0.00    +0.000 N 
ATOM     15  C   UNL     1       2.698   4.342  19.699  0.00  0.00    +0.000 A 
ATOM     16  C   UNL     1       2.112   5.153  20.679  0.00  0.00    +0.000 A 
ATOM     17  C   UNL     1       1.947   6.505  20.375  0.00  0.00    +0.000 A 
ATOM     18  F   UNL     1       1.388   7.314  21.286  0.00  0.00    +0.000 F 
ATOM     19  C   UNL     1       2.341   7.033  19.151  0.00  0.00    +0.000 A 
ATOM     20  C   UNL     1       2.926   6.211  18.181  0.00  0.00    +0.000 A 
ATOM     21  C   UNL     1       3.108   4.838  18.458  0.00  0.00    +0.000 A 
ATOM     22  H   UNL     1       2.826   2.383  20.502  0.00  0.00    +0.000 HD
ENDBRANCH   9  12
TORSDOF 1
ENDMDL
MODEL 2
REMARK VINA RESULT:      -7.7      2.986      6.230
REMARK  Name = 
REMARK  2 active torsions:
REMARK  status: ('A' for Active; 'I' for Inactive)
REMARK    1  A    between atoms: C_1  and  N_2
REMARK    2  A    between atoms: C_9  and  C_10
REMARK                            x       y       z     vdW  Elec       q    Type
REMARK                         _______ _______ _______ _____ _____    ______ ____
ROOT
ATOM      1  C   UNL     1       1.640   5.810  20.834  0.00  0.00    +0.000 C 
ATOM      2  N   UNL     1       2.233   4.630  20.240  0.00  0.00    +0.000 N 
ATOM      3  C   UNL     1       1.833   3.350  20.530  0.00  0.00    +0.000 C 
ATOM      4  N   UNL     1       0.716   2.879  20.934  0.00  0.00    +0.000 NA
ATOM      5  N   UNL     1       2.847   2.492  20.295  0.00  0.00    +0.000 N 
ATOM      6  C   UNL     1       3.950   3.140  19.808  0.00  0.00    +0.000 C 
ATOM      7  O   UNL     1       5.038   2.647  19.584  0.00  0.00    +0.000 OA
ATOM      8  C   UNL     1       3.520   4.589  19.696  0.00  0.00    +0.000 C 
ATOM      9  C   UNL     1       4.234   5.568  19.125  0.00  0.00    +0.000 C 
ATOM     10  H   UNL     1       0.021   3.624  20.994  0.00  0.00    +0.000 HD
ATOM     11  H   UNL     1       2.800   1.505  20.477  0.00  0.00    +0.000 HD
ENDROOT
BRANCH   9  12
ATOM     12  C   UNL     1       5.466   5.418  18.433  0.00  0.00    +0.000 A 
ATOM     13  C   UNL     1       6.715   5.568  18.986  0.00  0.00    +0.000 A 
ATOM     14  N   UNL     1       7.636   5.320  18.001  0.00  0.00    +0.000 N 
ATOM     15  C   UNL     1       7.002   5.048  16.808  0.00  0.00    +0.000 A 
ATOM     16  C   UNL     1       7.535   4.749  15.548  0.00  0.00    +0.000 A 
ATOM     17  C   UNL     1       6.629   4.503  14.514  0.00  0.00    +0.000 A 
ATOM     18  F   UNL     1       7.099   4.216  13.292  0.00  0.00    +0.000 F 
ATOM     19  C   UNL     1       5.255   4.552  14.717  0.00  0.00    +0.000 A 
ATOM     20  C   UNL     1       4.738   4.851  15.983  0.00  0.00    +0.000 A 
ATOM     21  C   UNL     1       5.627   5.104  17.051  0.00  0.00    +0.000 A 
ATOM     22  H   UNL     1       8.639   5.326  18.129  0.00  0.00    +0.000 HD
ENDBRANCH   9  12
TORSDOF 1
ENDMDL
MODEL 3
REMARK VINA RESULT:      -7.6      1.687      2.385
REMARK  Name = 
REMARK  2 active torsions:
REMARK  status: ('A' for Active; 'I' for Inactive)
REMARK    1  A    between atoms: C_1  and  N_2
REMARK    2  A    between atoms: C_9  and  C_10
REMARK                            x       y       z     vdW  Elec       q    Type
REMARK                         _______ _______ _______ _____ _____    ______ ____
ROOT
ATOM      1  C   UNL     1       5.211   4.023  14.016  0.00  0.00    +0.000 C 
ATOM      2  N   UNL     1       5.804   4.792  15.091  0.00  0.00    +0.000 N 
ATOM      3  C   UNL     1       7.135   5.120  15.146  0.00  0.00    +0.000 C 
ATOM      4  N   UNL     1       8.013   5.273  14.230  0.00  0.00    +0.000 NA
ATOM      5  N   UNL     1       7.500   5.328  16.428  0.00  0.00    +0.000 N 
ATOM      6  C   UNL     1       6.438   5.188  17.280  0.00  0.00    +0.000 C 
ATOM      7  O   UNL     1       6.475   5.233  18.495  0.00  0.00    +0.000 OA
ATOM      8  C   UNL     1       5.260   4.895  16.374  0.00  0.00    +0.000 C 
ATOM      9  C   UNL     1       3.979   4.829  16.763  0.00  0.00    +0.000 C 
ATOM     10  H   UNL     1       7.583   5.162  13.310  0.00  0.00    +0.000 HD
ATOM     11  H   UNL     1       8.439   5.538  16.718  0.00  0.00    +0.000 HD
ENDROOT
BRANCH   9  12
ATOM     12  C   UNL     1       3.477   5.120  18.061  0.00  0.00    +0.000 A 
ATOM     13  C   UNL     1       3.493   6.355  18.663  0.00  0.00    +0.000 A 
ATOM     14  N   UNL     1       2.900   6.223  19.892  0.00  0.00    +0.000 N 
ATOM     15  C   UNL     1       2.533   4.912  20.111  0.00  0.00    +0.000 A 
ATOM     16  C   UNL     1       1.912   4.319  21.217  0.00  0.00    +0.000 A 
ATOM     17  C   UNL     1       1.651   2.949  21.142  0.00  0.00    +0.000 A 
ATOM     18  F   UNL     1       1.060   2.343  22.182  0.00  0.00    +0.000 F 
ATOM     19  C   UNL     1       1.991   2.198  20.024  0.00  0.00    +0.000 A 
ATOM     20  C   UNL     1       2.610   2.806  18.926  0.00  0.00    +0.000 A 
ATOM     21  C   UNL     1       2.888   4.190  18.968  0.00  0.00    +0.000 A 
ATOM     22  H   UNL     1       2.744   6.978  20.546  0.00  0.00    +0.000 HD
ENDBRANCH   9  12
TORSDOF 1
ENDMDL
MODEL 4
REMARK VINA RESULT:      -7.4      1.355      1.691
REMARK  Name = 
REMARK  2 active torsions:
REMARK  status: ('A' for Active; 'I' for Inactive)
REMARK    1  A    between atoms: C_1  and  N_2
REMARK    2  A    between atoms: C_9  and  C_10
REMARK                            x       y       z     vdW  Elec       q    Type
REMARK                         _______ _______ _______ _____ _____    ______ ____
ROOT
ATOM      1  C   UNL     1       5.495   3.675  14.259  0.00  0.00    +0.000 C 
ATOM      2  N   UNL     1       5.917   4.777  15.100  0.00  0.00    +0.000 N 
ATOM      3  C   UNL     1       7.140   5.389  14.993  0.00  0.00    +0.000 C 
ATOM      4  N   UNL     1       7.944   5.519  14.008  0.00  0.00    +0.000 NA
ATOM      5  N   UNL     1       7.471   5.954  16.173  0.00  0.00    +0.000 N 
ATOM      6  C   UNL     1       6.484   5.782  17.105  0.00  0.00    +0.000 C 
ATOM      7  O   UNL     1       6.531   6.105  18.276  0.00  0.00    +0.000 OA
ATOM      8  C   UNL     1       5.386   5.044  16.365  0.00  0.00    +0.000 C 
ATOM      9  C   UNL     1       4.162   4.791  16.845  0.00  0.00    +0.000 C 
ATOM     10  H   UNL     1       7.534   5.113  13.165  0.00  0.00    +0.000 HD
ATOM     11  H   UNL     1       8.343   6.422  16.346  0.00  0.00    +0.000 HD
ENDROOT
BRANCH   9  12
ATOM     12  C   UNL     1       3.630   5.249  18.081  0.00  0.00    +0.000 A 
ATOM     13  C   UNL     1       3.669   4.561  19.269  0.00  0.00    +0.000 A 
ATOM     14  N   UNL     1       3.074   5.348  20.222  0.00  0.00    +0.000 N 
ATOM     15  C   UNL     1       2.617   6.520  19.660  0.00  0.00    +0.000 A 
ATOM     16  C   UNL     1       1.946   7.602  20.244  0.00  0.00    +0.000 A 
ATOM     17  C   UNL     1       1.617   8.673  19.411  0.00  0.00    +0.000 A 
ATOM     18  F   UNL     1       0.972   9.727  19.931  0.00  0.00    +0.000 F 
ATOM     19  C   UNL     1       1.933   8.673  18.057  0.00  0.00    +0.000 A 
ATOM     20  C   UNL     1       2.605   7.584  17.489  0.00  0.00    +0.000 A 
ATOM     21  C   UNL     1       2.954   6.485  18.304  0.00  0.00    +0.000 A 
ATOM     22  H   UNL     1       2.988   5.110  21.201  0.00  0.00    +0.000 HD
ENDBRANCH   9  12
TORSDOF 1
ENDMDL
MODEL 5
REMARK VINA RESULT:      -7.4      2.249      2.619
REMARK  Name = 
REMARK  2 active torsions:
REMARK  status: ('A' for Active; 'I' for Inactive)
REMARK    1  A    between atoms: C_1  and  N_2
REMARK    2  A    between atoms: C_9  and  C_10
REMARK                            x       y       z     vdW  Elec       q    Type
REMARK                         _______ _______ _______ _____ _____    ______ ____
ROOT
ATOM      1  C   UNL     1       5.364   6.721  15.192  0.00  0.00    +0.000 C 
ATOM      2  N   UNL     1       5.584   6.399  16.588  0.00  0.00    +0.000 N 
ATOM      3  C   UNL     1       6.611   6.919  17.334  0.00  0.00    +0.000 C 
ATOM      4  N   UNL     1       7.270   8.009  17.233  0.00  0.00    +0.000 NA
ATOM      5  N   UNL     1       6.900   6.083  18.354  0.00  0.00    +0.000 N 
ATOM      6  C   UNL     1       6.069   4.996  18.362  0.00  0.00    +0.000 C 
ATOM      7  O   UNL     1       6.142   4.037  19.105  0.00  0.00    +0.000 OA
ATOM      8  C   UNL     1       5.119   5.236  17.206  0.00  0.00    +0.000 C 
ATOM      9  C   UNL     1       4.037   4.496  16.925  0.00  0.00    +0.000 C 
ATOM     10  H   UNL     1       6.896   8.576  16.471  0.00  0.00    +0.000 HD
ATOM     11  H   UNL     1       7.648   6.235  19.008  0.00  0.00    +0.000 HD
ENDROOT
BRANCH   9  12
ATOM     12  C   UNL     1       3.523   3.425  17.706  0.00  0.00    +0.000 A 
ATOM     13  C   UNL     1       3.612   2.092  17.386  0.00  0.00    +0.000 A 
ATOM     14  N   UNL     1       3.018   1.383  18.399  0.00  0.00    +0.000 N 
ATOM     15  C   UNL     1       2.513   2.240  19.353  0.00  0.00    +0.000 A 
ATOM     16  C   UNL     1       1.826   1.968  20.542  0.00  0.00    +0.000 A 
ATOM     17  C   UNL     1       1.444   3.059  21.323  0.00  0.00    +0.000 A 
ATOM     18  F   UNL     1       0.782   2.840  22.468  0.00  0.00    +0.000 F 
ATOM     19  C   UNL     1       1.727   4.366  20.944  0.00  0.00    +0.000 A 
ATOM     20  C   UNL     1       2.416   4.623  19.753  0.00  0.00    +0.000 A 
ATOM     21  C   UNL     1       2.817   3.541  18.939  0.00  0.00    +0.000 A 
ATOM     22  H   UNL     1       2.963   0.375  18.448  0.00  0.00    +0.000 HD
ENDBRANCH   9  12
TORSDOF 1
ENDMDL
MODEL 6
REMARK VINA RESULT:      -7.3      2.799      5.740
REMARK  Name = 
REMARK  2 active torsions:
REMARK  status: ('A' for Active; 'I' for Inactive)
REMARK    1  A    between atoms: C_1  and  N_2
REMARK    2  A    between atoms: C_9  and  C_10
REMARK                            x       y       z     vdW  Elec       q    Type
REMARK                         _______ _______ _______ _____ _____    ______ ____
ROOT
ATOM      1  C   UNL     1       2.274   1.447  18.694  0.00  0.00    +0.000 C 
ATOM      2  N   UNL     1       2.442   2.801  19.183  0.00  0.00    +0.000 N 
ATOM      3  C   UNL     1       1.601   3.390  20.092  0.00  0.00    +0.000 C 
ATOM      4  N   UNL     1       0.854   2.897  21.005  0.00  0.00    +0.000 NA
ATOM      5  N   UNL     1       1.646   4.731  19.952  0.00  0.00    +0.000 N 
ATOM      6  C   UNL     1       2.535   5.104  18.980  0.00  0.00    +0.000 C 
ATOM      7  O   UNL     1       2.730   6.232  18.573  0.00  0.00    +0.000 OA
ATOM      8  C   UNL     1       3.139   3.800  18.498  0.00  0.00    +0.000 C 
ATOM      9  C   UNL     1       4.168   3.690  17.647  0.00  0.00    +0.000 C 
ATOM     10  H   UNL     1       0.976   1.885  21.049  0.00  0.00    +0.000 HD
ATOM     11  H   UNL     1       1.080   5.370  20.483  0.00  0.00    +0.000 HD
ENDROOT
BRANCH   9  12
ATOM     12  C   UNL     1       4.946   4.758  17.124  0.00  0.00    +0.000 A 
ATOM     13  C   UNL     1       4.812   5.300  15.869  0.00  0.00    +0.000 A 
ATOM     14  N   UNL     1       5.726   6.317  15.758  0.00  0.00    +0.000 N 
ATOM     15  C   UNL     1       6.476   6.417  16.910  0.00  0.00    +0.000 A 
ATOM     16  C   UNL     1       7.517   7.293  17.240  0.00  0.00    +0.000 A 
ATOM     17  C   UNL     1       8.085   7.161  18.508  0.00  0.00    +0.000 A 
ATOM     18  F   UNL     1       9.086   7.980  18.861  0.00  0.00    +0.000 F 
ATOM     19  C   UNL     1       7.644   6.201  19.412  0.00  0.00    +0.000 A 
ATOM     20  C   UNL     1       6.602   5.333  19.068  0.00  0.00    +0.000 A 
ATOM     21  C   UNL     1       6.004   5.440  17.793  0.00  0.00    +0.000 A 
ATOM     22  H   UNL     1       5.834   6.916  14.952  0.00  0.00    +0.000 HD
ENDBRANCH   9  12
TORSDOF 1
ENDMDL
MODEL 7
REMARK VINA RESULT:      -7.3      3.068      6.083
REMARK  Name = 
REMARK  2 active torsions:
REMARK  status: ('A' for Active; 'I' for Inactive)
REMARK    1  A    between atoms: C_1  and  N_2
REMARK    2  A    between atoms: C_9  and  C_10
REMARK                            x       y       z     vdW  Elec       q    Type
REMARK                         _______ _______ _______ _____ _____    ______ ____
ROOT
ATOM      1  C   UNL     1       1.269   4.775  20.619  0.00  0.00    +0.000 C 
ATOM      2  N   UNL     1       1.787   3.924  19.567  0.00  0.00    +0.000 N 
ATOM      3  C   UNL     1       1.194   2.748  19.181  0.00  0.00    +0.000 C 
ATOM      4  N   UNL     1      -0.017   2.346  19.240  0.00  0.00    +0.000 NA
ATOM      5  N   UNL     1       2.116   1.935  18.624  0.00  0.00    +0.000 N 
ATOM      6  C   UNL     1       3.347   2.532  18.578  0.00  0.00    +0.000 C 
ATOM      7  O   UNL     1       4.386   2.018  18.210  0.00  0.00    +0.000 OA
ATOM      8  C   UNL     1       3.120   3.917  19.150  0.00  0.00    +0.000 C 
ATOM      9  C   UNL     1       4.022   4.907  19.165  0.00  0.00    +0.000 C 
ATOM     10  H   UNL     1      -0.615   3.087  19.610  0.00  0.00    +0.000 HD
ATOM     11  H   UNL     1       1.922   1.002  18.306  0.00  0.00    +0.000 HD
ENDROOT
BRANCH   9  12
ATOM     12  C   UNL     1       5.309   4.883  18.561  0.00  0.00    +0.000 A 
ATOM     13  C   UNL     1       6.506   4.870  19.237  0.00  0.00    +0.000 A 
ATOM     14  N   UNL     1       7.507   4.826  18.301  0.00  0.00    +0.000 N 
ATOM     15  C   UNL     1       6.978   4.848  17.029  0.00  0.00    +0.000 A 
ATOM     16  C   UNL     1       7.616   4.827  15.783  0.00  0.00    +0.000 A 
ATOM     17  C   UNL     1       6.803   4.845  14.649  0.00  0.00    +0.000 A 
ATOM     18  F   UNL     1       7.376   4.830  13.437  0.00  0.00    +0.000 F 
ATOM     19  C   UNL     1       5.417   4.885  14.742  0.00  0.00    +0.000 A 
ATOM     20  C   UNL     1       4.793   4.904  15.995  0.00  0.00    +0.000 A 
ATOM     21  C   UNL     1       5.587   4.886  17.163  0.00  0.00    +0.000 A 
ATOM     22  H   UNL     1       8.495   4.776  18.510  0.00  0.00    +0.000 HD
ENDBRANCH   9  12
TORSDOF 1
ENDMDL
MODEL 8
REMARK VINA RESULT:      -7.3      2.900      6.235
REMARK  Name = 
REMARK  2 active torsions:
REMARK  status: ('A' for Active; 'I' for Inactive)
REMARK    1  A    between atoms: C_1  and  N_2
REMARK    2  A    between atoms: C_9  and  C_10
REMARK                            x       y       z     vdW  Elec       q    Type
REMARK                         _______ _______ _______ _____ _____    ______ ____
ROOT
ATOM      1  C   UNL     1       1.846   6.021  20.280  0.00  0.00    +0.000 C 
ATOM      2  N   UNL     1       2.647   4.905  19.821  0.00  0.00    +0.000 N 
ATOM      3  C   UNL     1       2.611   3.658  20.392  0.00  0.00    +0.000 C 
ATOM      4  N   UNL     1       1.696   3.045  21.040  0.00  0.00    +0.000 NA
ATOM      5  N   UNL     1       3.776   3.018  20.161  0.00  0.00    +0.000 N 
ATOM      6  C   UNL     1       4.624   3.779  19.403  0.00  0.00    +0.000 C 
ATOM      7  O   UNL     1       5.771   3.505  19.106  0.00  0.00    +0.000 OA
ATOM      8  C   UNL     1       3.838   5.039  19.103  0.00  0.00    +0.000 C 
ATOM      9  C   UNL     1       4.221   6.011  18.264  0.00  0.00    +0.000 C 
ATOM     10  H   UNL     1       0.849   3.613  21.073  0.00  0.00    +0.000 HD
ATOM     11  H   UNL     1       3.996   2.106  20.520  0.00  0.00    +0.000 HD
ENDROOT
BRANCH   9  12
ATOM     12  C   UNL     1       5.371   5.998  17.428  0.00  0.00    +0.000 A 
ATOM     13  C   UNL     1       6.540   6.677  17.671  0.00  0.00    +0.000 A 
ATOM     14  N   UNL     1       7.406   6.388  16.647  0.00  0.00    +0.000 N 
ATOM     15  C   UNL     1       6.802   5.561  15.725  0.00  0.00    +0.000 A 
ATOM     16  C   UNL     1       7.296   5.022  14.531  0.00  0.00    +0.000 A 
ATOM     17  C   UNL     1       6.441   4.194  13.802  0.00  0.00    +0.000 A 
ATOM     18  F   UNL     1       6.876   3.661  12.652  0.00  0.00    +0.000 F 
ATOM     19  C   UNL     1       5.150   3.912  14.235  0.00  0.00    +0.000 A 
ATOM     20  C   UNL     1       4.671   4.456  15.432  0.00  0.00    +0.000 A 
ATOM     21  C   UNL     1       5.511   5.298  16.193  0.00  0.00    +0.000 A 
ATOM     22  H   UNL     1       8.357   6.724  16.578  0.00  0.00    +0.000 HD
ENDBRANCH   9  12
TORSDOF 1
ENDMDL
MODEL 9
REMARK VINA RESULT:      -7.1      3.118      6.453
REMARK  Name = 
REMARK  2 active torsions:
REMARK  status: ('A' for Active; 'I' for Inactive)
REMARK    1  A    between atoms: C_1  and  N_2
REMARK    2  A    between atoms: C_9  and  C_10
REMARK                            x       y       z     vdW  Elec       q    Type
REMARK                         _______ _______ _______ _____ _____    ______ ____
ROOT
ATOM      1  C   UNL     1       1.969   2.315  18.537  0.00  0.00    +0.000 C 
ATOM      2  N   UNL     1       2.559   3.625  18.723  0.00  0.00    +0.000 N 
ATOM      3  C   UNL     1       1.932   4.654  19.380  0.00  0.00    +0.000 C 
ATOM      4  N   UNL     1       1.039   4.661  20.295  0.00  0.00    +0.000 NA
ATOM      5  N   UNL     1       2.420   5.835  18.947  0.00  0.00    +0.000 N 
ATOM      6  C   UNL     1       3.408   5.658  18.017  0.00  0.00    +0.000 C 
ATOM      7  O   UNL     1       3.975   6.531  17.389  0.00  0.00    +0.000 OA
ATOM      8  C   UNL     1       3.564   4.154  17.910  0.00  0.00    +0.000 C 
ATOM      9  C   UNL     1       4.524   3.521  17.222  0.00  0.00    +0.000 C 
ATOM     10  H   UNL     1       0.821   3.706  20.579  0.00  0.00    +0.000 HD
ATOM     11  H   UNL     1       2.080   6.729  19.255  0.00  0.00    +0.000 HD
ENDROOT
BRANCH   9  12
ATOM     12  C   UNL     1       5.624   4.128  16.558  0.00  0.00    +0.000 A 
ATOM     13  C   UNL     1       6.630   4.837  17.168  0.00  0.00    +0.000 A 
ATOM     14  N   UNL     1       7.506   5.236  16.191  0.00  0.00    +0.000 N 
ATOM     15  C   UNL     1       7.063   4.827  14.952  0.00  0.00    +0.000 A 
ATOM     16  C   UNL     1       7.623   5.015  13.683  0.00  0.00    +0.000 A 
ATOM     17  C   UNL     1       6.941   4.465  12.596  0.00  0.00    +0.000 A 
ATOM     18  F   UNL     1       7.444   4.625  11.364  0.00  0.00    +0.000 F 
ATOM     19  C   UNL     1       5.754   3.761  12.757  0.00  0.00    +0.000 A 
ATOM     20  C   UNL     1       5.206   3.581  14.032  0.00  0.00    +0.000 A 
ATOM     21  C   UNL     1       5.872   4.124  15.153  0.00  0.00    +0.000 A 
ATOM     22  H   UNL     1       8.361   5.750  16.352  0.00  0.00    +0.000 HD
ENDBRANCH   9  12
TORSDOF 1
ENDMDL
