MODEL 1
REMARK VINA RESULT:      -7.7      0.000      0.000
REMARK  Name = 
REMARK  13 active torsions:
REMARK  status: ('A' for Active; 'I' for Inactive)
REMARK    1  A    between atoms: C_1  and  C_2
REMARK    2  A    between atoms: C_2  and  C_3
REMARK    3  A    between atoms: C_3  and  C_4
REMARK    4  A    between atoms: C_4  and  C_5
REMARK    5  A    between atoms: C_5  and  C_6
REMARK    6  A    between atoms: C_6  and  N_7
REMARK    7  A    between atoms: C_9  and  C_10
REMARK    8  A    between atoms: C_10  and  O_11
REMARK    9  A    between atoms: O_11  and  C_12
REMARK   10  A    between atoms: C_15  and  C_16
REMARK   11  A    between atoms: C_16  and  C_18
REMARK   12  A    between atoms: C_19  and  C_20
REMARK   13  A    between atoms: C_27  and  O_28
REMARK                            x       y       z     vdW  Elec       q    Type
REMARK                         _______ _______ _______ _____ _____    ______ ____
ROOT
ATOM      1  C   UNL     1       2.498   6.810  18.923  0.00  0.00    +0.000 A 
ATOM      2  C   UNL     1       2.041   6.941  20.229  0.00  0.00    +0.000 A 
ATOM      3  C   UNL     1       1.398   8.113  20.632  0.00  0.00    +0.000 A 
ATOM      4  C   UNL     1       1.225   9.182  19.742  0.00  0.00    +0.000 A 
ATOM      5  C   UNL     1       1.742   9.056  18.445  0.00  0.00    +0.000 A 
ATOM      6  C   UNL     1       2.370   7.878  18.033  0.00  0.00    +0.000 A 
ENDROOT
BRANCH   4   7
ATOM      7  C   UNL     1       0.511  10.367  20.290  0.00  0.00    +0.000 C 
ATOM      8  O   UNL     1       1.097  11.122  21.068  0.00  0.00    +0.000 OA
BRANCH   7   9
ATOM      9  C   UNL     1      -0.907  10.586  19.922  0.00  0.00    +0.000 C 
ATOM     10  C   UNL     1      -1.356  11.827  19.673  0.00  0.00    +0.000 C 
BRANCH  10  11
ATOM     11  C   UNL     1      -2.733  12.009  19.222  0.00  0.00    +0.000 A 
ATOM     12  C   UNL     1      -3.683  12.630  20.040  0.00  0.00    +0.000 A 
ATOM     13  C   UNL     1      -5.018  12.703  19.632  0.00  0.00    +0.000 A 
ATOM     14  C   UNL     1      -5.399  12.157  18.406  0.00  0.00    +0.000 A 
ATOM     15 CL   UNL     1      -7.046  12.223  17.915  0.00  0.00    +0.000 Cl
ATOM     16  C   UNL     1      -4.456  11.549  17.580  0.00  0.00    +0.000 A 
ATOM     17  C   UNL     1      -3.123  11.476  17.987  0.00  0.00    +0.000 A 
ENDBRANCH  10  11
ENDBRANCH   7   9
ENDBRANCH   4   7
BRANCH   5  18
ATOM     18  O   UNL     1       1.692  10.054  17.511  0.00  0.00    +0.000 OA
ATOM     19  H   UNL     1       1.233  10.808  17.921  0.00  0.00    +0.000 HD
ENDBRANCH   5  18
BRANCH   1  20
ATOM     20  O   UNL     1       3.092   5.682  18.431  0.00  0.00    +0.000 OA
BRANCH  20  21
ATOM     21  C   UNL     1       4.527   5.663  18.549  0.00  0.00    +0.000 C 
BRANCH  21  24
ATOM     22  N   UNL     1       6.374   5.251  15.481  0.00  0.00    +0.000 N 
ATOM     23  C   UNL     1       6.123   4.772  16.725  0.00  0.00    +0.000 A 
ATOM     24  C   UNL     1       5.180   5.643  17.223  0.00  0.00    +0.000 A 
ATOM     25  N   UNL     1       4.923   6.613  16.291  0.00  0.00    +0.000 NA
ATOM     26  N   UNL     1       5.658   6.356  15.218  0.00  0.00    +0.000 NA
BRANCH  22  27
ATOM     27  C   UNL     1       7.267   4.695  14.492  0.00  0.00    +0.000 C 
BRANCH  27  28
ATOM     28  C   UNL     1       6.604   4.567  13.128  0.00  0.00    +0.000 C 
BRANCH  28  29
ATOM     29  C   UNL     1       6.083   3.150  12.911  0.00  0.00    +0.000 C 
BRANCH  29  30
ATOM     30  C   UNL     1       5.403   3.029  11.551  0.00  0.00    +0.000 C 
BRANCH  30  32
ATOM     31  C   UNL     1       3.345   3.575  10.225  0.00  0.00    +0.000 C 
ATOM     32  C   UNL     1       3.951   3.492  11.616  0.00  0.00    +0.000 C 
ENDBRANCH  30  32
ENDBRANCH  29  30
ENDBRANCH  28  29
ENDBRANCH  27  28
ENDBRANCH  22  27
ENDBRANCH  21  24
ENDBRANCH  20  21
ENDBRANCH   1  20
TORSDOF 12
ENDMDL
MODEL 2
REMARK VINA RESULT:      -7.5      3.439      5.037
REMARK  Name = 
REMARK  13 active torsions:
REMARK  status: ('A' for Active; 'I' for Inactive)
REMARK    1  A    between atoms: C_1  and  C_2
REMARK    2  A    between atoms: C_2  and  C_3
REMARK    3  A    between atoms: C_3  and  C_4
REMARK    4  A    between atoms: C_4  and  C_5
REMARK    5  A    between atoms: C_5  and  C_6
REMARK    6  A    between atoms: C_6  and  N_7
REMARK    7  A    between atoms: C_9  and  C_10
REMARK    8  A    between atoms: C_10  and  O_11
REMARK    9  A    between atoms: O_11  and  C_12
REMARK   10  A    between atoms: C_15  and  C_16
REMARK   11  A    between atoms: C_16  and  C_18
REMARK   12  A    between atoms: C_19  and  C_20
REMARK   13  A    between atoms: C_27  and  O_28
REMARK                            x       y       z     vdW  Elec       q    Type
REMARK                         _______ _______ _______ _____ _____    ______ ____
ROOT
ATOM      1  C   UNL     1       2.057   6.883  19.308  0.00  0.00    +0.000 A 
ATOM      2  C   UNL     1       1.651   7.333  20.558  0.00  0.00    +0.000 A 
ATOM      3  C   UNL     1       1.257   8.661  20.732  0.00  0.00    +0.000 A 
ATOM      4  C   UNL     1       1.286   9.567  19.663  0.00  0.00    +0.000 A 
ATOM      5  C   UNL     1       1.752   9.112  18.421  0.00  0.00    +0.000 A 
ATOM      6  C   UNL     1       2.130   7.780  18.240  0.00  0.00    +0.000 A 
ENDROOT
BRANCH   4   7
ATOM      7  C   UNL     1       0.827  10.947  19.975  0.00  0.00    +0.000 C 
ATOM      8  O   UNL     1       1.479  11.910  19.567  0.00  0.00    +0.000 OA
BRANCH   7   9
ATOM      9  C   UNL     1      -0.381  11.132  20.811  0.00  0.00    +0.000 C 
ATOM     10  C   UNL     1      -1.056  12.293  20.778  0.00  0.00    +0.000 C 
BRANCH  10  11
ATOM     11  C   UNL     1      -2.295  12.420  21.539  0.00  0.00    +0.000 A 
ATOM     12  C   UNL     1      -3.470  12.876  20.931  0.00  0.00    +0.000 A 
ATOM     13  C   UNL     1      -4.618  13.087  21.700  0.00  0.00    +0.000 A 
ATOM     14  C   UNL     1      -4.590  12.839  23.072  0.00  0.00    +0.000 A 
ATOM     15 CL   UNL     1      -5.995  13.124  24.022  0.00  0.00    +0.000 Cl
ATOM     16  C   UNL     1      -3.427  12.372  23.681  0.00  0.00    +0.000 A 
ATOM     17  C   UNL     1      -2.281  12.161  22.915  0.00  0.00    +0.000 A 
ENDBRANCH  10  11
ENDBRANCH   7   9
ENDBRANCH   4   7
BRANCH   5  18
ATOM     18  O   UNL     1       1.887   9.917  17.324  0.00  0.00    +0.000 OA
ATOM     19  H   UNL     1       2.736  10.385  17.414  0.00  0.00    +0.000 HD
ENDBRANCH   5  18
BRANCH   1  20
ATOM     20  O   UNL     1       2.410   5.591  19.038  0.00  0.00    +0.000 OA
BRANCH  20  21
ATOM     21  C   UNL     1       3.320   5.441  17.932  0.00  0.00    +0.000 C 
BRANCH  21  24
ATOM     22  N   UNL     1       6.779   6.220  18.583  0.00  0.00    +0.000 N 
ATOM     23  C   UNL     1       5.687   6.466  17.817  0.00  0.00    +0.000 A 
ATOM     24  C   UNL     1       4.723   5.643  18.353  0.00  0.00    +0.000 A 
ATOM     25  N   UNL     1       5.264   4.923  19.385  0.00  0.00    +0.000 NA
ATOM     26  N   UNL     1       6.530   5.294  19.523  0.00  0.00    +0.000 NA
BRANCH  22  27
ATOM     27  C   UNL     1       8.078   6.844  18.485  0.00  0.00    +0.000 C 
BRANCH  27  28
ATOM     28  C   UNL     1       8.000   8.242  17.891  0.00  0.00    +0.000 C 
BRANCH  28  29
ATOM     29  C   UNL     1       8.814   9.228  18.723  0.00  0.00    +0.000 C 
BRANCH  29  30
ATOM     30  C   UNL     1       8.881  10.587  18.032  0.00  0.00    +0.000 C 
BRANCH  30  32
ATOM     31  C   UNL     1      11.094  11.762  18.118  0.00  0.00    +0.000 C 
ATOM     32  C   UNL     1       9.758  11.561  18.812  0.00  0.00    +0.000 C 
ENDBRANCH  30  32
ENDBRANCH  29  30
ENDBRANCH  28  29
ENDBRANCH  27  28
ENDBRANCH  22  27
ENDBRANCH  21  24
ENDBRANCH  20  21
ENDBRANCH   1  20
TORSDOF 12
ENDMDL
MODEL 3
REMARK VINA RESULT:      -7.5      2.293      3.526
REMARK  Name = 
REMARK  13 active torsions:
REMARK  status: ('A' for Active; 'I' for Inactive)
REMARK    1  A    between atoms: C_1  and  C_2
REMARK    2  A    between atoms: C_2  and  C_3
REMARK    3  A    between atoms: C_3  and  C_4
REMARK    4  A    between atoms: C_4  and  C_5
REMARK    5  A    between atoms: C_5  and  C_6
REMARK    6  A    between atoms: C_6  and  N_7
REMARK    7  A    between atoms: C_9  and  C_10
REMARK    8  A    between atoms: C_10  and  O_11
REMARK    9  A    between atoms: O_11  and  C_12
REMARK   10  A    between atoms: C_15  and  C_16
REMARK   11  A    between atoms: C_16  and  C_18
REMARK   12  A    between atoms: C_19  and  C_20
REMARK   13  A    between atoms: C_27  and  O_28
REMARK                            x       y       z     vdW  Elec       q    Type
REMARK                         _______ _______ _______ _____ _____    ______ ____
ROOT
ATOM      1  C   UNL     1       1.698   7.203  20.326  0.00  0.00    +0.000 A 
ATOM      2  C   UNL     1       1.086   8.111  21.183  0.00  0.00    +0.000 A 
ATOM      3  C   UNL     1       0.788   9.401  20.741  0.00  0.00    +0.000 A 
ATOM      4  C   UNL     1       1.118   9.812  19.442  0.00  0.00    +0.000 A 
ATOM      5  C   UNL     1       1.786   8.903  18.609  0.00  0.00    +0.000 A 
ATOM      6  C   UNL     1       2.070   7.606  19.042  0.00  0.00    +0.000 A 
ENDROOT
BRANCH   4   7
ATOM      7  C   UNL     1       0.732  11.205  19.090  0.00  0.00    +0.000 C 
ATOM      8  O   UNL     1       1.607  12.063  18.963  0.00  0.00    +0.000 OA
BRANCH   7   9
ATOM      9  C   UNL     1      -0.703  11.538  18.945  0.00  0.00    +0.000 C 
ATOM     10  C   UNL     1      -1.438  10.960  17.980  0.00  0.00    +0.000 C 
BRANCH  10  11
ATOM     11  C   UNL     1      -2.871  11.233  17.915  0.00  0.00    +0.000 A 
ATOM     12  C   UNL     1      -3.584  11.054  16.725  0.00  0.00    +0.000 A 
ATOM     13  C   UNL     1      -4.933  11.417  16.656  0.00  0.00    +0.000 A 
ATOM     14  C   UNL     1      -5.563  11.957  17.777  0.00  0.00    +0.000 A 
ATOM     15 CL   UNL     1      -7.215  12.429  17.686  0.00  0.00    +0.000 Cl
ATOM     16  C   UNL     1      -4.862  12.126  18.969  0.00  0.00    +0.000 A 
ATOM     17  C   UNL     1      -3.516  11.763  19.038  0.00  0.00    +0.000 A 
ENDBRANCH  10  11
ENDBRANCH   7   9
ENDBRANCH   4   7
BRANCH   5  18
ATOM     18  O   UNL     1       2.217   9.211  17.348  0.00  0.00    +0.000 OA
ATOM     19  H   UNL     1       2.476   8.376  16.921  0.00  0.00    +0.000 HD
ENDBRANCH   5  18
BRANCH   1  20
ATOM     20  O   UNL     1       1.981   5.909  20.659  0.00  0.00    +0.000 OA
BRANCH  20  21
ATOM     21  C   UNL     1       1.258   4.925  19.897  0.00  0.00    +0.000 C 
BRANCH  21  24
ATOM     22  N   UNL     1       3.643   3.739  17.467  0.00  0.00    +0.000 N 
ATOM     23  C   UNL     1       3.452   4.316  18.680  0.00  0.00    +0.000 A 
ATOM     24  C   UNL     1       2.083   4.375  18.800  0.00  0.00    +0.000 A 
ATOM     25  N   UNL     1       1.506   3.866  17.666  0.00  0.00    +0.000 NA
ATOM     26  N   UNL     1       2.478   3.469  16.855  0.00  0.00    +0.000 NA
BRANCH  22  27
ATOM     27  C   UNL     1       4.901   3.401  16.845  0.00  0.00    +0.000 C 
BRANCH  27  28
ATOM     28  C   UNL     1       5.203   4.286  15.644  0.00  0.00    +0.000 C 
BRANCH  28  29
ATOM     29  C   UNL     1       6.645   4.783  15.690  0.00  0.00    +0.000 C 
BRANCH  29  30
ATOM     30  C   UNL     1       7.219   4.638  17.096  0.00  0.00    +0.000 C 
BRANCH  30  32
ATOM     31  C   UNL     1       7.855   5.840  19.203  0.00  0.00    +0.000 C 
ATOM     32  C   UNL     1       7.409   5.998  17.760  0.00  0.00    +0.000 C 
ENDBRANCH  30  32
ENDBRANCH  29  30
ENDBRANCH  28  29
ENDBRANCH  27  28
ENDBRANCH  22  27
ENDBRANCH  21  24
ENDBRANCH  20  21
ENDBRANCH   1  20
TORSDOF 12
ENDMDL
MODEL 4
REMARK VINA RESULT:      -7.4      2.093      2.856
REMARK  Name = 
REMARK  13 active torsions:
REMARK  status: ('A' for Active; 'I' for Inactive)
REMARK    1  A    between atoms: C_1  and  C_2
REMARK    2  A    between atoms: C_2  and  C_3
REMARK    3  A    between atoms: C_3  and  C_4
REMARK    4  A    between atoms: C_4  and  C_5
REMARK    5  A    between atoms: C_5  and  C_6
REMARK    6  A    between atoms: C_6  and  N_7
REMARK    7  A    between atoms: C_9  and  C_10
REMARK    8  A    between atoms: C_10  and  O_11
REMARK    9  A    between atoms: O_11  and  C_12
REMARK   10  A    between atoms: C_15  and  C_16
REMARK   11  A    between atoms: C_16  and  C_18
REMARK   12  A    between atoms: C_19  and  C_20
REMARK   13  A    between atoms: C_27  and  O_28
REMARK                            x       y       z     vdW  Elec       q    Type
REMARK                         _______ _______ _______ _____ _____    ______ ____
ROOT
ATOM      1  C   UNL     1       2.499   6.305  19.075  0.00  0.00    +0.000 A 
ATOM      2  C   UNL     1       2.568   7.125  17.955  0.00  0.00    +0.000 A 
ATOM      3  C   UNL     1       2.172   8.461  18.039  0.00  0.00    +0.000 A 
ATOM      4  C   UNL     1       1.678   8.992  19.238  0.00  0.00    +0.000 A 
ATOM      5  C   UNL     1       1.561   8.137  20.344  0.00  0.00    +0.000 A 
ATOM      6  C   UNL     1       1.973   6.805  20.268  0.00  0.00    +0.000 A 
ENDROOT
BRANCH   4   7
ATOM      7  C   UNL     1       1.306  10.432  19.200  0.00  0.00    +0.000 C 
ATOM      8  O   UNL     1       1.797  11.163  18.339  0.00  0.00    +0.000 OA
BRANCH   7   9
ATOM      9  C   UNL     1       0.386  10.964  20.232  0.00  0.00    +0.000 C 
ATOM     10  C   UNL     1      -0.768  11.550  19.871  0.00  0.00    +0.000 C 
BRANCH  10  11
ATOM     11  C   UNL     1      -1.702  11.984  20.907  0.00  0.00    +0.000 A 
ATOM     12  C   UNL     1      -1.449  11.724  22.258  0.00  0.00    +0.000 A 
ATOM     13  C   UNL     1      -2.403  12.056  23.224  0.00  0.00    +0.000 A 
ATOM     14  C   UNL     1      -3.605  12.648  22.837  0.00  0.00    +0.000 A 
ATOM     15 CL   UNL     1      -4.791  13.033  24.022  0.00  0.00    +0.000 Cl
ATOM     16  C   UNL     1      -3.858  12.921  21.494  0.00  0.00    +0.000 A 
ATOM     17  C   UNL     1      -2.906  12.590  20.529  0.00  0.00    +0.000 A 
ENDBRANCH  10  11
ENDBRANCH   7   9
ENDBRANCH   4   7
BRANCH   5  18
ATOM     18  O   UNL     1       1.033   8.523  21.545  0.00  0.00    +0.000 OA
ATOM     19  H   UNL     1       1.773   8.828  22.099  0.00  0.00    +0.000 HD
ENDBRANCH   5  18
BRANCH   1  20
ATOM     20  O   UNL     1       2.911   5.002  19.096  0.00  0.00    +0.000 OA
BRANCH  20  21
ATOM     21  C   UNL     1       4.172   4.785  19.755  0.00  0.00    +0.000 C 
BRANCH  21  24
ATOM     22  N   UNL     1       6.546   4.460  17.062  0.00  0.00    +0.000 N 
ATOM     23  C   UNL     1       5.238   4.506  17.420  0.00  0.00    +0.000 A 
ATOM     24  C   UNL     1       5.282   4.684  18.784  0.00  0.00    +0.000 A 
ATOM     25  N   UNL     1       6.588   4.711  19.196  0.00  0.00    +0.000 NA
ATOM     26  N   UNL     1       7.358   4.580  18.124  0.00  0.00    +0.000 NA
BRANCH  22  27
ATOM     27  C   UNL     1       7.085   4.322  15.730  0.00  0.00    +0.000 C 
BRANCH  27  28
ATOM     28  C   UNL     1       5.993   4.243  14.673  0.00  0.00    +0.000 C 
BRANCH  28  29
ATOM     29  C   UNL     1       6.599   4.189  13.274  0.00  0.00    +0.000 C 
BRANCH  29  30
ATOM     30  C   UNL     1       5.768   3.291  12.363  0.00  0.00    +0.000 C 
BRANCH  30  32
ATOM     31  C   UNL     1       6.117   1.052  11.290  0.00  0.00    +0.000 C 
ATOM     32  C   UNL     1       6.658   2.463  11.441  0.00  0.00    +0.000 C 
ENDBRANCH  30  32
ENDBRANCH  29  30
ENDBRANCH  28  29
ENDBRANCH  27  28
ENDBRANCH  22  27
ENDBRANCH  21  24
ENDBRANCH  20  21
ENDBRANCH   1  20
TORSDOF 12
ENDMDL
MODEL 5
REMARK VINA RESULT:      -7.4      3.769      6.743
REMARK  Name = 
REMARK  13 active torsions:
REMARK  status: ('A' for Active; 'I' for Inactive)
REMARK    1  A    between atoms: C_1  and  C_2
REMARK    2  A    between atoms: C_2  and  C_3
REMARK    3  A    between atoms: C_3  and  C_4
REMARK    4  A    between atoms: C_4  and  C_5
REMARK    5  A    between atoms: C_5  and  C_6
REMARK    6  A    between atoms: C_6  and  N_7
REMARK    7  A    between atoms: C_9  and  C_10
REMARK    8  A    between atoms: C_10  and  O_11
REMARK    9  A    between atoms: O_11  and  C_12
REMARK   10  A    between atoms: C_15  and  C_16
REMARK   11  A    between atoms: C_16  and  C_18
REMARK   12  A    between atoms: C_19  and  C_20
REMARK   13  A    between atoms: C_27  and  O_28
REMARK                            x       y       z     vdW  Elec       q    Type
REMARK                         _______ _______ _______ _____ _____    ______ ____
ROOT
ATOM      1  C   UNL     1       4.390   3.470  17.150  0.00  0.00    +0.000 A 
ATOM      2  C   UNL     1       3.175   4.144  17.095  0.00  0.00    +0.000 A 
ATOM      3  C   UNL     1       2.444   4.367  18.263  0.00  0.00    +0.000 A 
ATOM      4  C   UNL     1       2.905   3.901  19.502  0.00  0.00    +0.000 A 
ATOM      5  C   UNL     1       4.103   3.174  19.533  0.00  0.00    +0.000 A 
ATOM      6  C   UNL     1       4.846   2.963  18.368  0.00  0.00    +0.000 A 
ENDROOT
BRANCH   4   7
ATOM      7  C   UNL     1       2.042   4.218  20.671  0.00  0.00    +0.000 C 
ATOM      8  O   UNL     1       1.910   3.387  21.572  0.00  0.00    +0.000 OA
BRANCH   7   9
ATOM      9  C   UNL     1       1.321   5.512  20.703  0.00  0.00    +0.000 C 
ATOM     10  C   UNL     1       2.004   6.667  20.652  0.00  0.00    +0.000 C 
BRANCH  10  11
ATOM     11  C   UNL     1       1.269   7.928  20.590  0.00  0.00    +0.000 A 
ATOM     12  C   UNL     1       1.417   8.795  19.503  0.00  0.00    +0.000 A 
ATOM     13  C   UNL     1       0.784  10.041  19.511  0.00  0.00    +0.000 A 
ATOM     14  C   UNL     1       0.004  10.416  20.605  0.00  0.00    +0.000 A 
ATOM     15 CL   UNL     1      -0.753  11.960  20.627  0.00  0.00    +0.000 Cl
ATOM     16  C   UNL     1      -0.158   9.551  21.686  0.00  0.00    +0.000 A 
ATOM     17  C   UNL     1       0.474   8.308  21.678  0.00  0.00    +0.000 A 
ENDBRANCH  10  11
ENDBRANCH   7   9
ENDBRANCH   4   7
BRANCH   5  18
ATOM     18  O   UNL     1       4.618   2.613  20.669  0.00  0.00    +0.000 OA
ATOM     19  H   UNL     1       5.175   1.864  20.393  0.00  0.00    +0.000 HD
ENDBRANCH   5  18
BRANCH   1  20
ATOM     20  O   UNL     1       5.192   3.251  16.066  0.00  0.00    +0.000 OA
BRANCH  20  21
ATOM     21  C   UNL     1       5.408   4.409  15.239  0.00  0.00    +0.000 C 
BRANCH  21  24
ATOM     22  N   UNL     1       7.096   6.838  17.301  0.00  0.00    +0.000 N 
ATOM     23  C   UNL     1       7.079   5.565  16.834  0.00  0.00    +0.000 A 
ATOM     24  C   UNL     1       5.971   5.533  16.018  0.00  0.00    +0.000 A 
ATOM     25  N   UNL     1       5.354   6.756  16.044  0.00  0.00    +0.000 NA
ATOM     26  N   UNL     1       6.062   7.555  16.831  0.00  0.00    +0.000 NA
BRANCH  22  27
ATOM     27  C   UNL     1       8.073   7.437  18.179  0.00  0.00    +0.000 C 
BRANCH  27  28
ATOM     28  C   UNL     1       8.254   8.923  17.908  0.00  0.00    +0.000 C 
BRANCH  28  29
ATOM     29  C   UNL     1       9.075   9.578  19.014  0.00  0.00    +0.000 C 
BRANCH  29  30
ATOM     30  C   UNL     1       9.512  10.980  18.602  0.00  0.00    +0.000 C 
BRANCH  30  32
ATOM     31  C   UNL     1      10.503  13.058  19.596  0.00  0.00    +0.000 C 
ATOM     32  C   UNL     1      10.555  11.540  19.564  0.00  0.00    +0.000 C 
ENDBRANCH  30  32
ENDBRANCH  29  30
ENDBRANCH  28  29
ENDBRANCH  27  28
ENDBRANCH  22  27
ENDBRANCH  21  24
ENDBRANCH  20  21
ENDBRANCH   1  20
TORSDOF 12
ENDMDL
MODEL 6
REMARK VINA RESULT:      -7.3      6.049     10.900
REMARK  Name = 
REMARK  13 active torsions:
REMARK  status: ('A' for Active; 'I' for Inactive)
REMARK    1  A    between atoms: C_1  and  C_2
REMARK    2  A    between atoms: C_2  and  C_3
REMARK    3  A    between atoms: C_3  and  C_4
REMARK    4  A    between atoms: C_4  and  C_5
REMARK    5  A    between atoms: C_5  and  C_6
REMARK    6  A    between atoms: C_6  and  N_7
REMARK    7  A    between atoms: C_9  and  C_10
REMARK    8  A    between atoms: C_10  and  O_11
REMARK    9  A    between atoms: O_11  and  C_12
REMARK   10  A    between atoms: C_15  and  C_16
REMARK   11  A    between atoms: C_16  and  C_18
REMARK   12  A    between atoms: C_19  and  C_20
REMARK   13  A    between atoms: C_27  and  O_28
REMARK                            x       y       z     vdW  Elec       q    Type
REMARK                         _______ _______ _______ _____ _____    ______ ____
ROOT
ATOM      1  C   UNL     1      -0.713  10.897  21.919  0.00  0.00    +0.000 A 
ATOM      2  C   UNL     1      -0.776  11.318  20.596  0.00  0.00    +0.000 A 
ATOM      3  C   UNL     1       0.019  10.704  19.627  0.00  0.00    +0.000 A 
ATOM      4  C   UNL     1       0.907   9.675  19.969  0.00  0.00    +0.000 A 
ATOM      5  C   UNL     1       1.000   9.300  21.317  0.00  0.00    +0.000 A 
ATOM      6  C   UNL     1       0.193   9.901  22.286  0.00  0.00    +0.000 A 
ENDROOT
BRANCH   4   7
ATOM      7  C   UNL     1       1.685   9.094  18.842  0.00  0.00    +0.000 C 
ATOM      8  O   UNL     1       2.129   9.836  17.964  0.00  0.00    +0.000 OA
BRANCH   7   9
ATOM      9  C   UNL     1       1.866   7.625  18.776  0.00  0.00    +0.000 C 
ATOM     10  C   UNL     1       2.766   7.093  17.932  0.00  0.00    +0.000 C 
BRANCH  10  11
ATOM     11  C   UNL     1       2.995   5.651  17.950  0.00  0.00    +0.000 A 
ATOM     12  C   UNL     1       1.930   4.752  17.822  0.00  0.00    +0.000 A 
ATOM     13  C   UNL     1       2.157   3.378  17.945  0.00  0.00    +0.000 A 
ATOM     14  C   UNL     1       3.446   2.907  18.192  0.00  0.00    +0.000 A 
ATOM     15 CL   UNL     1       3.722   1.218  18.369  0.00  0.00    +0.000 Cl
ATOM     16  C   UNL     1       4.513   3.796  18.308  0.00  0.00    +0.000 A 
ATOM     17  C   UNL     1       4.287   5.167  18.186  0.00  0.00    +0.000 A 
ENDBRANCH  10  11
ENDBRANCH   7   9
ENDBRANCH   4   7
BRANCH   5  18
ATOM     18  O   UNL     1       1.875   8.357  21.780  0.00  0.00    +0.000 OA
ATOM     19  H   UNL     1       1.470   7.951  22.566  0.00  0.00    +0.000 HD
ENDBRANCH   5  18
BRANCH   1  20
ATOM     20  O   UNL     1      -1.489  11.407  22.921  0.00  0.00    +0.000 OA
BRANCH  20  21
ATOM     21  C   UNL     1      -2.032  12.713  22.650  0.00  0.00    +0.000 C 
BRANCH  21  24
ATOM     22  N   UNL     1      -5.499  12.740  21.662  0.00  0.00    +0.000 N 
ATOM     23  C   UNL     1      -4.211  12.927  21.281  0.00  0.00    +0.000 A 
ATOM     24  C   UNL     1      -3.492  12.657  22.423  0.00  0.00    +0.000 A 
ATOM     25  N   UNL     1      -4.356  12.350  23.441  0.00  0.00    +0.000 NA
ATOM     26  N   UNL     1      -5.590  12.396  22.957  0.00  0.00    +0.000 NA
BRANCH  22  27
ATOM     27  C   UNL     1      -6.682  12.854  20.842  0.00  0.00    +0.000 C 
BRANCH  27  28
ATOM     28  C   UNL     1      -6.780  11.735  19.816  0.00  0.00    +0.000 C 
BRANCH  28  29
ATOM     29  C   UNL     1      -6.266  12.203  18.457  0.00  0.00    +0.000 C 
BRANCH  29  30
ATOM     30  C   UNL     1      -5.492  11.087  17.763  0.00  0.00    +0.000 C 
BRANCH  30  32
ATOM     31  C   UNL     1      -3.257   9.965  17.580  0.00  0.00    +0.000 C 
ATOM     32  C   UNL     1      -3.990  11.229  17.992  0.00  0.00    +0.000 C 
ENDBRANCH  30  32
ENDBRANCH  29  30
ENDBRANCH  28  29
ENDBRANCH  27  28
ENDBRANCH  22  27
ENDBRANCH  21  24
ENDBRANCH  20  21
ENDBRANCH   1  20
TORSDOF 12
ENDMDL
MODEL 7
REMARK VINA RESULT:      -7.3      1.282      1.796
REMARK  Name = 
REMARK  13 active torsions:
REMARK  status: ('A' for Active; 'I' for Inactive)
REMARK    1  A    between atoms: C_1  and  C_2
REMARK    2  A    between atoms: C_2  and  C_3
REMARK    3  A    between atoms: C_3  and  C_4
REMARK    4  A    between atoms: C_4  and  C_5
REMARK    5  A    between atoms: C_5  and  C_6
REMARK    6  A    between atoms: C_6  and  N_7
REMARK    7  A    between atoms: C_9  and  C_10
REMARK    8  A    between atoms: C_10  and  O_11
REMARK    9  A    between atoms: O_11  and  C_12
REMARK   10  A    between atoms: C_15  and  C_16
REMARK   11  A    between atoms: C_16  and  C_18
REMARK   12  A    between atoms: C_19  and  C_20
REMARK   13  A    between atoms: C_27  and  O_28
REMARK                            x       y       z     vdW  Elec       q    Type
REMARK                         _______ _______ _______ _____ _____    ______ ____
ROOT
ATOM      1  C   UNL     1       2.756   6.123  19.043  0.00  0.00    +0.000 A 
ATOM      2  C   UNL     1       2.639   6.843  17.860  0.00  0.00    +0.000 A 
ATOM      3  C   UNL     1       2.089   8.126  17.872  0.00  0.00    +0.000 A 
ATOM      4  C   UNL     1       1.625   8.700  19.063  0.00  0.00    +0.000 A 
ATOM      5  C   UNL     1       1.698   7.939  20.238  0.00  0.00    +0.000 A 
ATOM      6  C   UNL     1       2.263   6.662  20.233  0.00  0.00    +0.000 A 
ENDROOT
BRANCH   4   7
ATOM      7  C   UNL     1       1.076  10.078  18.943  0.00  0.00    +0.000 C 
ATOM      8  O   UNL     1       1.844  11.041  18.968  0.00  0.00    +0.000 OA
BRANCH   7   9
ATOM      9  C   UNL     1      -0.390  10.262  18.845  0.00  0.00    +0.000 C 
ATOM     10  C   UNL     1      -0.899  11.454  18.492  0.00  0.00    +0.000 C 
BRANCH  10  11
ATOM     11  C   UNL     1      -2.342  11.587  18.311  0.00  0.00    +0.000 A 
ATOM     12  C   UNL     1      -3.151  12.104  19.329  0.00  0.00    +0.000 A 
ATOM     13  C   UNL     1      -4.540  12.128  19.174  0.00  0.00    +0.000 A 
ATOM     14  C   UNL     1      -5.116  11.638  18.002  0.00  0.00    +0.000 A 
ATOM     15 CL   UNL     1      -6.826  11.643  17.822  0.00  0.00    +0.000 Cl
ATOM     16  C   UNL     1      -4.315  11.134  16.979  0.00  0.00    +0.000 A 
ATOM     17  C   UNL     1      -2.929  11.110  17.133  0.00  0.00    +0.000 A 
ENDBRANCH  10  11
ENDBRANCH   7   9
ENDBRANCH   4   7
BRANCH   5  18
ATOM     18  O   UNL     1       1.218   8.366  21.446  0.00  0.00    +0.000 OA
ATOM     19  H   UNL     1       0.592   9.090  21.266  0.00  0.00    +0.000 HD
ENDBRANCH   5  18
BRANCH   1  20
ATOM     20  O   UNL     1       3.325   4.884  19.131  0.00  0.00    +0.000 OA
BRANCH  20  21
ATOM     21  C   UNL     1       4.690   4.886  19.589  0.00  0.00    +0.000 C 
BRANCH  21  24
ATOM     22  N   UNL     1       6.634   4.727  16.557  0.00  0.00    +0.000 N 
ATOM     23  C   UNL     1       5.396   4.719  17.110  0.00  0.00    +0.000 A 
ATOM     24  C   UNL     1       5.641   4.853  18.458  0.00  0.00    +0.000 A 
ATOM     25  N   UNL     1       6.994   4.907  18.668  0.00  0.00    +0.000 NA
ATOM     26  N   UNL     1       7.595   4.837  17.488  0.00  0.00    +0.000 NA
BRANCH  22  27
ATOM     27  C   UNL     1       6.968   4.651  15.155  0.00  0.00    +0.000 C 
BRANCH  27  28
ATOM     28  C   UNL     1       6.299   3.470  14.467  0.00  0.00    +0.000 C 
BRANCH  28  29
ATOM     29  C   UNL     1       5.728   3.885  13.115  0.00  0.00    +0.000 C 
BRANCH  29  30
ATOM     30  C   UNL     1       5.826   2.736  12.115  0.00  0.00    +0.000 C 
BRANCH  30  32
ATOM     31  C   UNL     1       3.616   3.547  11.250  0.00  0.00    +0.000 C 
ATOM     32  C   UNL     1       4.987   3.012  10.872  0.00  0.00    +0.000 C 
ENDBRANCH  30  32
ENDBRANCH  29  30
ENDBRANCH  28  29
ENDBRANCH  27  28
ENDBRANCH  22  27
ENDBRANCH  21  24
ENDBRANCH  20  21
ENDBRANCH   1  20
TORSDOF 12
ENDMDL
MODEL 8
REMARK VINA RESULT:      -7.2      7.428      9.693
REMARK  Name = 
REMARK  13 active torsions:
REMARK  status: ('A' for Active; 'I' for Inactive)
REMARK    1  A    between atoms: C_1  and  C_2
REMARK    2  A    between atoms: C_2  and  C_3
REMARK    3  A    between atoms: C_3  and  C_4
REMARK    4  A    between atoms: C_4  and  C_5
REMARK    5  A    between atoms: C_5  and  C_6
REMARK    6  A    between atoms: C_6  and  N_7
REMARK    7  A    between atoms: C_9  and  C_10
REMARK    8  A    between atoms: C_10  and  O_11
REMARK    9  A    between atoms: O_11  and  C_12
REMARK   10  A    between atoms: C_15  and  C_16
REMARK   11  A    between atoms: C_16  and  C_18
REMARK   12  A    between atoms: C_19  and  C_20
REMARK   13  A    between atoms: C_27  and  O_28
REMARK                            x       y       z     vdW  Elec       q    Type
REMARK                         _______ _______ _______ _____ _____    ______ ____
ROOT
ATOM      1  C   UNL     1       8.218   9.577  17.949  0.00  0.00    +0.000 A 
ATOM      2  C   UNL     1       8.962   9.392  19.108  0.00  0.00    +0.000 A 
ATOM      3  C   UNL     1       9.624  10.470  19.696  0.00  0.00    +0.000 A 
ATOM      4  C   UNL     1       9.573  11.747  19.121  0.00  0.00    +0.000 A 
ATOM      5  C   UNL     1       8.866  11.907  17.921  0.00  0.00    +0.000 A 
ATOM      6  C   UNL     1       8.188  10.833  17.339  0.00  0.00    +0.000 A 
ENDROOT
BRANCH   4   7
ATOM      7  C   UNL     1      10.308  12.814  19.854  0.00  0.00    +0.000 C 
ATOM      8  O   UNL     1      11.124  13.513  19.251  0.00  0.00    +0.000 OA
BRANCH   7   9
ATOM      9  C   UNL     1      10.075  12.979  21.308  0.00  0.00    +0.000 C 
ATOM     10  C   UNL     1       8.954  13.573  21.749  0.00  0.00    +0.000 C 
BRANCH  10  11
ATOM     11  C   UNL     1       8.702  13.641  23.186  0.00  0.00    +0.000 A 
ATOM     12  C   UNL     1       8.810  14.851  23.879  0.00  0.00    +0.000 A 
ATOM     13  C   UNL     1       8.665  14.877  25.269  0.00  0.00    +0.000 A 
ATOM     14  C   UNL     1       8.410  13.693  25.961  0.00  0.00    +0.000 A 
ATOM     15 CL   UNL     1       8.258  13.719  27.674  0.00  0.00    +0.000 Cl
ATOM     16  C   UNL     1       8.288  12.486  25.276  0.00  0.00    +0.000 A 
ATOM     17  C   UNL     1       8.433  12.460  23.888  0.00  0.00    +0.000 A 
ENDBRANCH  10  11
ENDBRANCH   7   9
ENDBRANCH   4   7
BRANCH   5  18
ATOM     18  O   UNL     1       8.801  13.087  17.234  0.00  0.00    +0.000 OA
ATOM     19  H   UNL     1       8.627  12.868  16.302  0.00  0.00    +0.000 HD
ENDBRANCH   5  18
BRANCH   1  20
ATOM     20  O   UNL     1       7.500   8.590  17.334  0.00  0.00    +0.000 OA
BRANCH  20  21
ATOM     21  C   UNL     1       7.826   7.257  17.768  0.00  0.00    +0.000 C 
BRANCH  21  24
ATOM     22  N   UNL     1       4.671   5.524  17.956  0.00  0.00    +0.000 N 
ATOM     23  C   UNL     1       5.428   6.429  17.288  0.00  0.00    +0.000 A 
ATOM     24  C   UNL     1       6.611   6.447  17.992  0.00  0.00    +0.000 A 
ATOM     25  N   UNL     1       6.517   5.588  19.056  0.00  0.00    +0.000 NA
ATOM     26  N   UNL     1       5.320   5.019  19.018  0.00  0.00    +0.000 NA
BRANCH  22  27
ATOM     27  C   UNL     1       3.337   5.083  17.626  0.00  0.00    +0.000 C 
BRANCH  27  28
ATOM     28  C   UNL     1       2.929   3.845  18.413  0.00  0.00    +0.000 C 
BRANCH  28  29
ATOM     29  C   UNL     1       1.414   3.785  18.578  0.00  0.00    +0.000 C 
BRANCH  29  30
ATOM     30  C   UNL     1       1.015   4.145  20.006  0.00  0.00    +0.000 C 
BRANCH  30  32
ATOM     31  C   UNL     1       1.959   2.632  21.770  0.00  0.00    +0.000 C 
ATOM     32  C   UNL     1       2.168   3.912  20.978  0.00  0.00    +0.000 C 
ENDBRANCH  30  32
ENDBRANCH  29  30
ENDBRANCH  28  29
ENDBRANCH  27  28
ENDBRANCH  22  27
ENDBRANCH  21  24
ENDBRANCH  20  21
ENDBRANCH   1  20
TORSDOF 12
ENDMDL
MODEL 9
REMARK VINA RESULT:      -7.2      3.394      4.622
REMARK  Name = 
REMARK  13 active torsions:
REMARK  status: ('A' for Active; 'I' for Inactive)
REMARK    1  A    between atoms: C_1  and  C_2
REMARK    2  A    between atoms: C_2  and  C_3
REMARK    3  A    between atoms: C_3  and  C_4
REMARK    4  A    between atoms: C_4  and  C_5
REMARK    5  A    between atoms: C_5  and  C_6
REMARK    6  A    between atoms: C_6  and  N_7
REMARK    7  A    between atoms: C_9  and  C_10
REMARK    8  A    between atoms: C_10  and  O_11
REMARK    9  A    between atoms: O_11  and  C_12
REMARK   10  A    between atoms: C_15  and  C_16
REMARK   11  A    between atoms: C_16  and  C_18
REMARK   12  A    between atoms: C_19  and  C_20
REMARK   13  A    between atoms: C_27  and  O_28
REMARK                            x       y       z     vdW  Elec       q    Type
REMARK                         _______ _______ _______ _____ _____    ______ ____
ROOT
ATOM      1  C   UNL     1       1.414   9.031  19.078  0.00  0.00    +0.000 A 
ATOM      2  C   UNL     1       1.034   8.965  20.413  0.00  0.00    +0.000 A 
ATOM      3  C   UNL     1       0.591  10.112  21.073  0.00  0.00    +0.000 A 
ATOM      4  C   UNL     1       0.543  11.349  20.415  0.00  0.00    +0.000 A 
ATOM      5  C   UNL     1       0.984  11.410  19.086  0.00  0.00    +0.000 A 
ATOM      6  C   UNL     1       1.412  10.261  18.417  0.00  0.00    +0.000 A 
ENDROOT
BRANCH   4   7
ATOM      7  C   UNL     1       0.037  12.490  21.225  0.00  0.00    +0.000 C 
ATOM      8  O   UNL     1       0.834  13.315  21.675  0.00  0.00    +0.000 OA
BRANCH   7   9
ATOM      9  C   UNL     1      -1.413  12.581  21.511  0.00  0.00    +0.000 C 
ATOM     10  C   UNL     1      -1.863  12.448  22.770  0.00  0.00    +0.000 C 
BRANCH  10  11
ATOM     11  C   UNL     1      -3.285  12.634  23.042  0.00  0.00    +0.000 A 
ATOM     12  C   UNL     1      -3.798  12.475  24.334  0.00  0.00    +0.000 A 
ATOM     13  C   UNL     1      -5.176  12.557  24.555  0.00  0.00    +0.000 A 
ATOM     14  C   UNL     1      -6.036  12.799  23.485  0.00  0.00    +0.000 A 
ATOM     15 CL   UNL     1      -7.734  12.873  23.751  0.00  0.00    +0.000 Cl
ATOM     16  C   UNL     1      -5.531  12.970  22.197  0.00  0.00    +0.000 A 
ATOM     17  C   UNL     1      -4.157  12.888  21.976  0.00  0.00    +0.000 A 
ENDBRANCH  10  11
ENDBRANCH   7   9
ENDBRANCH   4   7
BRANCH   5  18
ATOM     18  O   UNL     1       1.046  12.570  18.363  0.00  0.00    +0.000 OA
ATOM     19  H   UNL     1       0.199  12.660  17.893  0.00  0.00    +0.000 HD
ENDBRANCH   5  18
BRANCH   1  20
ATOM     20  O   UNL     1       1.813   7.950  18.342  0.00  0.00    +0.000 OA
BRANCH  20  21
ATOM     21  C   UNL     1       3.147   8.050  17.811  0.00  0.00    +0.000 C 
BRANCH  21  24
ATOM     22  N   UNL     1       4.222   4.624  17.490  0.00  0.00    +0.000 N 
ATOM     23  C   UNL     1       3.183   5.471  17.695  0.00  0.00    +0.000 A 
ATOM     24  C   UNL     1       3.763   6.718  17.637  0.00  0.00    +0.000 A 
ATOM     25  N   UNL     1       5.111   6.581  17.430  0.00  0.00    +0.000 NA
ATOM     26  N   UNL     1       5.380   5.286  17.333  0.00  0.00    +0.000 NA
BRANCH  22  27
ATOM     27  C   UNL     1       4.178   3.183  17.414  0.00  0.00    +0.000 C 
BRANCH  27  28
ATOM     28  C   UNL     1       2.779   2.638  17.662  0.00  0.00    +0.000 C 
BRANCH  28  29
ATOM     29  C   UNL     1       2.755   1.759  18.908  0.00  0.00    +0.000 C 
BRANCH  29  30
ATOM     30  C   UNL     1       2.518   2.604  20.156  0.00  0.00    +0.000 C 
BRANCH  30  32
ATOM     31  C   UNL     1       1.256   4.721  20.619  0.00  0.00    +0.000 C 
ATOM     32  C   UNL     1       1.159   3.294  20.108  0.00  0.00    +0.000 C 
ENDBRANCH  30  32
ENDBRANCH  29  30
ENDBRANCH  28  29
ENDBRANCH  27  28
ENDBRANCH  22  27
ENDBRANCH  21  24
ENDBRANCH  20  21
ENDBRANCH   1  20
TORSDOF 12
ENDMDL
