MODEL 1
REMARK VINA RESULT:      -6.9      0.000      0.000
REMARK  Name = 
REMARK  11 active torsions:
REMARK  status: ('A' for Active; 'I' for Inactive)
REMARK    1  A    between atoms: C_1  and  C_2
REMARK    2  A    between atoms: C_2  and  C_3
REMARK    3  A    between atoms: N_5  and  C_6
REMARK    4  A    between atoms: C_8  and  C_9
REMARK    5  A    between atoms: N_11  and  C_12
REMARK    6  A    between atoms: C_17  and  O_18
REMARK    7  A    between atoms: O_18  and  C_19
REMARK    8  A    between atoms: C_20  and  C_21
REMARK    9  A    between atoms: C_22  and  C_23
REMARK   10  A    between atoms: C_23  and  O_25
REMARK   11  A    between atoms: O_25  and  C_26
REMARK                            x       y       z     vdW  Elec       q    Type
REMARK                         _______ _______ _______ _____ _____    ______ ____
ROOT
ATOM      1  C   UNL     1       1.054   9.584  19.186  0.00  0.00    +0.000 A 
ATOM      2  S   UNL     1       2.102   9.037  17.984  0.00  0.00    +0.000 S 
ATOM      3  C   UNL     1       2.359   7.534  18.739  0.00  0.00    +0.000 A 
ATOM      4  C   UNL     1       1.798   7.514  20.016  0.00  0.00    +0.000 A 
ATOM      5  C   UNL     1       1.939   6.374  20.987  0.00  0.00    +0.000 C 
ATOM      6  C   UNL     1       0.989   8.715  20.263  0.00  0.00    +0.000 A 
ENDROOT
BRANCH   1   9
ATOM      7  C   UNL     1      -0.887  10.988  18.556  0.00  0.00    +0.000 C 
ATOM      8  O   UNL     1      -1.677  10.110  18.227  0.00  0.00    +0.000 OA
ATOM      9  N   UNL     1       0.406  10.810  19.031  0.00  0.00    +0.000 N 
ATOM     10  H   UNL     1       0.894  11.613  19.425  0.00  0.00    +0.000 HD
BRANCH   7  12
ATOM     11  C   UNL     1      -0.895  13.195  19.753  0.00  0.00    +0.000 C 
ATOM     12  C   UNL     1      -1.269  12.454  18.474  0.00  0.00    +0.000 C 
ENDBRANCH   7  12
ENDBRANCH   1   9
BRANCH   3  13
ATOM     13  C   UNL     1       3.104   6.491  18.032  0.00  0.00    +0.000 C 
ATOM     14  O   UNL     1       2.637   5.379  17.808  0.00  0.00    +0.000 OA
ATOM     15  N   UNL     1       4.392   6.854  17.654  0.00  0.00    +0.000 N 
ATOM     16  H   UNL     1       4.782   7.684  18.075  0.00  0.00    +0.000 HD
BRANCH  15  17
ATOM     17  C   UNL     1       5.266   6.017  16.936  0.00  0.00    +0.000 A 
ATOM     18  C   UNL     1       5.169   5.963  15.539  0.00  0.00    +0.000 A 
ATOM     19  C   UNL     1       6.061   5.200  14.788  0.00  0.00    +0.000 A 
ATOM     20  C   UNL     1       7.050   4.467  15.432  0.00  0.00    +0.000 A 
ATOM     21  C   UNL     1       7.166   4.526  16.822  0.00  0.00    +0.000 A 
ATOM     22  C   UNL     1       6.289   5.306  17.587  0.00  0.00    +0.000 A 
BRANCH  22  23
ATOM     23  O   UNL     1       6.557   5.302  18.930  0.00  0.00    +0.000 OA
ATOM     24  C   UNL     1       7.837   5.776  19.334  0.00  0.00    +0.000 C 
ENDBRANCH  22  23
ENDBRANCH  15  17
ENDBRANCH   3  13
BRANCH   6  25
ATOM     25  C   UNL     1       0.152   8.994  21.440  0.00  0.00    +0.000 C 
ATOM     26  O   UNL     1      -0.749   8.245  21.807  0.00  0.00    +0.000 OA
BRANCH  25  27
ATOM     27  O   UNL     1       0.506  10.137  22.094  0.00  0.00    +0.000 OA
ATOM     28  C   UNL     1      -0.565  10.881  22.674  0.00  0.00    +0.000 C 
ENDBRANCH  25  27
ENDBRANCH   6  25
TORSDOF 7
ENDMDL
MODEL 2
REMARK VINA RESULT:      -6.8      1.922      7.987
REMARK  Name = 
REMARK  11 active torsions:
REMARK  status: ('A' for Active; 'I' for Inactive)
REMARK    1  A    between atoms: C_1  and  C_2
REMARK    2  A    between atoms: C_2  and  C_3
REMARK    3  A    between atoms: N_5  and  C_6
REMARK    4  A    between atoms: C_8  and  C_9
REMARK    5  A    between atoms: N_11  and  C_12
REMARK    6  A    between atoms: C_17  and  O_18
REMARK    7  A    between atoms: O_18  and  C_19
REMARK    8  A    between atoms: C_20  and  C_21
REMARK    9  A    between atoms: C_22  and  C_23
REMARK   10  A    between atoms: C_23  and  O_25
REMARK   11  A    between atoms: O_25  and  C_26
REMARK                            x       y       z     vdW  Elec       q    Type
REMARK                         _______ _______ _______ _____ _____    ______ ____
ROOT
ATOM      1  C   UNL     1       4.089   5.641  17.695  0.00  0.00    +0.000 A 
ATOM      2  S   UNL     1       3.427   7.173  17.454  0.00  0.00    +0.000 S 
ATOM      3  C   UNL     1       2.516   7.125  18.890  0.00  0.00    +0.000 A 
ATOM      4  C   UNL     1       2.559   5.857  19.467  0.00  0.00    +0.000 A 
ATOM      5  C   UNL     1       1.775   5.451  20.685  0.00  0.00    +0.000 C 
ATOM      6  C   UNL     1       3.527   4.990  18.780  0.00  0.00    +0.000 A 
ENDROOT
BRANCH   1   9
ATOM      7  C   UNL     1       6.395   5.553  16.793  0.00  0.00    +0.000 C 
ATOM      8  O   UNL     1       6.942   6.346  17.552  0.00  0.00    +0.000 OA
ATOM      9  N   UNL     1       5.061   5.164  16.815  0.00  0.00    +0.000 N 
ATOM     10  H   UNL     1       4.776   4.375  16.238  0.00  0.00    +0.000 HD
BRANCH   7  12
ATOM     11  C   UNL     1       6.278   4.576  14.484  0.00  0.00    +0.000 C 
ATOM     12  C   UNL     1       7.172   4.870  15.684  0.00  0.00    +0.000 C 
ENDBRANCH   7  12
ENDBRANCH   1   9
BRANCH   3  13
ATOM     13  C   UNL     1       1.813   8.329  19.337  0.00  0.00    +0.000 C 
ATOM     14  O   UNL     1       1.511   8.523  20.511  0.00  0.00    +0.000 OA
ATOM     15  N   UNL     1       1.494   9.225  18.322  0.00  0.00    +0.000 N 
ATOM     16  H   UNL     1       1.561   8.892  17.373  0.00  0.00    +0.000 HD
BRANCH  15  17
ATOM     17  C   UNL     1       0.850  10.458  18.535  0.00  0.00    +0.000 A 
ATOM     18  C   UNL     1       1.610  11.567  18.930  0.00  0.00    +0.000 A 
ATOM     19  C   UNL     1       1.020  12.821  19.083  0.00  0.00    +0.000 A 
ATOM     20  C   UNL     1      -0.343  12.971  18.862  0.00  0.00    +0.000 A 
ATOM     21  C   UNL     1      -1.106  11.876  18.453  0.00  0.00    +0.000 A 
ATOM     22  C   UNL     1      -0.521  10.615  18.274  0.00  0.00    +0.000 A 
BRANCH  22  23
ATOM     23  O   UNL     1      -1.385   9.652  17.825  0.00  0.00    +0.000 OA
ATOM     24  C   UNL     1      -2.262  10.016  16.764  0.00  0.00    +0.000 C 
ENDBRANCH  22  23
ENDBRANCH  15  17
ENDBRANCH   3  13
BRANCH   6  25
ATOM     25  C   UNL     1       3.934   3.632  19.171  0.00  0.00    +0.000 C 
ATOM     26  O   UNL     1       5.077   3.358  19.527  0.00  0.00    +0.000 OA
BRANCH  25  27
ATOM     27  O   UNL     1       2.913   2.730  19.133  0.00  0.00    +0.000 OA
ATOM     28  C   UNL     1       2.543   2.257  17.838  0.00  0.00    +0.000 C 
ENDBRANCH  25  27
ENDBRANCH   6  25
TORSDOF 7
ENDMDL
MODEL 3
REMARK VINA RESULT:      -6.6      2.221      7.970
REMARK  Name = 
REMARK  11 active torsions:
REMARK  status: ('A' for Active; 'I' for Inactive)
REMARK    1  A    between atoms: C_1  and  C_2
REMARK    2  A    between atoms: C_2  and  C_3
REMARK    3  A    between atoms: N_5  and  C_6
REMARK    4  A    between atoms: C_8  and  C_9
REMARK    5  A    between atoms: N_11  and  C_12
REMARK    6  A    between atoms: C_17  and  O_18
REMARK    7  A    between atoms: O_18  and  C_19
REMARK    8  A    between atoms: C_20  and  C_21
REMARK    9  A    between atoms: C_22  and  C_23
REMARK   10  A    between atoms: C_23  and  O_25
REMARK   11  A    between atoms: O_25  and  C_26
REMARK                            x       y       z     vdW  Elec       q    Type
REMARK                         _______ _______ _______ _____ _____    ______ ____
ROOT
ATOM      1  C   UNL     1       4.170   5.643  17.665  0.00  0.00    +0.000 A 
ATOM      2  S   UNL     1       3.420   7.153  17.691  0.00  0.00    +0.000 S 
ATOM      3  C   UNL     1       2.627   6.855  19.166  0.00  0.00    +0.000 A 
ATOM      4  C   UNL     1       2.775   5.524  19.554  0.00  0.00    +0.000 A 
ATOM      5  C   UNL     1       2.108   4.910  20.754  0.00  0.00    +0.000 C 
ATOM      6  C   UNL     1       3.725   4.817  18.684  0.00  0.00    +0.000 A 
ENDROOT
BRANCH   1   9
ATOM      7  C   UNL     1       6.473   5.335  16.806  0.00  0.00    +0.000 C 
ATOM      8  O   UNL     1       7.106   5.547  17.835  0.00  0.00    +0.000 OA
ATOM      9  N   UNL     1       5.091   5.348  16.659  0.00  0.00    +0.000 N 
ATOM     10  H   UNL     1       4.691   4.992  15.793  0.00  0.00    +0.000 HD
BRANCH   7  12
ATOM     11  C   UNL     1       6.347   4.080  14.635  0.00  0.00    +0.000 C 
ATOM     12  C   UNL     1       7.183   5.013  15.504  0.00  0.00    +0.000 C 
ENDBRANCH   7  12
ENDBRANCH   1   9
BRANCH   3  13
ATOM     13  C   UNL     1       1.904   7.943  19.828  0.00  0.00    +0.000 C 
ATOM     14  O   UNL     1       1.665   7.944  21.032  0.00  0.00    +0.000 OA
ATOM     15  N   UNL     1       1.491   8.965  18.980  0.00  0.00    +0.000 N 
ATOM     16  H   UNL     1       1.515   8.782  17.988  0.00  0.00    +0.000 HD
BRANCH  15  17
ATOM     17  C   UNL     1       0.813  10.120  19.412  0.00  0.00    +0.000 A 
ATOM     18  C   UNL     1      -0.235   9.994  20.332  0.00  0.00    +0.000 A 
ATOM     19  C   UNL     1      -0.885  11.119  20.836  0.00  0.00    +0.000 A 
ATOM     20  C   UNL     1      -0.502  12.383  20.407  0.00  0.00    +0.000 A 
ATOM     21  C   UNL     1       0.552  12.521  19.502  0.00  0.00    +0.000 A 
ATOM     22  C   UNL     1       1.227  11.399  19.004  0.00  0.00    +0.000 A 
BRANCH  22  23
ATOM     23  O   UNL     1       2.267  11.695  18.165  0.00  0.00    +0.000 OA
ATOM     24  C   UNL     1       2.768  13.028  18.201  0.00  0.00    +0.000 C 
ENDBRANCH  22  23
ENDBRANCH  15  17
ENDBRANCH   3  13
BRANCH   6  25
ATOM     25  C   UNL     1       4.226   3.444  18.848  0.00  0.00    +0.000 C 
ATOM     26  O   UNL     1       4.862   3.083  19.835  0.00  0.00    +0.000 OA
BRANCH  25  27
ATOM     27  O   UNL     1       3.879   2.617  17.822  0.00  0.00    +0.000 OA
ATOM     28  C   UNL     1       2.486   2.338  17.688  0.00  0.00    +0.000 C 
ENDBRANCH  25  27
ENDBRANCH   6  25
TORSDOF 7
ENDMDL
MODEL 4
REMARK VINA RESULT:      -6.5      2.023      7.878
REMARK  Name = 
REMARK  11 active torsions:
REMARK  status: ('A' for Active; 'I' for Inactive)
REMARK    1  A    between atoms: C_1  and  C_2
REMARK    2  A    between atoms: C_2  and  C_3
REMARK    3  A    between atoms: N_5  and  C_6
REMARK    4  A    between atoms: C_8  and  C_9
REMARK    5  A    between atoms: N_11  and  C_12
REMARK    6  A    between atoms: C_17  and  O_18
REMARK    7  A    between atoms: O_18  and  C_19
REMARK    8  A    between atoms: C_20  and  C_21
REMARK    9  A    between atoms: C_22  and  C_23
REMARK   10  A    between atoms: C_23  and  O_25
REMARK   11  A    between atoms: O_25  and  C_26
REMARK                            x       y       z     vdW  Elec       q    Type
REMARK                         _______ _______ _______ _____ _____    ______ ____
ROOT
ATOM      1  C   UNL     1       4.350   6.224  17.819  0.00  0.00    +0.000 A 
ATOM      2  S   UNL     1       3.486   7.650  17.564  0.00  0.00    +0.000 S 
ATOM      3  C   UNL     1       2.469   7.403  18.904  0.00  0.00    +0.000 A 
ATOM      4  C   UNL     1       2.653   6.131  19.444  0.00  0.00    +0.000 A 
ATOM      5  C   UNL     1       1.834   5.559  20.569  0.00  0.00    +0.000 C 
ATOM      6  C   UNL     1       3.798   5.449  18.825  0.00  0.00    +0.000 A 
ENDROOT
BRANCH   1   9
ATOM      7  C   UNL     1       5.491   5.010  15.986  0.00  0.00    +0.000 C 
ATOM      8  O   UNL     1       4.559   4.321  15.585  0.00  0.00    +0.000 OA
ATOM      9  N   UNL     1       5.457   5.937  17.021  0.00  0.00    +0.000 N 
ATOM     10  H   UNL     1       6.254   6.560  17.141  0.00  0.00    +0.000 HD
BRANCH   7  12
ATOM     11  C   UNL     1       6.780   4.336  13.940  0.00  0.00    +0.000 C 
ATOM     12  C   UNL     1       6.864   4.915  15.348  0.00  0.00    +0.000 C 
ENDBRANCH   7  12
ENDBRANCH   1   9
BRANCH   3  13
ATOM     13  C   UNL     1       1.553   8.468  19.319  0.00  0.00    +0.000 C 
ATOM     14  O   UNL     1       1.247   8.659  20.492  0.00  0.00    +0.000 OA
ATOM     15  N   UNL     1       1.042   9.232  18.276  0.00  0.00    +0.000 N 
ATOM     16  H   UNL     1       1.150   8.870  17.341  0.00  0.00    +0.000 HD
BRANCH  15  17
ATOM     17  C   UNL     1       0.173  10.324  18.454  0.00  0.00    +0.000 A 
ATOM     18  C   UNL     1      -1.208  10.131  18.318  0.00  0.00    +0.000 A 
ATOM     19  C   UNL     1      -2.104  11.171  18.555  0.00  0.00    +0.000 A 
ATOM     20  C   UNL     1      -1.623  12.425  18.911  0.00  0.00    +0.000 A 
ATOM     21  C   UNL     1      -0.250  12.625  19.065  0.00  0.00    +0.000 A 
ATOM     22  C   UNL     1       0.660  11.581  18.852  0.00  0.00    +0.000 A 
BRANCH  22  23
ATOM     23  O   UNL     1       1.966  11.916  19.088  0.00  0.00    +0.000 OA
ATOM     24  C   UNL     1       2.606  12.741  18.119  0.00  0.00    +0.000 C 
ENDBRANCH  22  23
ENDBRANCH  15  17
ENDBRANCH   3  13
BRANCH   6  25
ATOM     25  C   UNL     1       4.372   4.150  19.211  0.00  0.00    +0.000 C 
ATOM     26  O   UNL     1       5.570   3.991  19.427  0.00  0.00    +0.000 OA
BRANCH  25  27
ATOM     27  O   UNL     1       3.438   3.166  19.340  0.00  0.00    +0.000 OA
ATOM     28  C   UNL     1       2.936   2.618  18.121  0.00  0.00    +0.000 C 
ENDBRANCH  25  27
ENDBRANCH   6  25
TORSDOF 7
ENDMDL
MODEL 5
REMARK VINA RESULT:      -6.5      2.273      7.960
REMARK  Name = 
REMARK  11 active torsions:
REMARK  status: ('A' for Active; 'I' for Inactive)
REMARK    1  A    between atoms: C_1  and  C_2
REMARK    2  A    between atoms: C_2  and  C_3
REMARK    3  A    between atoms: N_5  and  C_6
REMARK    4  A    between atoms: C_8  and  C_9
REMARK    5  A    between atoms: N_11  and  C_12
REMARK    6  A    between atoms: C_17  and  O_18
REMARK    7  A    between atoms: O_18  and  C_19
REMARK    8  A    between atoms: C_20  and  C_21
REMARK    9  A    between atoms: C_22  and  C_23
REMARK   10  A    between atoms: C_23  and  O_25
REMARK   11  A    between atoms: O_25  and  C_26
REMARK                            x       y       z     vdW  Elec       q    Type
REMARK                         _______ _______ _______ _____ _____    ______ ____
ROOT
ATOM      1  C   UNL     1       3.922   5.550  17.796  0.00  0.00    +0.000 A 
ATOM      2  S   UNL     1       3.466   7.173  17.802  0.00  0.00    +0.000 S 
ATOM      3  C   UNL     1       2.400   6.982  19.113  0.00  0.00    +0.000 A 
ATOM      4  C   UNL     1       2.236   5.635  19.433  0.00  0.00    +0.000 A 
ATOM      5  C   UNL     1       1.279   5.119  20.473  0.00  0.00    +0.000 C 
ATOM      6  C   UNL     1       3.172   4.790  18.678  0.00  0.00    +0.000 A 
ENDROOT
BRANCH   1   9
ATOM      7  C   UNL     1       6.196   4.696  17.309  0.00  0.00    +0.000 C 
ATOM      8  O   UNL     1       6.629   4.602  18.452  0.00  0.00    +0.000 OA
ATOM      9  N   UNL     1       4.928   5.119  16.930  0.00  0.00    +0.000 N 
ATOM     10  H   UNL     1       4.642   4.991  15.961  0.00  0.00    +0.000 HD
BRANCH   7  12
ATOM     11  C   UNL     1       6.203   4.024  14.890  0.00  0.00    +0.000 C 
ATOM     12  C   UNL     1       7.058   4.334  16.114  0.00  0.00    +0.000 C 
ENDBRANCH   7  12
ENDBRANCH   1   9
BRANCH   3  13
ATOM     13  C   UNL     1       1.788   8.165  19.723  0.00  0.00    +0.000 C 
ATOM     14  O   UNL     1       1.764   8.348  20.936  0.00  0.00    +0.000 OA
ATOM     15  N   UNL     1       1.219   9.054  18.819  0.00  0.00    +0.000 N 
ATOM     16  H   UNL     1       1.071   8.726  17.877  0.00  0.00    +0.000 HD
BRANCH  15  17
ATOM     17  C   UNL     1       0.610  10.268  19.187  0.00  0.00    +0.000 A 
ATOM     18  C   UNL     1      -0.564  10.242  19.950  0.00  0.00    +0.000 A 
ATOM     19  C   UNL     1      -1.158  11.422  20.393  0.00  0.00    +0.000 A 
ATOM     20  C   UNL     1      -0.590  12.645  20.057  0.00  0.00    +0.000 A 
ATOM     21  C   UNL     1       0.588  12.683  19.310  0.00  0.00    +0.000 A 
ATOM     22  C   UNL     1       1.207  11.502  18.878  0.00  0.00    +0.000 A 
BRANCH  22  23
ATOM     23  O   UNL     1       2.379  11.698  18.198  0.00  0.00    +0.000 OA
ATOM     24  C   UNL     1       2.884  13.028  18.150  0.00  0.00    +0.000 C 
ENDBRANCH  22  23
ENDBRANCH  15  17
ENDBRANCH   3  13
BRANCH   6  25
ATOM     25  C   UNL     1       3.379   3.342  18.830  0.00  0.00    +0.000 C 
ATOM     26  O   UNL     1       3.284   2.555  17.892  0.00  0.00    +0.000 OA
BRANCH  25  27
ATOM     27  O   UNL     1       3.723   2.976  20.097  0.00  0.00    +0.000 OA
ATOM     28  C   UNL     1       4.688   1.930  20.206  0.00  0.00    +0.000 C 
ENDBRANCH  25  27
ENDBRANCH   6  25
TORSDOF 7
ENDMDL
MODEL 6
REMARK VINA RESULT:      -6.5      2.577      8.284
REMARK  Name = 
REMARK  11 active torsions:
REMARK  status: ('A' for Active; 'I' for Inactive)
REMARK    1  A    between atoms: C_1  and  C_2
REMARK    2  A    between atoms: C_2  and  C_3
REMARK    3  A    between atoms: N_5  and  C_6
REMARK    4  A    between atoms: C_8  and  C_9
REMARK    5  A    between atoms: N_11  and  C_12
REMARK    6  A    between atoms: C_17  and  O_18
REMARK    7  A    between atoms: O_18  and  C_19
REMARK    8  A    between atoms: C_20  and  C_21
REMARK    9  A    between atoms: C_22  and  C_23
REMARK   10  A    between atoms: C_23  and  O_25
REMARK   11  A    between atoms: O_25  and  C_26
REMARK                            x       y       z     vdW  Elec       q    Type
REMARK                         _______ _______ _______ _____ _____    ______ ____
ROOT
ATOM      1  C   UNL     1       4.298   4.575  18.987  0.00  0.00    +0.000 A 
ATOM      2  S   UNL     1       3.376   5.983  18.887  0.00  0.00    +0.000 S 
ATOM      3  C   UNL     1       2.265   5.471  20.069  0.00  0.00    +0.000 A 
ATOM      4  C   UNL     1       2.478   4.136  20.410  0.00  0.00    +0.000 A 
ATOM      5  C   UNL     1       1.603   3.349  21.346  0.00  0.00    +0.000 C 
ATOM      6  C   UNL     1       3.710   3.619  19.799  0.00  0.00    +0.000 A 
ENDROOT
BRANCH   1   9
ATOM      7  C   UNL     1       6.738   4.885  18.695  0.00  0.00    +0.000 C 
ATOM      8  O   UNL     1       7.015   5.370  19.786  0.00  0.00    +0.000 OA
ATOM      9  N   UNL     1       5.484   4.474  18.260  0.00  0.00    +0.000 N 
ATOM     10  H   UNL     1       5.421   3.936  17.397  0.00  0.00    +0.000 HD
BRANCH   7  12
ATOM     11  C   UNL     1       7.203   4.614  16.242  0.00  0.00    +0.000 C 
ATOM     12  C   UNL     1       7.808   4.669  17.641  0.00  0.00    +0.000 C 
ENDBRANCH   7  12
ENDBRANCH   1   9
BRANCH   3  13
ATOM     13  C   UNL     1       1.256   6.410  20.563  0.00  0.00    +0.000 C 
ATOM     14  O   UNL     1       0.100   6.075  20.802  0.00  0.00    +0.000 OA
ATOM     15  N   UNL     1       1.706   7.716  20.721  0.00  0.00    +0.000 N 
ATOM     16  H   UNL     1       2.584   7.958  20.287  0.00  0.00    +0.000 HD
BRANCH  15  17
ATOM     17  C   UNL     1       0.913   8.767  21.216  0.00  0.00    +0.000 A 
ATOM     18  C   UNL     1       0.729   8.894  22.599  0.00  0.00    +0.000 A 
ATOM     19  C   UNL     1       0.008   9.961  23.131  0.00  0.00    +0.000 A 
ATOM     20  C   UNL     1      -0.555  10.903  22.279  0.00  0.00    +0.000 A 
ATOM     21  C   UNL     1      -0.364  10.795  20.901  0.00  0.00    +0.000 A 
ATOM     22  C   UNL     1       0.377   9.739  20.355  0.00  0.00    +0.000 A 
BRANCH  22  23
ATOM     23  O   UNL     1       0.517   9.794  18.994  0.00  0.00    +0.000 OA
ATOM     24  C   UNL     1      -0.545  10.395  18.259  0.00  0.00    +0.000 C 
ENDBRANCH  22  23
ENDBRANCH  15  17
ENDBRANCH   3  13
BRANCH   6  25
ATOM     25  C   UNL     1       4.325   2.301  20.020  0.00  0.00    +0.000 C 
ATOM     26  O   UNL     1       4.873   1.993  21.075  0.00  0.00    +0.000 OA
BRANCH  25  27
ATOM     27  O   UNL     1       4.188   1.457  18.959  0.00  0.00    +0.000 OA
ATOM     28  C   UNL     1       3.059   1.688  18.118  0.00  0.00    +0.000 C 
ENDBRANCH  25  27
ENDBRANCH   6  25
TORSDOF 7
ENDMDL
MODEL 7
REMARK VINA RESULT:      -6.4      1.889      8.100
REMARK  Name = 
REMARK  11 active torsions:
REMARK  status: ('A' for Active; 'I' for Inactive)
REMARK    1  A    between atoms: C_1  and  C_2
REMARK    2  A    between atoms: C_2  and  C_3
REMARK    3  A    between atoms: N_5  and  C_6
REMARK    4  A    between atoms: C_8  and  C_9
REMARK    5  A    between atoms: N_11  and  C_12
REMARK    6  A    between atoms: C_17  and  O_18
REMARK    7  A    between atoms: O_18  and  C_19
REMARK    8  A    between atoms: C_20  and  C_21
REMARK    9  A    between atoms: C_22  and  C_23
REMARK   10  A    between atoms: C_23  and  O_25
REMARK   11  A    between atoms: O_25  and  C_26
REMARK                            x       y       z     vdW  Elec       q    Type
REMARK                         _______ _______ _______ _____ _____    ______ ____
ROOT
ATOM      1  C   UNL     1       3.956   5.760  17.580  0.00  0.00    +0.000 A 
ATOM      2  S   UNL     1       3.339   7.327  17.673  0.00  0.00    +0.000 S 
ATOM      3  C   UNL     1       2.437   7.006  19.078  0.00  0.00    +0.000 A 
ATOM      4  C   UNL     1       2.444   5.644  19.377  0.00  0.00    +0.000 A 
ATOM      5  C   UNL     1       1.656   5.015  20.494  0.00  0.00    +0.000 C 
ATOM      6  C   UNL     1       3.380   4.913  18.512  0.00  0.00    +0.000 A 
ENDROOT
BRANCH   1   9
ATOM      7  C   UNL     1       6.277   5.350  16.817  0.00  0.00    +0.000 C 
ATOM      8  O   UNL     1       6.870   5.487  17.881  0.00  0.00    +0.000 OA
ATOM      9  N   UNL     1       4.907   5.450  16.607  0.00  0.00    +0.000 N 
ATOM     10  H   UNL     1       4.530   5.150  15.710  0.00  0.00    +0.000 HD
BRANCH   7  12
ATOM     11  C   UNL     1       6.142   4.300  14.540  0.00  0.00    +0.000 C 
ATOM     12  C   UNL     1       7.029   5.037  15.538  0.00  0.00    +0.000 C 
ENDBRANCH   7  12
ENDBRANCH   1   9
BRANCH   3  13
ATOM     13  C   UNL     1       1.773   8.109  19.776  0.00  0.00    +0.000 C 
ATOM     14  O   UNL     1       1.626   8.130  20.994  0.00  0.00    +0.000 OA
ATOM     15  N   UNL     1       1.303   9.121  18.946  0.00  0.00    +0.000 N 
ATOM     16  H   UNL     1       1.251   8.922  17.958  0.00  0.00    +0.000 HD
BRANCH  15  17
ATOM     17  C   UNL     1       0.667  10.287  19.410  0.00  0.00    +0.000 A 
ATOM     18  C   UNL     1       1.421  11.253  20.089  0.00  0.00    +0.000 A 
ATOM     19  C   UNL     1       0.842  12.452  20.503  0.00  0.00    +0.000 A 
ATOM     20  C   UNL     1      -0.505  12.686  20.257  0.00  0.00    +0.000 A 
ATOM     21  C   UNL     1      -1.261  11.736  19.567  0.00  0.00    +0.000 A 
ATOM     22  C   UNL     1      -0.686  10.537  19.127  0.00  0.00    +0.000 A 
BRANCH  22  23
ATOM     23  O   UNL     1      -1.539   9.729  18.424  0.00  0.00    +0.000 OA
ATOM     24  C   UNL     1      -2.010  10.220  17.173  0.00  0.00    +0.000 C 
ENDBRANCH  22  23
ENDBRANCH  15  17
ENDBRANCH   3  13
BRANCH   6  25
ATOM     25  C   UNL     1       3.749   3.491  18.605  0.00  0.00    +0.000 C 
ATOM     26  O   UNL     1       3.220   2.622  17.917  0.00  0.00    +0.000 OA
BRANCH  25  27
ATOM     27  O   UNL     1       4.753   3.252  19.495  0.00  0.00    +0.000 OA
ATOM     28  C   UNL     1       4.585   2.109  20.333  0.00  0.00    +0.000 C 
ENDBRANCH  25  27
ENDBRANCH   6  25
TORSDOF 7
ENDMDL
MODEL 8
REMARK VINA RESULT:      -6.4      2.571      8.561
REMARK  Name = 
REMARK  11 active torsions:
REMARK  status: ('A' for Active; 'I' for Inactive)
REMARK    1  A    between atoms: C_1  and  C_2
REMARK    2  A    between atoms: C_2  and  C_3
REMARK    3  A    between atoms: N_5  and  C_6
REMARK    4  A    between atoms: C_8  and  C_9
REMARK    5  A    between atoms: N_11  and  C_12
REMARK    6  A    between atoms: C_17  and  O_18
REMARK    7  A    between atoms: O_18  and  C_19
REMARK    8  A    between atoms: C_20  and  C_21
REMARK    9  A    between atoms: C_22  and  C_23
REMARK   10  A    between atoms: C_23  and  O_25
REMARK   11  A    between atoms: O_25  and  C_26
REMARK                            x       y       z     vdW  Elec       q    Type
REMARK                         _______ _______ _______ _____ _____    ______ ____
ROOT
ATOM      1  C   UNL     1       2.209   6.636  20.218  0.00  0.00    +0.000 A 
ATOM      2  S   UNL     1       1.317   7.651  21.226  0.00  0.00    +0.000 S 
ATOM      3  C   UNL     1       1.096   8.834  20.025  0.00  0.00    +0.000 A 
ATOM      4  C   UNL     1       1.869   8.553  18.898  0.00  0.00    +0.000 A 
ATOM      5  C   UNL     1       1.984   9.456  17.701  0.00  0.00    +0.000 C 
ATOM      6  C   UNL     1       2.496   7.228  18.998  0.00  0.00    +0.000 A 
ENDROOT
BRANCH   1   9
ATOM      7  C   UNL     1       1.787   4.250  20.732  0.00  0.00    +0.000 C 
ATOM      8  O   UNL     1       0.620   4.165  20.366  0.00  0.00    +0.000 OA
ATOM      9  N   UNL     1       2.598   5.377  20.675  0.00  0.00    +0.000 N 
ATOM     10  H   UNL     1       3.594   5.268  20.855  0.00  0.00    +0.000 HD
BRANCH   7  12
ATOM     11  C   UNL     1       3.654   2.601  20.416  0.00  0.00    +0.000 C 
ATOM     12  C   UNL     1       2.511   3.054  21.319  0.00  0.00    +0.000 C 
ENDBRANCH   7  12
ENDBRANCH   1   9
BRANCH   3  13
ATOM     13  C   UNL     1       0.195   9.960  20.278  0.00  0.00    +0.000 C 
ATOM     14  O   UNL     1      -0.704  10.277  19.504  0.00  0.00    +0.000 OA
ATOM     15  N   UNL     1       0.451  10.654  21.456  0.00  0.00    +0.000 N 
ATOM     16  H   UNL     1       1.336  10.485  21.910  0.00  0.00    +0.000 HD
BRANCH  15  17
ATOM     17  C   UNL     1      -0.314  11.744  21.908  0.00  0.00    +0.000 A 
ATOM     18  C   UNL     1      -1.390  11.513  22.776  0.00  0.00    +0.000 A 
ATOM     19  C   UNL     1      -2.128  12.573  23.300  0.00  0.00    +0.000 A 
ATOM     20  C   UNL     1      -1.807  13.876  22.944  0.00  0.00    +0.000 A 
ATOM     21  C   UNL     1      -0.727  14.119  22.093  0.00  0.00    +0.000 A 
ATOM     22  C   UNL     1       0.036  13.064  21.576  0.00  0.00    +0.000 A 
BRANCH  22  23
ATOM     23  O   UNL     1       1.089  13.460  20.797  0.00  0.00    +0.000 OA
ATOM     24  C   UNL     1       1.979  14.422  21.354  0.00  0.00    +0.000 C 
ENDBRANCH  22  23
ENDBRANCH  15  17
ENDBRANCH   3  13
BRANCH   6  25
ATOM     25  C   UNL     1       3.280   6.537  17.963  0.00  0.00    +0.000 C 
ATOM     26  O   UNL     1       4.284   7.028  17.453  0.00  0.00    +0.000 OA
BRANCH  25  27
ATOM     27  O   UNL     1       2.805   5.296  17.664  0.00  0.00    +0.000 OA
ATOM     28  C   UNL     1       3.762   4.364  17.161  0.00  0.00    +0.000 C 
ENDBRANCH  25  27
ENDBRANCH   6  25
TORSDOF 7
ENDMDL
MODEL 9
REMARK VINA RESULT:      -6.4      2.295      8.193
REMARK  Name = 
REMARK  11 active torsions:
REMARK  status: ('A' for Active; 'I' for Inactive)
REMARK    1  A    between atoms: C_1  and  C_2
REMARK    2  A    between atoms: C_2  and  C_3
REMARK    3  A    between atoms: N_5  and  C_6
REMARK    4  A    between atoms: C_8  and  C_9
REMARK    5  A    between atoms: N_11  and  C_12
REMARK    6  A    between atoms: C_17  and  O_18
REMARK    7  A    between atoms: O_18  and  C_19
REMARK    8  A    between atoms: C_20  and  C_21
REMARK    9  A    between atoms: C_22  and  C_23
REMARK   10  A    between atoms: C_23  and  O_25
REMARK   11  A    between atoms: O_25  and  C_26
REMARK                            x       y       z     vdW  Elec       q    Type
REMARK                         _______ _______ _______ _____ _____    ______ ____
ROOT
ATOM      1  C   UNL     1       2.059   6.534  20.342  0.00  0.00    +0.000 A 
ATOM      2  S   UNL     1       1.202   7.762  21.117  0.00  0.00    +0.000 S 
ATOM      3  C   UNL     1       1.198   8.773  19.749  0.00  0.00    +0.000 A 
ATOM      4  C   UNL     1       2.021   8.261  18.746  0.00  0.00    +0.000 A 
ATOM      5  C   UNL     1       2.321   8.965  17.451  0.00  0.00    +0.000 C 
ATOM      6  C   UNL     1       2.498   6.912  19.084  0.00  0.00    +0.000 A 
ENDROOT
BRANCH   1   9
ATOM      7  C   UNL     1       1.520   4.170  20.852  0.00  0.00    +0.000 C 
ATOM      8  O   UNL     1       0.562   4.012  20.102  0.00  0.00    +0.000 OA
ATOM      9  N   UNL     1       2.279   5.325  21.002  0.00  0.00    +0.000 N 
ATOM     10  H   UNL     1       3.147   5.270  21.532  0.00  0.00    +0.000 HD
BRANCH   7  12
ATOM     11  C   UNL     1       3.265   2.396  21.184  0.00  0.00    +0.000 C 
ATOM     12  C   UNL     1       2.006   3.046  21.747  0.00  0.00    +0.000 C 
ENDBRANCH   7  12
ENDBRANCH   1   9
BRANCH   3  13
ATOM     13  C   UNL     1       0.401  10.001  19.763  0.00  0.00    +0.000 C 
ATOM     14  O   UNL     1      -0.810  10.008  19.565  0.00  0.00    +0.000 OA
ATOM     15  N   UNL     1       1.130  11.162  19.996  0.00  0.00    +0.000 N 
ATOM     16  H   UNL     1       2.133  11.103  19.913  0.00  0.00    +0.000 HD
BRANCH  15  17
ATOM     17  C   UNL     1       0.559  12.445  20.084  0.00  0.00    +0.000 A 
ATOM     18  C   UNL     1       0.494  13.246  18.937  0.00  0.00    +0.000 A 
ATOM     19  C   UNL     1      -0.126  14.494  18.968  0.00  0.00    +0.000 A 
ATOM     20  C   UNL     1      -0.672  14.960  20.157  0.00  0.00    +0.000 A 
ATOM     21  C   UNL     1      -0.627  14.163  21.303  0.00  0.00    +0.000 A 
ATOM     22  C   UNL     1      -0.026  12.898  21.279  0.00  0.00    +0.000 A 
BRANCH  22  23
ATOM     23  O   UNL     1      -0.103  12.216  22.463  0.00  0.00    +0.000 OA
ATOM     24  C   UNL     1      -1.337  11.570  22.757  0.00  0.00    +0.000 C 
ENDBRANCH  22  23
ENDBRANCH  15  17
ENDBRANCH   3  13
BRANCH   6  25
ATOM     25  C   UNL     1       3.284   6.009  18.229  0.00  0.00    +0.000 C 
ATOM     26  O   UNL     1       2.778   5.086  17.597  0.00  0.00    +0.000 OA
BRANCH  25  27
ATOM     27  O   UNL     1       4.608   6.327  18.184  0.00  0.00    +0.000 OA
ATOM     28  C   UNL     1       5.481   5.475  18.925  0.00  0.00    +0.000 C 
ENDBRANCH  25  27
ENDBRANCH   6  25
TORSDOF 7
ENDMDL
