MODEL 1
REMARK VINA RESULT:      -8.0      0.000      0.000
REMARK  Name = 
REMARK  5 active torsions:
REMARK  status: ('A' for Active; 'I' for Inactive)
REMARK    1  A    between atoms: C_1  and  O_2
REMARK    2  A    between atoms: O_2  and  C_3
REMARK    3  A    between atoms: C_15  and  N_16
REMARK    4  A    between atoms: N_16  and  C_17
REMARK    5  A    between atoms: C_17  and  C_18
REMARK                            x       y       z     vdW  Elec       q    Type
REMARK                         _______ _______ _______ _____ _____    ______ ____
ROOT
ATOM      1  C   UNL     1       3.491   2.972  20.021  0.00  0.00    +0.000 A 
ATOM      2  C   UNL     1       2.660   3.171  21.103  0.00  0.00    +0.000 A 
ATOM      3  C   UNL     1       2.049   4.418  21.262  0.00  0.00    +0.000 A 
ATOM      4  C   UNL     1       2.217   5.458  20.355  0.00  0.00    +0.000 A 
ATOM      5  N   UNL     1       1.578   6.597  20.635  0.00  0.00    +0.000 NA
ATOM      6  C   UNL     1       1.699   7.641  19.814  0.00  0.00    +0.000 A 
ATOM      7  C   UNL     1       1.026   8.800  20.173  0.00  0.00    +0.000 A 
ATOM      8  C   UNL     1       1.080   9.940  19.382  0.00  0.00    +0.000 A 
ATOM      9 CL   UNL     1       0.225  11.356  19.863  0.00  0.00    +0.000 Cl
ATOM     10  C   UNL     1       1.815   9.940  18.207  0.00  0.00    +0.000 A 
ATOM     11  C   UNL     1       2.499   8.780  17.831  0.00  0.00    +0.000 A 
ATOM     12  C   UNL     1       2.464   7.605  18.630  0.00  0.00    +0.000 A 
ATOM     13  C   UNL     1       3.128   6.379  18.301  0.00  0.00    +0.000 A 
ATOM     14  C   UNL     1       3.039   5.279  19.224  0.00  0.00    +0.000 A 
ATOM     15  C   UNL     1       3.700   4.025  19.134  0.00  0.00    +0.000 A 
ENDROOT
BRANCH   1  17
ATOM     16  C   UNL     1       3.817   1.174  18.528  0.00  0.00    +0.000 C 
ATOM     17  O   UNL     1       4.190   1.837  19.729  0.00  0.00    +0.000 OA
ENDBRANCH   1  17
BRANCH  13  18
ATOM     18  N   UNL     1       3.905   6.381  17.110  0.00  0.00    +0.000 N 
ATOM     19  H   UNL     1       3.752   7.257  16.613  0.00  0.00    +0.000 HD
BRANCH  18  20
ATOM     20  C   UNL     1       5.323   6.042  17.134  0.00  0.00    +0.000 C 
BRANCH  20  21
ATOM     21  C   UNL     1       5.759   5.349  15.868  0.00  0.00    +0.000 A 
ATOM     22  C   UNL     1       4.853   4.531  15.169  0.00  0.00    +0.000 A 
ATOM     23  C   UNL     1       5.231   3.914  13.976  0.00  0.00    +0.000 A 
ATOM     24  C   UNL     1       6.511   4.123  13.472  0.00  0.00    +0.000 A 
ATOM     25 CL   UNL     1       6.987   3.343  12.014  0.00  0.00    +0.000 Cl
ATOM     26  C   UNL     1       7.408   4.957  14.137  0.00  0.00    +0.000 A 
ATOM     27  C   UNL     1       7.031   5.574  15.330  0.00  0.00    +0.000 A 
ENDBRANCH  20  21
ENDBRANCH  18  20
ENDBRANCH  13  18
TORSDOF 4
ENDMDL
MODEL 2
REMARK VINA RESULT:      -7.9      1.666      6.813
REMARK  Name = 
REMARK  5 active torsions:
REMARK  status: ('A' for Active; 'I' for Inactive)
REMARK    1  A    between atoms: C_1  and  O_2
REMARK    2  A    between atoms: O_2  and  C_3
REMARK    3  A    between atoms: C_15  and  N_16
REMARK    4  A    between atoms: N_16  and  C_17
REMARK    5  A    between atoms: C_17  and  C_18
REMARK                            x       y       z     vdW  Elec       q    Type
REMARK                         _______ _______ _______ _____ _____    ______ ____
ROOT
ATOM      1  C   UNL     1       1.692   3.002  19.902  0.00  0.00    +0.000 A 
ATOM      2  C   UNL     1       2.072   1.836  19.271  0.00  0.00    +0.000 A 
ATOM      3  C   UNL     1       2.967   1.912  18.201  0.00  0.00    +0.000 A 
ATOM      4  C   UNL     1       3.518   3.111  17.765  0.00  0.00    +0.000 A 
ATOM      5  N   UNL     1       4.356   3.037  16.727  0.00  0.00    +0.000 NA
ATOM      6  C   UNL     1       4.916   4.149  16.249  0.00  0.00    +0.000 A 
ATOM      7  C   UNL     1       5.759   4.004  15.157  0.00  0.00    +0.000 A 
ATOM      8  C   UNL     1       6.399   5.098  14.589  0.00  0.00    +0.000 A 
ATOM      9 CL   UNL     1       7.442   4.873  13.237  0.00  0.00    +0.000 Cl
ATOM     10  C   UNL     1       6.205   6.368  15.110  0.00  0.00    +0.000 A 
ATOM     11  C   UNL     1       5.358   6.531  16.210  0.00  0.00    +0.000 A 
ATOM     12  C   UNL     1       4.686   5.426  16.801  0.00  0.00    +0.000 A 
ATOM     13  C   UNL     1       3.816   5.516  17.935  0.00  0.00    +0.000 A 
ATOM     14  C   UNL     1       3.171   4.319  18.405  0.00  0.00    +0.000 A 
ATOM     15  C   UNL     1       2.204   4.212  19.441  0.00  0.00    +0.000 A 
ENDROOT
BRANCH   1  17
ATOM     16  C   UNL     1       1.209   2.515  22.160  0.00  0.00    +0.000 C 
ATOM     17  O   UNL     1       0.809   3.117  20.936  0.00  0.00    +0.000 OA
ENDBRANCH   1  17
BRANCH  13  18
ATOM     18  N   UNL     1       3.591   6.819  18.458  0.00  0.00    +0.000 N 
ATOM     19  H   UNL     1       4.470   7.337  18.454  0.00  0.00    +0.000 HD
BRANCH  18  20
ATOM     20  C   UNL     1       2.499   7.651  17.966  0.00  0.00    +0.000 C 
BRANCH  20  21
ATOM     21  C   UNL     1       1.769   8.346  19.089  0.00  0.00    +0.000 A 
ATOM     22  C   UNL     1       1.782   7.791  20.381  0.00  0.00    +0.000 A 
ATOM     23  C   UNL     1       1.143   8.442  21.437  0.00  0.00    +0.000 A 
ATOM     24  C   UNL     1       0.502   9.656  21.206  0.00  0.00    +0.000 A 
ATOM     25 CL   UNL     1      -0.307  10.448  22.502  0.00  0.00    +0.000 Cl
ATOM     26  C   UNL     1       0.510  10.233  19.938  0.00  0.00    +0.000 A 
ATOM     27  C   UNL     1       1.149   9.582  18.882  0.00  0.00    +0.000 A 
ENDBRANCH  20  21
ENDBRANCH  18  20
ENDBRANCH  13  18
TORSDOF 4
ENDMDL
MODEL 3
REMARK VINA RESULT:      -7.6      5.180      8.143
REMARK  Name = 
REMARK  5 active torsions:
REMARK  status: ('A' for Active; 'I' for Inactive)
REMARK    1  A    between atoms: C_1  and  O_2
REMARK    2  A    between atoms: O_2  and  C_3
REMARK    3  A    between atoms: C_15  and  N_16
REMARK    4  A    between atoms: N_16  and  C_17
REMARK    5  A    between atoms: C_17  and  C_18
REMARK                            x       y       z     vdW  Elec       q    Type
REMARK                         _______ _______ _______ _____ _____    ______ ____
ROOT
ATOM      1  C   UNL     1      -2.992  10.494  16.443  0.00  0.00    +0.000 A 
ATOM      2  C   UNL     1      -4.237  11.066  16.602  0.00  0.00    +0.000 A 
ATOM      3  C   UNL     1      -4.521  11.737  17.794  0.00  0.00    +0.000 A 
ATOM      4  C   UNL     1      -3.589  11.884  18.815  0.00  0.00    +0.000 A 
ATOM      5  N   UNL     1      -3.998  12.544  19.902  0.00  0.00    +0.000 NA
ATOM      6  C   UNL     1      -3.161  12.716  20.926  0.00  0.00    +0.000 A 
ATOM      7  C   UNL     1      -3.655  13.393  22.031  0.00  0.00    +0.000 A 
ATOM      8  C   UNL     1      -2.861  13.632  23.145  0.00  0.00    +0.000 A 
ATOM      9 CL   UNL     1      -3.515  14.480  24.495  0.00  0.00    +0.000 Cl
ATOM     10  C   UNL     1      -1.547  13.194  23.172  0.00  0.00    +0.000 A 
ATOM     11  C   UNL     1      -1.033  12.510  22.066  0.00  0.00    +0.000 A 
ATOM     12  C   UNL     1      -1.831  12.248  20.919  0.00  0.00    +0.000 A 
ATOM     13  C   UNL     1      -1.368  11.566  19.747  0.00  0.00    +0.000 A 
ATOM     14  C   UNL     1      -2.298  11.335  18.674  0.00  0.00    +0.000 A 
ATOM     15  C   UNL     1      -2.069  10.597  17.481  0.00  0.00    +0.000 A 
ENDROOT
BRANCH   1  17
ATOM     16  C   UNL     1      -3.212  10.054  14.136  0.00  0.00    +0.000 C 
ATOM     17  O   UNL     1      -2.556   9.779  15.366  0.00  0.00    +0.000 OA
ENDBRANCH   1  17
BRANCH  13  18
ATOM     18  N   UNL     1      -0.029  11.091  19.779  0.00  0.00    +0.000 N 
ATOM     19  H   UNL     1       0.597  11.869  19.987  0.00  0.00    +0.000 HD
BRANCH  18  20
ATOM     20  C   UNL     1       0.336   9.913  20.557  0.00  0.00    +0.000 C 
BRANCH  20  21
ATOM     21  C   UNL     1       1.225   8.975  19.779  0.00  0.00    +0.000 A 
ATOM     22  C   UNL     1       1.654   7.770  20.364  0.00  0.00    +0.000 A 
ATOM     23  C   UNL     1       2.445   6.876  19.643  0.00  0.00    +0.000 A 
ATOM     24  C   UNL     1       2.800   7.177  18.332  0.00  0.00    +0.000 A 
ATOM     25 CL   UNL     1       3.796   6.087  17.449  0.00  0.00    +0.000 Cl
ATOM     26  C   UNL     1       2.355   8.353  17.729  0.00  0.00    +0.000 A 
ATOM     27  C   UNL     1       1.563   9.248  18.449  0.00  0.00    +0.000 A 
ENDBRANCH  20  21
ENDBRANCH  18  20
ENDBRANCH  13  18
TORSDOF 4
ENDMDL
MODEL 4
REMARK VINA RESULT:      -7.6      2.968      6.879
REMARK  Name = 
REMARK  5 active torsions:
REMARK  status: ('A' for Active; 'I' for Inactive)
REMARK    1  A    between atoms: C_1  and  O_2
REMARK    2  A    between atoms: O_2  and  C_3
REMARK    3  A    between atoms: C_15  and  N_16
REMARK    4  A    between atoms: N_16  and  C_17
REMARK    5  A    between atoms: C_17  and  C_18
REMARK                            x       y       z     vdW  Elec       q    Type
REMARK                         _______ _______ _______ _____ _____    ______ ____
ROOT
ATOM      1  C   UNL     1       6.109   5.038  15.004  0.00  0.00    +0.000 A 
ATOM      2  C   UNL     1       6.092   3.660  15.050  0.00  0.00    +0.000 A 
ATOM      3  C   UNL     1       5.391   3.030  16.081  0.00  0.00    +0.000 A 
ATOM      4  C   UNL     1       4.679   3.733  17.046  0.00  0.00    +0.000 A 
ATOM      5  N   UNL     1       4.059   3.002  17.977  0.00  0.00    +0.000 NA
ATOM      6  C   UNL     1       3.364   3.609  18.939  0.00  0.00    +0.000 A 
ATOM      7  C   UNL     1       2.763   2.792  19.886  0.00  0.00    +0.000 A 
ATOM      8  C   UNL     1       2.009   3.325  20.924  0.00  0.00    +0.000 A 
ATOM      9 CL   UNL     1       1.275   2.274  22.074  0.00  0.00    +0.000 Cl
ATOM     10  C   UNL     1       1.843   4.696  21.033  0.00  0.00    +0.000 A 
ATOM     11  C   UNL     1       2.443   5.533  20.088  0.00  0.00    +0.000 A 
ATOM     12  C   UNL     1       3.225   5.010  19.022  0.00  0.00    +0.000 A 
ATOM     13  C   UNL     1       3.857   5.805  18.012  0.00  0.00    +0.000 A 
ATOM     14  C   UNL     1       4.653   5.142  17.013  0.00  0.00    +0.000 A 
ATOM     15  C   UNL     1       5.437   5.750  15.995  0.00  0.00    +0.000 A 
ENDROOT
BRANCH   1  17
ATOM     16  C   UNL     1       7.552   5.116  13.140  0.00  0.00    +0.000 C 
ATOM     17  O   UNL     1       6.764   5.816  14.094  0.00  0.00    +0.000 OA
ENDBRANCH   1  17
BRANCH  13  18
ATOM     18  N   UNL     1       3.713   7.214  18.134  0.00  0.00    +0.000 N 
ATOM     19  H   UNL     1       4.618   7.657  17.976  0.00  0.00    +0.000 HD
BRANCH  18  20
ATOM     20  C   UNL     1       2.658   7.929  17.425  0.00  0.00    +0.000 C 
BRANCH  20  21
ATOM     21  C   UNL     1       1.793   8.734  18.363  0.00  0.00    +0.000 A 
ATOM     22  C   UNL     1       0.921   9.709  17.847  0.00  0.00    +0.000 A 
ATOM     23  C   UNL     1       0.088  10.434  18.699  0.00  0.00    +0.000 A 
ATOM     24  C   UNL     1       0.115  10.178  20.067  0.00  0.00    +0.000 A 
ATOM     25 CL   UNL     1      -0.894  11.089  21.122  0.00  0.00    +0.000 Cl
ATOM     26  C   UNL     1       0.951   9.192  20.587  0.00  0.00    +0.000 A 
ATOM     27  C   UNL     1       1.784   8.466  19.736  0.00  0.00    +0.000 A 
ENDBRANCH  20  21
ENDBRANCH  18  20
ENDBRANCH  13  18
TORSDOF 4
ENDMDL
MODEL 5
REMARK VINA RESULT:      -7.5      2.508      3.213
REMARK  Name = 
REMARK  5 active torsions:
REMARK  status: ('A' for Active; 'I' for Inactive)
REMARK    1  A    between atoms: C_1  and  O_2
REMARK    2  A    between atoms: O_2  and  C_3
REMARK    3  A    between atoms: C_15  and  N_16
REMARK    4  A    between atoms: N_16  and  C_17
REMARK    5  A    between atoms: C_17  and  C_18
REMARK                            x       y       z     vdW  Elec       q    Type
REMARK                         _______ _______ _______ _____ _____    ______ ____
ROOT
ATOM      1  C   UNL     1       4.009   2.455  20.220  0.00  0.00    +0.000 A 
ATOM      2  C   UNL     1       3.155   2.696  21.274  0.00  0.00    +0.000 A 
ATOM      3  C   UNL     1       2.496   3.927  21.338  0.00  0.00    +0.000 A 
ATOM      4  C   UNL     1       2.640   4.908  20.364  0.00  0.00    +0.000 A 
ATOM      5  N   UNL     1       1.955   6.039  20.555  0.00  0.00    +0.000 NA
ATOM      6  C   UNL     1       2.051   7.028  19.665  0.00  0.00    +0.000 A 
ATOM      7  C   UNL     1       1.330   8.183  19.934  0.00  0.00    +0.000 A 
ATOM      8  C   UNL     1       1.355   9.267  19.067  0.00  0.00    +0.000 A 
ATOM      9 CL   UNL     1       0.442  10.680  19.437  0.00  0.00    +0.000 Cl
ATOM     10  C   UNL     1       2.108   9.213  17.904  0.00  0.00    +0.000 A 
ATOM     11  C   UNL     1       2.840   8.057  17.619  0.00  0.00    +0.000 A 
ATOM     12  C   UNL     1       2.835   6.939  18.497  0.00  0.00    +0.000 A 
ATOM     13  C   UNL     1       3.549   5.720  18.262  0.00  0.00    +0.000 A 
ATOM     14  C   UNL     1       3.485   4.683  19.258  0.00  0.00    +0.000 A 
ATOM     15  C   UNL     1       4.194   3.451  19.264  0.00  0.00    +0.000 A 
ENDROOT
BRANCH   1  17
ATOM     16  C   UNL     1       5.434   0.825  21.158  0.00  0.00    +0.000 C 
ATOM     17  O   UNL     1       4.754   1.329  20.016  0.00  0.00    +0.000 OA
ENDBRANCH   1  17
BRANCH  13  18
ATOM     18  N   UNL     1       4.344   5.668  17.085  0.00  0.00    +0.000 N 
ATOM     19  H   UNL     1       4.238   6.543  16.572  0.00  0.00    +0.000 HD
BRANCH  18  20
ATOM     20  C   UNL     1       5.745   5.268  17.138  0.00  0.00    +0.000 C 
BRANCH  20  21
ATOM     21  C   UNL     1       6.634   6.386  17.625  0.00  0.00    +0.000 A 
ATOM     22  C   UNL     1       7.618   6.126  18.596  0.00  0.00    +0.000 A 
ATOM     23  C   UNL     1       8.471   7.142  19.028  0.00  0.00    +0.000 A 
ATOM     24  C   UNL     1       8.352   8.416  18.481  0.00  0.00    +0.000 A 
ATOM     25 CL   UNL     1       9.388   9.675  19.030  0.00  0.00    +0.000 Cl
ATOM     26  C   UNL     1       7.404   8.679  17.494  0.00  0.00    +0.000 A 
ATOM     27  C   UNL     1       6.550   7.664  17.062  0.00  0.00    +0.000 A 
ENDBRANCH  20  21
ENDBRANCH  18  20
ENDBRANCH  13  18
TORSDOF 4
ENDMDL
MODEL 6
REMARK VINA RESULT:      -7.5      4.387      7.343
REMARK  Name = 
REMARK  5 active torsions:
REMARK  status: ('A' for Active; 'I' for Inactive)
REMARK    1  A    between atoms: C_1  and  O_2
REMARK    2  A    between atoms: O_2  and  C_3
REMARK    3  A    between atoms: C_15  and  N_16
REMARK    4  A    between atoms: N_16  and  C_17
REMARK    5  A    between atoms: C_17  and  C_18
REMARK                            x       y       z     vdW  Elec       q    Type
REMARK                         _______ _______ _______ _____ _____    ______ ____
ROOT
ATOM      1  C   UNL     1       5.929   3.065  12.219  0.00  0.00    +0.000 A 
ATOM      2  C   UNL     1       6.906   3.947  11.807  0.00  0.00    +0.000 A 
ATOM      3  C   UNL     1       7.450   4.833  12.742  0.00  0.00    +0.000 A 
ATOM      4  C   UNL     1       7.071   4.840  14.079  0.00  0.00    +0.000 A 
ATOM      5  N   UNL     1       7.669   5.745  14.860  0.00  0.00    +0.000 NA
ATOM      6  C   UNL     1       7.350   5.816  16.153  0.00  0.00    +0.000 A 
ATOM      7  C   UNL     1       7.992   6.791  16.902  0.00  0.00    +0.000 A 
ATOM      8  C   UNL     1       7.737   6.942  18.259  0.00  0.00    +0.000 A 
ATOM      9 CL   UNL     1       8.561   8.163  19.153  0.00  0.00    +0.000 Cl
ATOM     10  C   UNL     1       6.827   6.112  18.895  0.00  0.00    +0.000 A 
ATOM     11  C   UNL     1       6.171   5.125  18.154  0.00  0.00    +0.000 A 
ATOM     12  C   UNL     1       6.411   4.959  16.763  0.00  0.00    +0.000 A 
ATOM     13  C   UNL     1       5.787   3.962  15.945  0.00  0.00    +0.000 A 
ATOM     14  C   UNL     1       6.094   3.934  14.539  0.00  0.00    +0.000 A 
ATOM     15  C   UNL     1       5.512   3.098  13.547  0.00  0.00    +0.000 A 
ENDROOT
BRANCH   1  17
ATOM     16  C   UNL     1       6.018   1.010  11.064  0.00  0.00    +0.000 C 
ATOM     17  O   UNL     1       5.270   2.158  11.441  0.00  0.00    +0.000 OA
ENDBRANCH   1  17
BRANCH  13  18
ATOM     18  N   UNL     1       4.833   3.125  16.585  0.00  0.00    +0.000 N 
ATOM     19  H   UNL     1       5.190   2.851  17.500  0.00  0.00    +0.000 HD
BRANCH  18  20
ATOM     20  C   UNL     1       3.429   3.511  16.673  0.00  0.00    +0.000 C 
BRANCH  20  21
ATOM     21  C   UNL     1       2.851   3.228  18.037  0.00  0.00    +0.000 A 
ATOM     22  C   UNL     1       3.700   2.853  19.094  0.00  0.00    +0.000 A 
ATOM     23  C   UNL     1       3.184   2.625  20.370  0.00  0.00    +0.000 A 
ATOM     24  C   UNL     1       1.820   2.784  20.596  0.00  0.00    +0.000 A 
ATOM     25 CL   UNL     1       1.178   2.480  22.163  0.00  0.00    +0.000 Cl
ATOM     26  C   UNL     1       0.972   3.187  19.566  0.00  0.00    +0.000 A 
ATOM     27  C   UNL     1       1.488   3.415  18.290  0.00  0.00    +0.000 A 
ENDBRANCH  20  21
ENDBRANCH  18  20
ENDBRANCH  13  18
TORSDOF 4
ENDMDL
MODEL 7
REMARK VINA RESULT:      -7.5      3.529      7.069
REMARK  Name = 
REMARK  5 active torsions:
REMARK  status: ('A' for Active; 'I' for Inactive)
REMARK    1  A    between atoms: C_1  and  O_2
REMARK    2  A    between atoms: O_2  and  C_3
REMARK    3  A    between atoms: C_15  and  N_16
REMARK    4  A    between atoms: N_16  and  C_17
REMARK    5  A    between atoms: C_17  and  C_18
REMARK                            x       y       z     vdW  Elec       q    Type
REMARK                         _______ _______ _______ _____ _____    ______ ____
ROOT
ATOM      1  C   UNL     1       6.953   6.741  17.573  0.00  0.00    +0.000 A 
ATOM      2  C   UNL     1       7.620   5.750  18.262  0.00  0.00    +0.000 A 
ATOM      3  C   UNL     1       6.880   4.859  19.044  0.00  0.00    +0.000 A 
ATOM      4  C   UNL     1       5.494   4.908  19.132  0.00  0.00    +0.000 A 
ATOM      5  N   UNL     1       4.917   3.998  19.921  0.00  0.00    +0.000 NA
ATOM      6  C   UNL     1       3.590   3.989  20.060  0.00  0.00    +0.000 A 
ATOM      7  C   UNL     1       3.057   3.031  20.910  0.00  0.00    +0.000 A 
ATOM      8  C   UNL     1       1.687   2.933  21.117  0.00  0.00    +0.000 A 
ATOM      9 CL   UNL     1       1.067   1.725  22.178  0.00  0.00    +0.000 Cl
ATOM     10  C   UNL     1       0.820   3.798  20.469  0.00  0.00    +0.000 A 
ATOM     11  C   UNL     1       1.341   4.769  19.609  0.00  0.00    +0.000 A 
ATOM     12  C   UNL     1       2.740   4.893  19.390  0.00  0.00    +0.000 A 
ATOM     13  C   UNL     1       3.343   5.853  18.515  0.00  0.00    +0.000 A 
ATOM     14  C   UNL     1       4.778   5.891  18.419  0.00  0.00    +0.000 A 
ATOM     15  C   UNL     1       5.568   6.824  17.693  0.00  0.00    +0.000 A 
ENDROOT
BRANCH   1  17
ATOM     16  C   UNL     1       7.971   8.867  17.480  0.00  0.00    +0.000 C 
ATOM     17  O   UNL     1       7.513   7.710  16.793  0.00  0.00    +0.000 OA
ENDBRANCH   1  17
BRANCH  13  18
ATOM     18  N   UNL     1       2.461   6.761  17.868  0.00  0.00    +0.000 N 
ATOM     19  H   UNL     1       1.499   6.457  18.019  0.00  0.00    +0.000 HD
BRANCH  18  20
ATOM     20  C   UNL     1       2.583   8.201  18.065  0.00  0.00    +0.000 C 
BRANCH  20  21
ATOM     21  C   UNL     1       1.699   8.695  19.183  0.00  0.00    +0.000 A 
ATOM     22  C   UNL     1       1.783   8.103  20.456  0.00  0.00    +0.000 A 
ATOM     23  C   UNL     1       1.000   8.575  21.509  0.00  0.00    +0.000 A 
ATOM     24  C   UNL     1       0.140   9.648  21.297  0.00  0.00    +0.000 A 
ATOM     25 CL   UNL     1      -0.845  10.216  22.588  0.00  0.00    +0.000 Cl
ATOM     26  C   UNL     1       0.071  10.265  20.049  0.00  0.00    +0.000 A 
ATOM     27  C   UNL     1       0.854   9.794  18.995  0.00  0.00    +0.000 A 
ENDBRANCH  20  21
ENDBRANCH  18  20
ENDBRANCH  13  18
TORSDOF 4
ENDMDL
MODEL 8
REMARK VINA RESULT:      -7.4      4.490      8.905
REMARK  Name = 
REMARK  5 active torsions:
REMARK  status: ('A' for Active; 'I' for Inactive)
REMARK    1  A    between atoms: C_1  and  O_2
REMARK    2  A    between atoms: O_2  and  C_3
REMARK    3  A    between atoms: C_15  and  N_16
REMARK    4  A    between atoms: N_16  and  C_17
REMARK    5  A    between atoms: C_17  and  C_18
REMARK                            x       y       z     vdW  Elec       q    Type
REMARK                         _______ _______ _______ _____ _____    ______ ____
ROOT
ATOM      1  C   UNL     1      -0.988  11.443  22.271  0.00  0.00    +0.000 A 
ATOM      2  C   UNL     1      -0.871  10.385  23.146  0.00  0.00    +0.000 A 
ATOM      3  C   UNL     1      -0.163   9.250  22.740  0.00  0.00    +0.000 A 
ATOM      4  C   UNL     1       0.458   9.156  21.499  0.00  0.00    +0.000 A 
ATOM      5  N   UNL     1       1.095   8.011  21.240  0.00  0.00    +0.000 NA
ATOM      6  C   UNL     1       1.707   7.846  20.067  0.00  0.00    +0.000 A 
ATOM      7  C   UNL     1       2.332   6.626  19.854  0.00  0.00    +0.000 A 
ATOM      8  C   UNL     1       3.004   6.357  18.669  0.00  0.00    +0.000 A 
ATOM      9 CL   UNL     1       3.771   4.830  18.449  0.00  0.00    +0.000 Cl
ATOM     10  C   UNL     1       3.064   7.313  17.668  0.00  0.00    +0.000 A 
ATOM     11  C   UNL     1       2.439   8.548  17.867  0.00  0.00    +0.000 A 
ATOM     12  C   UNL     1       1.738   8.841  19.068  0.00  0.00    +0.000 A 
ATOM     13  C   UNL     1       1.087  10.086  19.345  0.00  0.00    +0.000 A 
ATOM     14  C   UNL     1       0.380  10.231  20.590  0.00  0.00    +0.000 A 
ATOM     15  C   UNL     1      -0.408  11.337  21.009  0.00  0.00    +0.000 A 
ENDROOT
BRANCH   1  17
ATOM     16  C   UNL     1      -0.878  13.791  22.472  0.00  0.00    +0.000 C 
ATOM     17  O   UNL     1      -1.666  12.608  22.487  0.00  0.00    +0.000 OA
ENDBRANCH   1  17
BRANCH  13  18
ATOM     18  N   UNL     1       1.121  11.062  18.312  0.00  0.00    +0.000 N 
ATOM     19  H   UNL     1       0.196  11.480  18.217  0.00  0.00    +0.000 HD
BRANCH  18  20
ATOM     20  C   UNL     1       2.157  12.087  18.276  0.00  0.00    +0.000 C 
BRANCH  20  21
ATOM     21  C   UNL     1       1.623  13.443  18.665  0.00  0.00    +0.000 A 
ATOM     22  C   UNL     1       0.250  13.719  18.533  0.00  0.00    +0.000 A 
ATOM     23  C   UNL     1      -0.264  14.956  18.925  0.00  0.00    +0.000 A 
ATOM     24  C   UNL     1       0.591  15.914  19.461  0.00  0.00    +0.000 A 
ATOM     25 CL   UNL     1      -0.037  17.449  19.922  0.00  0.00    +0.000 Cl
ATOM     26  C   UNL     1       1.947  15.642  19.628  0.00  0.00    +0.000 A 
ATOM     27  C   UNL     1       2.462  14.406  19.237  0.00  0.00    +0.000 A 
ENDBRANCH  20  21
ENDBRANCH  18  20
ENDBRANCH  13  18
TORSDOF 4
ENDMDL
MODEL 9
REMARK VINA RESULT:      -7.4      5.290      8.897
REMARK  Name = 
REMARK  5 active torsions:
REMARK  status: ('A' for Active; 'I' for Inactive)
REMARK    1  A    between atoms: C_1  and  O_2
REMARK    2  A    between atoms: O_2  and  C_3
REMARK    3  A    between atoms: C_15  and  N_16
REMARK    4  A    between atoms: N_16  and  C_17
REMARK    5  A    between atoms: C_17  and  C_18
REMARK                            x       y       z     vdW  Elec       q    Type
REMARK                         _______ _______ _______ _____ _____    ______ ____
ROOT
ATOM      1  C   UNL     1      -2.145  12.258  22.317  0.00  0.00    +0.000 A 
ATOM      2  C   UNL     1      -1.736  11.382  23.300  0.00  0.00    +0.000 A 
ATOM      3  C   UNL     1      -0.853  10.354  22.961  0.00  0.00    +0.000 A 
ATOM      4  C   UNL     1      -0.341  10.196  21.678  0.00  0.00    +0.000 A 
ATOM      5  N   UNL     1       0.489   9.166  21.493  0.00  0.00    +0.000 NA
ATOM      6  C   UNL     1       1.013   8.947  20.286  0.00  0.00    +0.000 A 
ATOM      7  C   UNL     1       1.851   7.849  20.159  0.00  0.00    +0.000 A 
ATOM      8  C   UNL     1       2.454   7.539  18.946  0.00  0.00    +0.000 A 
ATOM      9 CL   UNL     1       3.491   6.168  18.833  0.00  0.00    +0.000 Cl
ATOM     10  C   UNL     1       2.228   8.331  17.832  0.00  0.00    +0.000 A 
ATOM     11  C   UNL     1       1.386   9.441  17.944  0.00  0.00    +0.000 A 
ATOM     12  C   UNL     1       0.752   9.771  19.173  0.00  0.00    +0.000 A 
ATOM     13  C   UNL     1      -0.111  10.899  19.364  0.00  0.00    +0.000 A 
ATOM     14  C   UNL     1      -0.717  11.090  20.655  0.00  0.00    +0.000 A 
ATOM     15  C   UNL     1      -1.672  12.078  21.019  0.00  0.00    +0.000 A 
ENDROOT
BRANCH   1  17
ATOM     16  C   UNL     1      -4.164  13.027  23.265  0.00  0.00    +0.000 C 
ATOM     17  O   UNL     1      -3.022  13.294  22.462  0.00  0.00    +0.000 OA
ENDBRANCH   1  17
BRANCH  13  18
ATOM     18  N   UNL     1      -0.369  11.700  18.218  0.00  0.00    +0.000 N 
ATOM     19  H   UNL     1      -1.235  11.386  17.780  0.00  0.00    +0.000 HD
BRANCH  18  20
ATOM     20  C   UNL     1      -0.324  13.155  18.289  0.00  0.00    +0.000 C 
BRANCH  20  21
ATOM     21  C   UNL     1       1.029  13.657  18.732  0.00  0.00    +0.000 A 
ATOM     22  C   UNL     1       1.153  14.353  19.948  0.00  0.00    +0.000 A 
ATOM     23  C   UNL     1       2.403  14.789  20.388  0.00  0.00    +0.000 A 
ATOM     24  C   UNL     1       3.532  14.521  19.621  0.00  0.00    +0.000 A 
ATOM     25 CL   UNL     1       5.071  15.080  20.150  0.00  0.00    +0.000 Cl
ATOM     26  C   UNL     1       3.427  13.804  18.430  0.00  0.00    +0.000 A 
ATOM     27  C   UNL     1       2.178  13.367  17.989  0.00  0.00    +0.000 A 
ENDBRANCH  20  21
ENDBRANCH  18  20
ENDBRANCH  13  18
TORSDOF 4
ENDMDL
