MODEL 1
REMARK VINA RESULT:      -5.8      0.000      0.000
REMARK  Name = 
REMARK  8 active torsions:
REMARK  status: ('A' for Active; 'I' for Inactive)
REMARK    1  A    between atoms: C_1  and  O_2
REMARK    2  A    between atoms: O_2  and  C_3
REMARK    3  A    between atoms: C_3  and  C_4
REMARK    4  A    between atoms: C_4  and  N_5
REMARK    5  A    between atoms: N_5  and  C_6
REMARK    6  A    between atoms: C_6  and  C_7
REMARK    7  A    between atoms: N_9  and  C_10
REMARK    8  A    between atoms: N_9  and  C_11
REMARK                            x       y       z     vdW  Elec       q    Type
REMARK                         _______ _______ _______ _____ _____    ______ ____
ROOT
ATOM      1  N   UNL     1       5.196   5.175  16.365  0.00  0.00    +0.000 N 
ATOM      2  C   UNL     1       4.081   4.691  17.031  0.00  0.00    +0.000 A 
ATOM      3  N   UNL     1       3.272   5.572  17.657  0.00  0.00    +0.000 NA
ATOM      4  C   UNL     1       2.129   5.129  18.209  0.00  0.00    +0.000 A 
ATOM      5  C   UNL     1       1.750   3.816  18.170  0.00  0.00    +0.000 A 
ATOM      6  C   UNL     1       2.632   2.975  17.540  0.00  0.00    +0.000 A 
ATOM      7  N   UNL     1       3.791   3.389  16.970  0.00  0.00    +0.000 NA
ENDROOT
BRANCH   1   8
ATOM      8  C   UNL     1       5.502   6.598  16.520  0.00  0.00    +0.000 C 
BRANCH   8   9
ATOM      9  C   UNL     1       6.642   6.951  17.492  0.00  0.00    +0.000 C 
BRANCH   9  11
ATOM     10  C   UNL     1       7.975   8.848  17.840  0.00  0.00    +0.000 C 
ATOM     11  O   UNL     1       7.673   7.781  16.940  0.00  0.00    +0.000 OA
ENDBRANCH   9  11
ENDBRANCH   8   9
ENDBRANCH   1   8
BRANCH   1  12
ATOM     12  C   UNL     1       6.152   4.197  15.823  0.00  0.00    +0.000 C 
BRANCH  12  13
ATOM     13  C   UNL     1       6.946   4.635  14.550  0.00  0.00    +0.000 C 
ATOM     14  O   UNL     1       7.877   5.447  14.612  0.00  0.00    +0.000 OA
ATOM     15  N   UNL     1       6.513   4.106  13.314  0.00  0.00    +0.000 N 
ATOM     16  C   UNL     1       7.260   4.405  12.100  0.00  0.00    +0.000 C 
ATOM     17  C   UNL     1       5.191   3.538  13.077  0.00  0.00    +0.000 C 
ENDBRANCH  12  13
ENDBRANCH   1  12
TORSDOF 5
ENDMDL
MODEL 2
REMARK VINA RESULT:      -5.7      1.706      4.945
REMARK  Name = 
REMARK  8 active torsions:
REMARK  status: ('A' for Active; 'I' for Inactive)
REMARK    1  A    between atoms: C_1  and  O_2
REMARK    2  A    between atoms: O_2  and  C_3
REMARK    3  A    between atoms: C_3  and  C_4
REMARK    4  A    between atoms: C_4  and  N_5
REMARK    5  A    between atoms: N_5  and  C_6
REMARK    6  A    between atoms: C_6  and  C_7
REMARK    7  A    between atoms: N_9  and  C_10
REMARK    8  A    between atoms: N_9  and  C_11
REMARK                            x       y       z     vdW  Elec       q    Type
REMARK                         _______ _______ _______ _____ _____    ______ ____
ROOT
ATOM      1  N   UNL     1       6.299   4.565  16.250  0.00  0.00    +0.000 N 
ATOM      2  C   UNL     1       6.540   4.535  14.885  0.00  0.00    +0.000 A 
ATOM      3  N   UNL     1       7.578   5.249  14.398  0.00  0.00    +0.000 NA
ATOM      4  C   UNL     1       7.890   5.139  13.095  0.00  0.00    +0.000 A 
ATOM      5  C   UNL     1       7.195   4.337  12.234  0.00  0.00    +0.000 A 
ATOM      6  C   UNL     1       6.139   3.662  12.792  0.00  0.00    +0.000 A 
ATOM      7  N   UNL     1       5.799   3.748  14.102  0.00  0.00    +0.000 NA
ENDROOT
BRANCH   1   8
ATOM      8  C   UNL     1       7.098   5.494  17.050  0.00  0.00    +0.000 C 
BRANCH   8   9
ATOM      9  C   UNL     1       6.501   6.896  17.270  0.00  0.00    +0.000 C 
BRANCH   9  11
ATOM     10  C   UNL     1       8.114   8.440  17.982  0.00  0.00    +0.000 C 
ATOM     11  O   UNL     1       7.345   7.983  16.869  0.00  0.00    +0.000 OA
ENDBRANCH   9  11
ENDBRANCH   8   9
ENDBRANCH   1   8
BRANCH   1  12
ATOM     12  C   UNL     1       5.077   3.915  16.746  0.00  0.00    +0.000 C 
BRANCH  12  13
ATOM     13  C   UNL     1       4.777   4.074  18.272  0.00  0.00    +0.000 C 
ATOM     14  O   UNL     1       5.584   3.709  19.135  0.00  0.00    +0.000 OA
ATOM     15  N   UNL     1       3.513   4.600  18.622  0.00  0.00    +0.000 N 
ATOM     16  C   UNL     1       3.201   4.853  20.021  0.00  0.00    +0.000 C 
ATOM     17  C   UNL     1       2.354   4.620  17.737  0.00  0.00    +0.000 C 
ENDBRANCH  12  13
ENDBRANCH   1  12
TORSDOF 5
ENDMDL
MODEL 3
REMARK VINA RESULT:      -5.7      1.934      5.073
REMARK  Name = 
REMARK  8 active torsions:
REMARK  status: ('A' for Active; 'I' for Inactive)
REMARK    1  A    between atoms: C_1  and  O_2
REMARK    2  A    between atoms: O_2  and  C_3
REMARK    3  A    between atoms: C_3  and  C_4
REMARK    4  A    between atoms: C_4  and  N_5
REMARK    5  A    between atoms: N_5  and  C_6
REMARK    6  A    between atoms: C_6  and  C_7
REMARK    7  A    between atoms: N_9  and  C_10
REMARK    8  A    between atoms: N_9  and  C_11
REMARK                            x       y       z     vdW  Elec       q    Type
REMARK                         _______ _______ _______ _____ _____    ______ ____
ROOT
ATOM      1  N   UNL     1       6.242   4.662  16.055  0.00  0.00    +0.000 N 
ATOM      2  C   UNL     1       6.512   4.583  14.697  0.00  0.00    +0.000 A 
ATOM      3  N   UNL     1       7.553   5.287  14.205  0.00  0.00    +0.000 NA
ATOM      4  C   UNL     1       7.894   5.131  12.914  0.00  0.00    +0.000 A 
ATOM      5  C   UNL     1       7.223   4.291  12.069  0.00  0.00    +0.000 A 
ATOM      6  C   UNL     1       6.161   3.628  12.631  0.00  0.00    +0.000 A 
ATOM      7  N   UNL     1       5.794   3.760  13.930  0.00  0.00    +0.000 NA
ENDROOT
BRANCH   1   8
ATOM      8  C   UNL     1       7.017   5.629  16.835  0.00  0.00    +0.000 C 
BRANCH   8   9
ATOM      9  C   UNL     1       7.660   5.103  18.131  0.00  0.00    +0.000 C 
BRANCH   9  11
ATOM     10  C   UNL     1       8.149   7.372  18.459  0.00  0.00    +0.000 C 
ATOM     11  O   UNL     1       7.971   6.110  19.103  0.00  0.00    +0.000 OA
ENDBRANCH   9  11
ENDBRANCH   8   9
ENDBRANCH   1   8
BRANCH   1  12
ATOM     12  C   UNL     1       5.016   4.020  16.551  0.00  0.00    +0.000 C 
BRANCH  12  13
ATOM     13  C   UNL     1       4.140   4.862  17.534  0.00  0.00    +0.000 C 
ATOM     14  O   UNL     1       3.760   6.005  17.250  0.00  0.00    +0.000 OA
ATOM     15  N   UNL     1       3.853   4.284  18.789  0.00  0.00    +0.000 N 
ATOM     16  C   UNL     1       2.973   4.977  19.719  0.00  0.00    +0.000 C 
ATOM     17  C   UNL     1       4.611   3.190  19.387  0.00  0.00    +0.000 C 
ENDBRANCH  12  13
ENDBRANCH   1  12
TORSDOF 5
ENDMDL
MODEL 4
REMARK VINA RESULT:      -5.6      1.988      4.678
REMARK  Name = 
REMARK  8 active torsions:
REMARK  status: ('A' for Active; 'I' for Inactive)
REMARK    1  A    between atoms: C_1  and  O_2
REMARK    2  A    between atoms: O_2  and  C_3
REMARK    3  A    between atoms: C_3  and  C_4
REMARK    4  A    between atoms: C_4  and  N_5
REMARK    5  A    between atoms: N_5  and  C_6
REMARK    6  A    between atoms: C_6  and  C_7
REMARK    7  A    between atoms: N_9  and  C_10
REMARK    8  A    between atoms: N_9  and  C_11
REMARK                            x       y       z     vdW  Elec       q    Type
REMARK                         _______ _______ _______ _____ _____    ______ ____
ROOT
ATOM      1  N   UNL     1       6.265   5.489  17.465  0.00  0.00    +0.000 N 
ATOM      2  C   UNL     1       6.280   5.130  16.126  0.00  0.00    +0.000 A 
ATOM      3  N   UNL     1       7.429   5.278  15.432  0.00  0.00    +0.000 NA
ATOM      4  C   UNL     1       7.488   4.828  14.167  0.00  0.00    +0.000 A 
ATOM      5  C   UNL     1       6.428   4.229  13.544  0.00  0.00    +0.000 A 
ATOM      6  C   UNL     1       5.288   4.136  14.301  0.00  0.00    +0.000 A 
ATOM      7  N   UNL     1       5.195   4.576  15.580  0.00  0.00    +0.000 NA
ENDROOT
BRANCH   1   8
ATOM      8  C   UNL     1       7.459   6.151  17.993  0.00  0.00    +0.000 C 
BRANCH   8   9
ATOM      9  C   UNL     1       7.592   7.657  17.702  0.00  0.00    +0.000 C 
BRANCH   9  11
ATOM     10  C   UNL     1       8.542   9.741  18.199  0.00  0.00    +0.000 C 
ATOM     11  O   UNL     1       8.530   8.353  18.532  0.00  0.00    +0.000 OA
ENDBRANCH   9  11
ENDBRANCH   8   9
ENDBRANCH   1   8
BRANCH   1  12
ATOM     12  C   UNL     1       4.973   5.473  18.166  0.00  0.00    +0.000 C 
BRANCH  12  13
ATOM     13  C   UNL     1       4.595   4.143  18.894  0.00  0.00    +0.000 C 
ATOM     14  O   UNL     1       5.438   3.467  19.495  0.00  0.00    +0.000 OA
ATOM     15  N   UNL     1       3.254   3.712  18.782  0.00  0.00    +0.000 N 
ATOM     16  C   UNL     1       2.814   2.527  19.504  0.00  0.00    +0.000 C 
ATOM     17  C   UNL     1       2.327   4.162  17.749  0.00  0.00    +0.000 C 
ENDBRANCH  12  13
ENDBRANCH   1  12
TORSDOF 5
ENDMDL
MODEL 5
REMARK VINA RESULT:      -5.6      3.942      6.653
REMARK  Name = 
REMARK  8 active torsions:
REMARK  status: ('A' for Active; 'I' for Inactive)
REMARK    1  A    between atoms: C_1  and  O_2
REMARK    2  A    between atoms: O_2  and  C_3
REMARK    3  A    between atoms: C_3  and  C_4
REMARK    4  A    between atoms: C_4  and  N_5
REMARK    5  A    between atoms: N_5  and  C_6
REMARK    6  A    between atoms: C_6  and  C_7
REMARK    7  A    between atoms: N_9  and  C_10
REMARK    8  A    between atoms: N_9  and  C_11
REMARK                            x       y       z     vdW  Elec       q    Type
REMARK                         _______ _______ _______ _____ _____    ______ ____
ROOT
ATOM      1  N   UNL     1       3.969   4.656  18.567  0.00  0.00    +0.000 N 
ATOM      2  C   UNL     1       5.177   5.289  18.321  0.00  0.00    +0.000 A 
ATOM      3  N   UNL     1       6.320   4.651  18.652  0.00  0.00    +0.000 NA
ATOM      4  C   UNL     1       7.497   5.205  18.315  0.00  0.00    +0.000 A 
ATOM      5  C   UNL     1       7.591   6.398  17.654  0.00  0.00    +0.000 A 
ATOM      6  C   UNL     1       6.391   7.001  17.372  0.00  0.00    +0.000 A 
ATOM      7  N   UNL     1       5.187   6.468  17.695  0.00  0.00    +0.000 NA
ENDROOT
BRANCH   1   8
ATOM      8  C   UNL     1       4.015   3.397  19.314  0.00  0.00    +0.000 C 
BRANCH   8   9
ATOM      9  C   UNL     1       3.326   2.187  18.657  0.00  0.00    +0.000 C 
BRANCH   9  11
ATOM     10  C   UNL     1       0.993   2.384  18.767  0.00  0.00    +0.000 C 
ATOM     11  O   UNL     1       2.138   1.735  19.320  0.00  0.00    +0.000 OA
ENDBRANCH   9  11
ENDBRANCH   8   9
ENDBRANCH   1   8
BRANCH   1  12
ATOM     12  C   UNL     1       2.734   5.422  18.350  0.00  0.00    +0.000 C 
BRANCH  12  13
ATOM     13  C   UNL     1       2.104   6.097  19.611  0.00  0.00    +0.000 C 
ATOM     14  O   UNL     1       1.616   5.430  20.531  0.00  0.00    +0.000 OA
ATOM     15  N   UNL     1       2.063   7.509  19.625  0.00  0.00    +0.000 N 
ATOM     16  C   UNL     1       1.567   8.204  20.804  0.00  0.00    +0.000 C 
ATOM     17  C   UNL     1       2.173   8.350  18.438  0.00  0.00    +0.000 C 
ENDBRANCH  12  13
ENDBRANCH   1  12
TORSDOF 5
ENDMDL
MODEL 6
REMARK VINA RESULT:      -5.6      3.560      5.734
REMARK  Name = 
REMARK  8 active torsions:
REMARK  status: ('A' for Active; 'I' for Inactive)
REMARK    1  A    between atoms: C_1  and  O_2
REMARK    2  A    between atoms: O_2  and  C_3
REMARK    3  A    between atoms: C_3  and  C_4
REMARK    4  A    between atoms: C_4  and  N_5
REMARK    5  A    between atoms: N_5  and  C_6
REMARK    6  A    between atoms: C_6  and  C_7
REMARK    7  A    between atoms: N_9  and  C_10
REMARK    8  A    between atoms: N_9  and  C_11
REMARK                            x       y       z     vdW  Elec       q    Type
REMARK                         _______ _______ _______ _____ _____    ______ ____
ROOT
ATOM      1  N   UNL     1       4.318   5.228  18.574  0.00  0.00    +0.000 N 
ATOM      2  C   UNL     1       5.626   5.682  18.505  0.00  0.00    +0.000 A 
ATOM      3  N   UNL     1       5.914   6.694  17.660  0.00  0.00    +0.000 NA
ATOM      4  C   UNL     1       7.152   7.218  17.666  0.00  0.00    +0.000 A 
ATOM      5  C   UNL     1       8.142   6.763  18.492  0.00  0.00    +0.000 A 
ATOM      6  C   UNL     1       7.786   5.717  19.305  0.00  0.00    +0.000 A 
ATOM      7  N   UNL     1       6.546   5.169  19.326  0.00  0.00    +0.000 NA
ENDROOT
BRANCH   1   8
ATOM      8  C   UNL     1       3.368   5.780  17.607  0.00  0.00    +0.000 C 
BRANCH   8   9
ATOM      9  C   UNL     1       2.468   6.924  18.109  0.00  0.00    +0.000 C 
BRANCH   9  11
ATOM     10  C   UNL     1       1.801   9.165  17.938  0.00  0.00    +0.000 C 
ATOM     11  O   UNL     1       2.846   8.232  17.659  0.00  0.00    +0.000 OA
ENDBRANCH   9  11
ENDBRANCH   8   9
ENDBRANCH   1   8
BRANCH   1  12
ATOM     12  C   UNL     1       4.049   4.027  19.377  0.00  0.00    +0.000 C 
BRANCH  12  13
ATOM     13  C   UNL     1       2.978   3.039  18.812  0.00  0.00    +0.000 C 
ATOM     14  O   UNL     1       3.219   2.298  17.852  0.00  0.00    +0.000 OA
ATOM     15  N   UNL     1       1.698   3.075  19.408  0.00  0.00    +0.000 N 
ATOM     16  C   UNL     1       0.679   2.125  18.987  0.00  0.00    +0.000 C 
ATOM     17  C   UNL     1       1.185   4.191  20.195  0.00  0.00    +0.000 C 
ENDBRANCH  12  13
ENDBRANCH   1  12
TORSDOF 5
ENDMDL
MODEL 7
REMARK VINA RESULT:      -5.5      3.460      5.499
REMARK  Name = 
REMARK  8 active torsions:
REMARK  status: ('A' for Active; 'I' for Inactive)
REMARK    1  A    between atoms: C_1  and  O_2
REMARK    2  A    between atoms: O_2  and  C_3
REMARK    3  A    between atoms: C_3  and  C_4
REMARK    4  A    between atoms: C_4  and  N_5
REMARK    5  A    between atoms: N_5  and  C_6
REMARK    6  A    between atoms: C_6  and  C_7
REMARK    7  A    between atoms: N_9  and  C_10
REMARK    8  A    between atoms: N_9  and  C_11
REMARK                            x       y       z     vdW  Elec       q    Type
REMARK                         _______ _______ _______ _____ _____    ______ ____
ROOT
ATOM      1  N   UNL     1       3.018   5.689  19.386  0.00  0.00    +0.000 N 
ATOM      2  C   UNL     1       2.462   6.934  19.136  0.00  0.00    +0.000 A 
ATOM      3  N   UNL     1       1.759   7.535  20.119  0.00  0.00    +0.000 NA
ATOM      4  C   UNL     1       1.311   8.788  19.928  0.00  0.00    +0.000 A 
ATOM      5  C   UNL     1       1.531   9.483  18.771  0.00  0.00    +0.000 A 
ATOM      6  C   UNL     1       2.230   8.801  17.808  0.00  0.00    +0.000 A 
ATOM      7  N   UNL     1       2.698   7.539  17.970  0.00  0.00    +0.000 NA
ENDROOT
BRANCH   1   8
ATOM      8  C   UNL     1       2.672   5.045  20.655  0.00  0.00    +0.000 C 
BRANCH   8   9
ATOM      9  C   UNL     1       2.056   3.638  20.561  0.00  0.00    +0.000 C 
BRANCH   9  11
ATOM     10  C   UNL     1       0.839   2.552  18.877  0.00  0.00    +0.000 C 
ATOM     11  O   UNL     1       0.799   3.573  19.875  0.00  0.00    +0.000 OA
ENDBRANCH   9  11
ENDBRANCH   8   9
ENDBRANCH   1   8
BRANCH   1  12
ATOM     12  C   UNL     1       3.644   4.977  18.263  0.00  0.00    +0.000 C 
BRANCH  12  13
ATOM     13  C   UNL     1       5.125   4.524  18.466  0.00  0.00    +0.000 C 
ATOM     14  O   UNL     1       5.441   3.704  19.337  0.00  0.00    +0.000 OA
ATOM     15  N   UNL     1       6.100   5.140  17.650  0.00  0.00    +0.000 N 
ATOM     16  C   UNL     1       7.487   4.704  17.728  0.00  0.00    +0.000 C 
ATOM     17  C   UNL     1       5.909   6.405  16.949  0.00  0.00    +0.000 C 
ENDBRANCH  12  13
ENDBRANCH   1  12
TORSDOF 5
ENDMDL
MODEL 8
REMARK VINA RESULT:      -5.5      3.174      5.674
REMARK  Name = 
REMARK  8 active torsions:
REMARK  status: ('A' for Active; 'I' for Inactive)
REMARK    1  A    between atoms: C_1  and  O_2
REMARK    2  A    between atoms: O_2  and  C_3
REMARK    3  A    between atoms: C_3  and  C_4
REMARK    4  A    between atoms: C_4  and  N_5
REMARK    5  A    between atoms: N_5  and  C_6
REMARK    6  A    between atoms: C_6  and  C_7
REMARK    7  A    between atoms: N_9  and  C_10
REMARK    8  A    between atoms: N_9  and  C_11
REMARK                            x       y       z     vdW  Elec       q    Type
REMARK                         _______ _______ _______ _____ _____    ______ ____
ROOT
ATOM      1  N   UNL     1       4.121   5.765  18.302  0.00  0.00    +0.000 N 
ATOM      2  C   UNL     1       5.077   5.370  17.379  0.00  0.00    +0.000 A 
ATOM      3  N   UNL     1       4.923   5.745  16.091  0.00  0.00    +0.000 NA
ATOM      4  C   UNL     1       5.899   5.465  15.210  0.00  0.00    +0.000 A 
ATOM      5  C   UNL     1       7.045   4.807  15.561  0.00  0.00    +0.000 A 
ATOM      6  C   UNL     1       7.121   4.435  16.879  0.00  0.00    +0.000 A 
ATOM      7  N   UNL     1       6.158   4.705  17.794  0.00  0.00    +0.000 NA
ENDROOT
BRANCH   1   8
ATOM      8  C   UNL     1       2.927   6.434  17.783  0.00  0.00    +0.000 C 
BRANCH   8   9
ATOM      9  C   UNL     1       2.618   7.827  18.360  0.00  0.00    +0.000 C 
BRANCH   9  11
ATOM     10  C   UNL     1       1.266   9.707  17.993  0.00  0.00    +0.000 C 
ATOM     11  O   UNL     1       2.195   8.801  17.396  0.00  0.00    +0.000 OA
ENDBRANCH   9  11
ENDBRANCH   8   9
ENDBRANCH   1   8
BRANCH   1  12
ATOM     12  C   UNL     1       4.215   5.221  19.665  0.00  0.00    +0.000 C 
BRANCH  12  13
ATOM     13  C   UNL     1       2.949   4.481  20.205  0.00  0.00    +0.000 C 
ATOM     14  O   UNL     1       2.156   5.029  20.980  0.00  0.00    +0.000 OA
ATOM     15  N   UNL     1       2.783   3.134  19.817  0.00  0.00    +0.000 N 
ATOM     16  C   UNL     1       1.583   2.411  20.215  0.00  0.00    +0.000 C 
ATOM     17  C   UNL     1       3.855   2.282  19.313  0.00  0.00    +0.000 C 
ENDBRANCH  12  13
ENDBRANCH   1  12
TORSDOF 5
ENDMDL
MODEL 9
REMARK VINA RESULT:      -5.5      2.790      3.832
REMARK  Name = 
REMARK  8 active torsions:
REMARK  status: ('A' for Active; 'I' for Inactive)
REMARK    1  A    between atoms: C_1  and  O_2
REMARK    2  A    between atoms: O_2  and  C_3
REMARK    3  A    between atoms: C_3  and  C_4
REMARK    4  A    between atoms: C_4  and  N_5
REMARK    5  A    between atoms: N_5  and  C_6
REMARK    6  A    between atoms: C_6  and  C_7
REMARK    7  A    between atoms: N_9  and  C_10
REMARK    8  A    between atoms: N_9  and  C_11
REMARK                            x       y       z     vdW  Elec       q    Type
REMARK                         _______ _______ _______ _____ _____    ______ ____
ROOT
ATOM      1  N   UNL     1       3.336   5.197  18.534  0.00  0.00    +0.000 N 
ATOM      2  C   UNL     1       2.796   4.368  19.504  0.00  0.00    +0.000 A 
ATOM      3  N   UNL     1       1.468   4.434  19.743  0.00  0.00    +0.000 NA
ATOM      4  C   UNL     1       0.915   3.558  20.599  0.00  0.00    +0.000 A 
ATOM      5  C   UNL     1       1.642   2.600  21.248  0.00  0.00    +0.000 A 
ATOM      6  C   UNL     1       2.987   2.607  20.977  0.00  0.00    +0.000 A 
ATOM      7  N   UNL     1       3.576   3.475  20.117  0.00  0.00    +0.000 NA
ENDROOT
BRANCH   1   8
ATOM      8  C   UNL     1       2.449   6.200  17.942  0.00  0.00    +0.000 C 
BRANCH   8   9
ATOM      9  C   UNL     1       2.664   7.655  18.395  0.00  0.00    +0.000 C 
BRANCH   9  11
ATOM     10  C   UNL     1       1.665   9.732  17.963  0.00  0.00    +0.000 C 
ATOM     11  O   UNL     1       2.398   8.646  17.394  0.00  0.00    +0.000 OA
ENDBRANCH   9  11
ENDBRANCH   8   9
ENDBRANCH   1   8
BRANCH   1  12
ATOM     12  C   UNL     1       4.799   5.229  18.394  0.00  0.00    +0.000 C 
BRANCH  12  13
ATOM     13  C   UNL     1       5.383   4.639  17.069  0.00  0.00    +0.000 C 
ATOM     14  O   UNL     1       4.991   3.560  16.609  0.00  0.00    +0.000 OA
ATOM     15  N   UNL     1       6.425   5.366  16.451  0.00  0.00    +0.000 N 
ATOM     16  C   UNL     1       6.956   4.918  15.172  0.00  0.00    +0.000 C 
ATOM     17  C   UNL     1       7.252   6.359  17.128  0.00  0.00    +0.000 C 
ENDBRANCH  12  13
ENDBRANCH   1  12
TORSDOF 5
ENDMDL
