MODEL 1
REMARK VINA RESULT:      -8.5      0.000      0.000
REMARK  Name = 
REMARK  6 active torsions:
REMARK  status: ('A' for Active; 'I' for Inactive)
REMARK    1  A    between atoms: C_1  and  C_2
REMARK    2  A    between atoms: C_4  and  N_5
REMARK    3  A    between atoms: C_10  and  C_11
REMARK    4  A    between atoms: C_11  and  C_12
REMARK    5  A    between atoms: C_12  and  C_13
REMARK    6  A    between atoms: C_12  and  C_14
REMARK                            x       y       z     vdW  Elec       q    Type
REMARK                         _______ _______ _______ _____ _____    ______ ____
ROOT
ATOM      1  N   UNL     1       5.327   5.116  15.933  0.00  0.00    +0.000 N 
ATOM      2  C   UNL     1       4.831   6.469  16.216  0.00  0.00    +0.000 C 
ATOM      3  C   UNL     1       4.120   6.271  17.510  0.00  0.00    +0.000 A 
ATOM      4  C   UNL     1       3.267   7.067  18.216  0.00  0.00    +0.000 A 
ATOM      5  N   UNL     1       2.690   6.650  19.367  0.00  0.00    +0.000 NA
ATOM      6  C   UNL     1       2.986   5.398  19.796  0.00  0.00    +0.000 A 
ATOM      7  N   UNL     1       3.840   4.552  19.180  0.00  0.00    +0.000 NA
ATOM      8  C   UNL     1       4.381   5.030  18.047  0.00  0.00    +0.000 A 
ATOM      9  C   UNL     1       5.320   4.276  17.139  0.00  0.00    +0.000 C 
ENDROOT
BRANCH   1  13
ATOM     10  C   UNL     1       5.883   2.695  11.704  0.00  0.00    +0.000 C 
ATOM     11  C   UNL     1       6.327   3.676  12.746  0.00  0.00    +0.000 A 
ATOM     12  C   UNL     1       5.593   3.872  13.898  0.00  0.00    +0.000 A 
ATOM     13  C   UNL     1       6.037   4.829  14.796  0.00  0.00    +0.000 A 
ATOM     14  N   UNL     1       7.155   5.529  14.536  0.00  0.00    +0.000 NA
ATOM     15  C   UNL     1       7.811   5.270  13.398  0.00  0.00    +0.000 A 
ATOM     16  N   UNL     1       8.978   5.964  13.146  0.00  0.00    +0.000 N 
ATOM     17  N   UNL     1       7.454   4.359  12.495  0.00  0.00    +0.000 NA
ATOM     18  H   UNL     1       9.393   6.267  14.015  0.00  0.00    +0.000 HD
ATOM     19  H   UNL     1       9.554   5.419  12.518  0.00  0.00    +0.000 HD
ENDBRANCH   1  13
BRANCH   6  20
ATOM     20  C   UNL     1       2.307   4.900  21.051  0.00  0.00    +0.000 C 
BRANCH  20  21
ATOM     21  C   UNL     1       1.204   3.850  20.799  0.00  0.00    +0.000 C 
ATOM     22  C   UNL     1       1.013   3.542  19.311  0.00  0.00    +0.000 C 
ATOM     23  C   UNL     1       1.536   2.551  21.541  0.00  0.00    +0.000 C 
ENDBRANCH  20  21
ENDBRANCH   6  20
TORSDOF 3
ENDMDL
MODEL 2
REMARK VINA RESULT:      -7.9      1.465      7.463
REMARK  Name = 
REMARK  6 active torsions:
REMARK  status: ('A' for Active; 'I' for Inactive)
REMARK    1  A    between atoms: C_1  and  C_2
REMARK    2  A    between atoms: C_4  and  N_5
REMARK    3  A    between atoms: C_10  and  C_11
REMARK    4  A    between atoms: C_11  and  C_12
REMARK    5  A    between atoms: C_12  and  C_13
REMARK    6  A    between atoms: C_12  and  C_14
REMARK                            x       y       z     vdW  Elec       q    Type
REMARK                         _______ _______ _______ _____ _____    ______ ____
ROOT
ATOM      1  N   UNL     1       4.249   4.819  17.847  0.00  0.00    +0.000 N 
ATOM      2  C   UNL     1       5.470   5.631  17.758  0.00  0.00    +0.000 C 
ATOM      3  C   UNL     1       5.974   5.279  16.401  0.00  0.00    +0.000 A 
ATOM      4  C   UNL     1       7.163   5.515  15.778  0.00  0.00    +0.000 A 
ATOM      5  N   UNL     1       7.423   5.047  14.535  0.00  0.00    +0.000 NA
ATOM      6  C   UNL     1       6.453   4.320  13.927  0.00  0.00    +0.000 A 
ATOM      7  N   UNL     1       5.237   4.061  14.454  0.00  0.00    +0.000 NA
ATOM      8  C   UNL     1       5.043   4.558  15.686  0.00  0.00    +0.000 A 
ATOM      9  C   UNL     1       3.801   4.370  16.522  0.00  0.00    +0.000 C 
ENDROOT
BRANCH   1  13
ATOM     10  C   UNL     1       2.213   2.527  21.676  0.00  0.00    +0.000 C 
ATOM     11  C   UNL     1       2.469   3.737  20.829  0.00  0.00    +0.000 A 
ATOM     12  C   UNL     1       3.224   3.653  19.677  0.00  0.00    +0.000 A 
ATOM     13  C   UNL     1       3.461   4.820  18.970  0.00  0.00    +0.000 A 
ATOM     14  N   UNL     1       2.954   5.987  19.405  0.00  0.00    +0.000 NA
ATOM     15  C   UNL     1       2.227   5.977  20.529  0.00  0.00    +0.000 A 
ATOM     16  N   UNL     1       1.679   7.169  20.960  0.00  0.00    +0.000 N 
ATOM     17  N   UNL     1       1.947   4.897  21.255  0.00  0.00    +0.000 NA
ATOM     18  H   UNL     1       1.554   7.794  20.178  0.00  0.00    +0.000 HD
ATOM     19  H   UNL     1       0.868   6.968  21.532  0.00  0.00    +0.000 HD
ENDBRANCH   1  13
BRANCH   6  20
ATOM     20  C   UNL     1       6.750   3.745  12.562  0.00  0.00    +0.000 C 
BRANCH  20  21
ATOM     21  C   UNL     1       5.745   2.672  12.094  0.00  0.00    +0.000 C 
ATOM     22  C   UNL     1       4.542   3.272  11.360  0.00  0.00    +0.000 C 
ATOM     23  C   UNL     1       6.441   1.664  11.174  0.00  0.00    +0.000 C 
ENDBRANCH  20  21
ENDBRANCH   6  20
TORSDOF 3
ENDMDL
MODEL 3
REMARK VINA RESULT:      -7.9      1.144      1.223
REMARK  Name = 
REMARK  6 active torsions:
REMARK  status: ('A' for Active; 'I' for Inactive)
REMARK    1  A    between atoms: C_1  and  C_2
REMARK    2  A    between atoms: C_4  and  N_5
REMARK    3  A    between atoms: C_10  and  C_11
REMARK    4  A    between atoms: C_11  and  C_12
REMARK    5  A    between atoms: C_12  and  C_13
REMARK    6  A    between atoms: C_12  and  C_14
REMARK                            x       y       z     vdW  Elec       q    Type
REMARK                         _______ _______ _______ _____ _____    ______ ____
ROOT
ATOM      1  N   UNL     1       5.641   4.582  15.854  0.00  0.00    +0.000 N 
ATOM      2  C   UNL     1       6.391   4.808  17.096  0.00  0.00    +0.000 C 
ATOM      3  C   UNL     1       5.300   4.869  18.108  0.00  0.00    +0.000 A 
ATOM      4  C   UNL     1       5.284   5.258  19.414  0.00  0.00    +0.000 A 
ATOM      5  N   UNL     1       4.141   5.279  20.139  0.00  0.00    +0.000 NA
ATOM      6  C   UNL     1       2.999   4.903  19.514  0.00  0.00    +0.000 A 
ATOM      7  N   UNL     1       2.923   4.475  18.234  0.00  0.00    +0.000 NA
ATOM      8  C   UNL     1       4.092   4.475  17.574  0.00  0.00    +0.000 A 
ATOM      9  C   UNL     1       4.280   4.098  16.126  0.00  0.00    +0.000 C 
ENDROOT
BRANCH   1  13
ATOM     10  C   UNL     1       6.026   2.662  11.357  0.00  0.00    +0.000 C 
ATOM     11  C   UNL     1       6.473   3.573  12.460  0.00  0.00    +0.000 A 
ATOM     12  C   UNL     1       5.832   3.580  13.682  0.00  0.00    +0.000 A 
ATOM     13  C   UNL     1       6.268   4.482  14.638  0.00  0.00    +0.000 A 
ATOM     14  N   UNL     1       7.291   5.310  14.366  0.00  0.00    +0.000 NA
ATOM     15  C   UNL     1       7.861   5.232  13.158  0.00  0.00    +0.000 A 
ATOM     16  N   UNL     1       8.934   6.060  12.889  0.00  0.00    +0.000 N 
ATOM     17  N   UNL     1       7.507   4.385  12.193  0.00  0.00    +0.000 NA
ATOM     18  H   UNL     1       9.397   6.313  13.748  0.00  0.00    +0.000 HD
ATOM     19  H   UNL     1       9.496   5.639  12.160  0.00  0.00    +0.000 HD
ENDBRANCH   1  13
BRANCH   6  20
ATOM     20  C   UNL     1       1.707   4.973  20.295  0.00  0.00    +0.000 C 
BRANCH  20  21
ATOM     21  C   UNL     1       1.131   3.597  20.691  0.00  0.00    +0.000 C 
ATOM     22  C   UNL     1       0.767   2.740  19.475  0.00  0.00    +0.000 C 
ATOM     23  C   UNL     1       2.137   2.834  21.559  0.00  0.00    +0.000 C 
ENDBRANCH  20  21
ENDBRANCH   6  20
TORSDOF 3
ENDMDL
MODEL 4
REMARK VINA RESULT:      -7.7      1.578      7.555
REMARK  Name = 
REMARK  6 active torsions:
REMARK  status: ('A' for Active; 'I' for Inactive)
REMARK    1  A    between atoms: C_1  and  C_2
REMARK    2  A    between atoms: C_4  and  N_5
REMARK    3  A    between atoms: C_10  and  C_11
REMARK    4  A    between atoms: C_11  and  C_12
REMARK    5  A    between atoms: C_12  and  C_13
REMARK    6  A    between atoms: C_12  and  C_14
REMARK                            x       y       z     vdW  Elec       q    Type
REMARK                         _______ _______ _______ _____ _____    ______ ____
ROOT
ATOM      1  N   UNL     1       4.323   4.823  17.914  0.00  0.00    +0.000 N 
ATOM      2  C   UNL     1       5.524   5.657  17.777  0.00  0.00    +0.000 C 
ATOM      3  C   UNL     1       5.999   5.291  16.413  0.00  0.00    +0.000 A 
ATOM      4  C   UNL     1       7.165   5.539  15.754  0.00  0.00    +0.000 A 
ATOM      5  N   UNL     1       7.401   5.053  14.512  0.00  0.00    +0.000 NA
ATOM      6  C   UNL     1       6.430   4.296  13.944  0.00  0.00    +0.000 A 
ATOM      7  N   UNL     1       5.234   4.022  14.508  0.00  0.00    +0.000 NA
ATOM      8  C   UNL     1       5.064   4.538  15.737  0.00  0.00    +0.000 A 
ATOM      9  C   UNL     1       3.849   4.341  16.609  0.00  0.00    +0.000 C 
ENDROOT
BRANCH   1  13
ATOM     10  C   UNL     1       1.217   7.027  21.005  0.00  0.00    +0.000 C 
ATOM     11  C   UNL     1       2.062   5.870  20.563  0.00  0.00    +0.000 A 
ATOM     12  C   UNL     1       2.848   5.953  19.433  0.00  0.00    +0.000 A 
ATOM     13  C   UNL     1       3.565   4.829  19.057  0.00  0.00    +0.000 A 
ATOM     14  N   UNL     1       3.489   3.705  19.790  0.00  0.00    +0.000 NA
ATOM     15  C   UNL     1       2.707   3.713  20.877  0.00  0.00    +0.000 A 
ATOM     16  N   UNL     1       2.654   2.570  21.649  0.00  0.00    +0.000 N 
ATOM     17  N   UNL     1       2.000   4.755  21.307  0.00  0.00    +0.000 NA
ATOM     18  H   UNL     1       3.501   2.035  21.531  0.00  0.00    +0.000 HD
ATOM     19  H   UNL     1       2.388   2.824  22.592  0.00  0.00    +0.000 HD
ENDBRANCH   1  13
BRANCH   6  20
ATOM     20  C   UNL     1       6.702   3.702  12.581  0.00  0.00    +0.000 C 
BRANCH  20  21
ATOM     21  C   UNL     1       5.648   2.675  12.116  0.00  0.00    +0.000 C 
ATOM     22  C   UNL     1       4.486   3.326  11.360  0.00  0.00    +0.000 C 
ATOM     23  C   UNL     1       6.302   1.619  11.219  0.00  0.00    +0.000 C 
ENDBRANCH  20  21
ENDBRANCH   6  20
TORSDOF 3
ENDMDL
MODEL 5
REMARK VINA RESULT:      -7.4      2.649      7.786
REMARK  Name = 
REMARK  6 active torsions:
REMARK  status: ('A' for Active; 'I' for Inactive)
REMARK    1  A    between atoms: C_1  and  C_2
REMARK    2  A    between atoms: C_4  and  N_5
REMARK    3  A    between atoms: C_10  and  C_11
REMARK    4  A    between atoms: C_11  and  C_12
REMARK    5  A    between atoms: C_12  and  C_13
REMARK    6  A    between atoms: C_12  and  C_14
REMARK                            x       y       z     vdW  Elec       q    Type
REMARK                         _______ _______ _______ _____ _____    ______ ____
ROOT
ATOM      1  N   UNL     1       2.560   7.117  18.750  0.00  0.00    +0.000 N 
ATOM      2  C   UNL     1       2.484   5.765  19.317  0.00  0.00    +0.000 C 
ATOM      3  C   UNL     1       3.368   4.996  18.398  0.00  0.00    +0.000 A 
ATOM      4  C   UNL     1       3.573   3.659  18.233  0.00  0.00    +0.000 A 
ATOM      5  N   UNL     1       4.404   3.176  17.279  0.00  0.00    +0.000 NA
ATOM      6  C   UNL     1       5.029   4.078  16.482  0.00  0.00    +0.000 A 
ATOM      7  N   UNL     1       4.910   5.419  16.591  0.00  0.00    +0.000 NA
ATOM      8  C   UNL     1       4.074   5.829  17.559  0.00  0.00    +0.000 A 
ATOM      9  C   UNL     1       3.720   7.264  17.859  0.00  0.00    +0.000 C 
ENDROOT
BRANCH   1  13
ATOM     10  C   UNL     1       0.426   9.369  22.548  0.00  0.00    +0.000 C 
ATOM     11  C   UNL     1       0.826   9.277  21.107  0.00  0.00    +0.000 A 
ATOM     12  C   UNL     1       1.477   8.163  20.618  0.00  0.00    +0.000 A 
ATOM     13  C   UNL     1       1.860   8.167  19.287  0.00  0.00    +0.000 A 
ATOM     14  N   UNL     1       1.589   9.231  18.511  0.00  0.00    +0.000 NA
ATOM     15  C   UNL     1       0.947  10.267  19.064  0.00  0.00    +0.000 A 
ATOM     16  N   UNL     1       0.639  11.346  18.260  0.00  0.00    +0.000 N 
ATOM     17  N   UNL     1       0.537  10.332  20.329  0.00  0.00    +0.000 NA
ATOM     18  H   UNL     1       0.570  11.051  17.298  0.00  0.00    +0.000 HD
ATOM     19  H   UNL     1      -0.154  11.834  18.657  0.00  0.00    +0.000 HD
ENDBRANCH   1  13
BRANCH   6  20
ATOM     20  C   UNL     1       5.918   3.552  15.379  0.00  0.00    +0.000 C 
BRANCH  20  21
ATOM     21  C   UNL     1       5.940   4.431  14.110  0.00  0.00    +0.000 C 
ATOM     22  C   UNL     1       7.322   5.034  13.837  0.00  0.00    +0.000 C 
ATOM     23  C   UNL     1       5.502   3.609  12.893  0.00  0.00    +0.000 C 
ENDBRANCH  20  21
ENDBRANCH   6  20
TORSDOF 3
ENDMDL
MODEL 6
REMARK VINA RESULT:      -7.4      3.207      4.912
REMARK  Name = 
REMARK  6 active torsions:
REMARK  status: ('A' for Active; 'I' for Inactive)
REMARK    1  A    between atoms: C_1  and  C_2
REMARK    2  A    between atoms: C_4  and  N_5
REMARK    3  A    between atoms: C_10  and  C_11
REMARK    4  A    between atoms: C_11  and  C_12
REMARK    5  A    between atoms: C_12  and  C_13
REMARK    6  A    between atoms: C_12  and  C_14
REMARK                            x       y       z     vdW  Elec       q    Type
REMARK                         _______ _______ _______ _____ _____    ______ ____
ROOT
ATOM      1  N   UNL     1       3.933   6.419  18.178  0.00  0.00    +0.000 N 
ATOM      2  C   UNL     1       3.285   5.950  19.409  0.00  0.00    +0.000 C 
ATOM      3  C   UNL     1       2.352   7.072  19.711  0.00  0.00    +0.000 A 
ATOM      4  C   UNL     1       1.611   7.373  20.815  0.00  0.00    +0.000 A 
ATOM      5  N   UNL     1       0.859   8.496  20.886  0.00  0.00    +0.000 NA
ATOM      6  C   UNL     1       0.873   9.324  19.813  0.00  0.00    +0.000 A 
ATOM      7  N   UNL     1       1.552   9.095  18.668  0.00  0.00    +0.000 NA
ATOM      8  C   UNL     1       2.273   7.962  18.663  0.00  0.00    +0.000 A 
ATOM      9  C   UNL     1       3.162   7.494  17.537  0.00  0.00    +0.000 C 
ENDROOT
BRANCH   1  13
ATOM     10  C   UNL     1       5.766   4.235  14.187  0.00  0.00    +0.000 C 
ATOM     11  C   UNL     1       5.814   4.626  15.633  0.00  0.00    +0.000 A 
ATOM     12  C   UNL     1       4.772   5.314  16.220  0.00  0.00    +0.000 A 
ATOM     13  C   UNL     1       4.905   5.685  17.548  0.00  0.00    +0.000 A 
ATOM     14  N   UNL     1       6.020   5.367  18.228  0.00  0.00    +0.000 NA
ATOM     15  C   UNL     1       6.980   4.691  17.584  0.00  0.00    +0.000 A 
ATOM     16  N   UNL     1       8.111   4.335  18.290  0.00  0.00    +0.000 N 
ATOM     17  N   UNL     1       6.919   4.290  16.315  0.00  0.00    +0.000 NA
ATOM     18  H   UNL     1       7.897   4.269  19.274  0.00  0.00    +0.000 HD
ATOM     19  H   UNL     1       8.532   3.528  17.848  0.00  0.00    +0.000 HD
ENDBRANCH   1  13
BRANCH   6  20
ATOM     20  C   UNL     1       0.081  10.609  19.899  0.00  0.00    +0.000 C 
BRANCH  20  21
ATOM     21  C   UNL     1      -0.554  11.052  18.564  0.00  0.00    +0.000 C 
ATOM     22  C   UNL     1      -1.888  10.353  18.286  0.00  0.00    +0.000 C 
ATOM     23  C   UNL     1      -0.773  12.569  18.563  0.00  0.00    +0.000 C 
ENDBRANCH  20  21
ENDBRANCH   6  20
TORSDOF 3
ENDMDL
MODEL 7
REMARK VINA RESULT:      -7.3      4.043      8.568
REMARK  Name = 
REMARK  6 active torsions:
REMARK  status: ('A' for Active; 'I' for Inactive)
REMARK    1  A    between atoms: C_1  and  C_2
REMARK    2  A    between atoms: C_4  and  N_5
REMARK    3  A    between atoms: C_10  and  C_11
REMARK    4  A    between atoms: C_11  and  C_12
REMARK    5  A    between atoms: C_12  and  C_13
REMARK    6  A    between atoms: C_12  and  C_14
REMARK                            x       y       z     vdW  Elec       q    Type
REMARK                         _______ _______ _______ _____ _____    ______ ____
ROOT
ATOM      1  N   UNL     1       1.293   8.934  19.262  0.00  0.00    +0.000 N 
ATOM      2  C   UNL     1       1.624   7.969  20.318  0.00  0.00    +0.000 C 
ATOM      3  C   UNL     1       2.445   6.971  19.575  0.00  0.00    +0.000 A 
ATOM      4  C   UNL     1       2.891   5.727  19.905  0.00  0.00    +0.000 A 
ATOM      5  N   UNL     1       3.593   4.965  19.033  0.00  0.00    +0.000 NA
ATOM      6  C   UNL     1       3.834   5.485  17.805  0.00  0.00    +0.000 A 
ATOM      7  N   UNL     1       3.458   6.718  17.400  0.00  0.00    +0.000 NA
ATOM      8  C   UNL     1       2.770   7.421  18.314  0.00  0.00    +0.000 A 
ATOM      9  C   UNL     1       2.188   8.797  18.104  0.00  0.00    +0.000 C 
ENDROOT
BRANCH   1  13
ATOM     10  C   UNL     1      -0.840  12.092  22.350  0.00  0.00    +0.000 C 
ATOM     11  C   UNL     1      -0.526  11.575  20.979  0.00  0.00    +0.000 A 
ATOM     12  C   UNL     1       0.218  10.426  20.804  0.00  0.00    +0.000 A 
ATOM     13  C   UNL     1       0.511  10.034  19.508  0.00  0.00    +0.000 A 
ATOM     14  N   UNL     1       0.068  10.760  18.468  0.00  0.00    +0.000 NA
ATOM     15  C   UNL     1      -0.654  11.858  18.727  0.00  0.00    +0.000 A 
ATOM     16  N   UNL     1      -1.138  12.586  17.659  0.00  0.00    +0.000 N 
ATOM     17  N   UNL     1      -0.986  12.290  19.942  0.00  0.00    +0.000 NA
ATOM     18  H   UNL     1      -1.234  11.990  16.850  0.00  0.00    +0.000 HD
ATOM     19  H   UNL     1      -1.955  13.102  17.958  0.00  0.00    +0.000 HD
ENDBRANCH   1  13
BRANCH   6  20
ATOM     20  C   UNL     1       4.570   4.625  16.803  0.00  0.00    +0.000 C 
BRANCH  20  21
ATOM     21  C   UNL     1       5.510   5.410  15.864  0.00  0.00    +0.000 C 
ATOM     22  C   UNL     1       6.867   5.711  16.508  0.00  0.00    +0.000 C 
ATOM     23  C   UNL     1       5.734   4.625  14.567  0.00  0.00    +0.000 C 
ENDBRANCH  20  21
ENDBRANCH   6  20
TORSDOF 3
ENDMDL
MODEL 8
REMARK VINA RESULT:      -7.3      3.310      8.131
REMARK  Name = 
REMARK  6 active torsions:
REMARK  status: ('A' for Active; 'I' for Inactive)
REMARK    1  A    between atoms: C_1  and  C_2
REMARK    2  A    between atoms: C_4  and  N_5
REMARK    3  A    between atoms: C_10  and  C_11
REMARK    4  A    between atoms: C_11  and  C_12
REMARK    5  A    between atoms: C_12  and  C_13
REMARK    6  A    between atoms: C_12  and  C_14
REMARK                            x       y       z     vdW  Elec       q    Type
REMARK                         _______ _______ _______ _____ _____    ______ ____
ROOT
ATOM      1  N   UNL     1       1.912   7.966  19.313  0.00  0.00    +0.000 N 
ATOM      2  C   UNL     1       2.152   6.847  20.233  0.00  0.00    +0.000 C 
ATOM      3  C   UNL     1       2.938   5.912  19.380  0.00  0.00    +0.000 A 
ATOM      4  C   UNL     1       3.301   4.609  19.547  0.00  0.00    +0.000 A 
ATOM      5  N   UNL     1       3.986   3.932  18.596  0.00  0.00    +0.000 NA
ATOM      6  C   UNL     1       4.297   4.598  17.457  0.00  0.00    +0.000 A 
ATOM      7  N   UNL     1       4.006   5.895  17.217  0.00  0.00    +0.000 NA
ATOM      8  C   UNL     1       3.330   6.508  18.202  0.00  0.00    +0.000 A 
ATOM      9  C   UNL     1       2.835   7.933  18.170  0.00  0.00    +0.000 C 
ENDROOT
BRANCH   1  13
ATOM     10  C   UNL     1      -0.537  10.561  22.678  0.00  0.00    +0.000 C 
ATOM     11  C   UNL     1       0.003  10.342  21.298  0.00  0.00    +0.000 A 
ATOM     12  C   UNL     1       0.673   9.182  20.970  0.00  0.00    +0.000 A 
ATOM     13  C   UNL     1       1.187   9.068  19.689  0.00  0.00    +0.000 A 
ATOM     14  N   UNL     1       1.020  10.067  18.805  0.00  0.00    +0.000 NA
ATOM     15  C   UNL     1       0.350  11.156  19.203  0.00  0.00    +0.000 A 
ATOM     16  N   UNL     1       0.149  12.168  18.286  0.00  0.00    +0.000 N 
ATOM     17  N   UNL     1      -0.182  11.332  20.411  0.00  0.00    +0.000 NA
ATOM     18  H   UNL     1       0.170  11.794  17.350  0.00  0.00    +0.000 HD
ATOM     19  H   UNL     1      -0.668  12.699  18.560  0.00  0.00    +0.000 HD
ENDBRANCH   1  13
BRANCH   6  20
ATOM     20  C   UNL     1       5.015   3.839  16.365  0.00  0.00    +0.000 C 
BRANCH  20  21
ATOM     21  C   UNL     1       5.748   4.737  15.346  0.00  0.00    +0.000 C 
ATOM     22  C   UNL     1       7.186   5.052  15.767  0.00  0.00    +0.000 C 
ATOM     23  C   UNL     1       5.765   4.065  13.969  0.00  0.00    +0.000 C 
ENDBRANCH  20  21
ENDBRANCH   6  20
TORSDOF 3
ENDMDL
MODEL 9
REMARK VINA RESULT:      -7.2      3.262      8.354
REMARK  Name = 
REMARK  6 active torsions:
REMARK  status: ('A' for Active; 'I' for Inactive)
REMARK    1  A    between atoms: C_1  and  C_2
REMARK    2  A    between atoms: C_4  and  N_5
REMARK    3  A    between atoms: C_10  and  C_11
REMARK    4  A    between atoms: C_11  and  C_12
REMARK    5  A    between atoms: C_12  and  C_13
REMARK    6  A    between atoms: C_12  and  C_14
REMARK                            x       y       z     vdW  Elec       q    Type
REMARK                         _______ _______ _______ _____ _____    ______ ____
ROOT
ATOM      1  N   UNL     1       1.771   7.617  19.854  0.00  0.00    +0.000 N 
ATOM      2  C   UNL     1       2.030   6.403  20.638  0.00  0.00    +0.000 C 
ATOM      3  C   UNL     1       2.770   5.557  19.660  0.00  0.00    +0.000 A 
ATOM      4  C   UNL     1       3.121   4.240  19.671  0.00  0.00    +0.000 A 
ATOM      5  N   UNL     1       3.760   3.663  18.627  0.00  0.00    +0.000 NA
ATOM      6  C   UNL     1       4.037   4.445  17.555  0.00  0.00    +0.000 A 
ATOM      7  N   UNL     1       3.755   5.763  17.467  0.00  0.00    +0.000 NA
ATOM      8  C   UNL     1       3.125   6.273  18.538  0.00  0.00    +0.000 A 
ATOM      9  C   UNL     1       2.649   7.698  18.678  0.00  0.00    +0.000 C 
ENDROOT
BRANCH   1  13
ATOM     10  C   UNL     1      -0.411  11.982  19.368  0.00  0.00    +0.000 C 
ATOM     11  C   UNL     1       0.011  10.785  20.164  0.00  0.00    +0.000 A 
ATOM     12  C   UNL     1       0.762   9.778  19.593  0.00  0.00    +0.000 A 
ATOM     13  C   UNL     1       1.076   8.679  20.374  0.00  0.00    +0.000 A 
ATOM     14  N   UNL     1       0.658   8.617  21.650  0.00  0.00    +0.000 NA
ATOM     15  C   UNL     1      -0.061   9.641  22.128  0.00  0.00    +0.000 A 
ATOM     16  N   UNL     1      -0.463   9.595  23.448  0.00  0.00    +0.000 N 
ATOM     17  N   UNL     1      -0.390  10.735  21.443  0.00  0.00    +0.000 NA
ATOM     18  H   UNL     1       0.167   9.012  23.979  0.00  0.00    +0.000 HD
ATOM     19  H   UNL     1      -0.616  10.540  23.776  0.00  0.00    +0.000 HD
ENDBRANCH   1  13
BRANCH   6  20
ATOM     20  C   UNL     1       4.702   3.801  16.361  0.00  0.00    +0.000 C 
BRANCH  20  21
ATOM     21  C   UNL     1       5.841   4.639  15.741  0.00  0.00    +0.000 C 
ATOM     22  C   UNL     1       7.130   4.580  16.566  0.00  0.00    +0.000 C 
ATOM     23  C   UNL     1       6.134   4.157  14.316  0.00  0.00    +0.000 C 
ENDBRANCH  20  21
ENDBRANCH   6  20
TORSDOF 3
ENDMDL
