MODEL 1
REMARK VINA RESULT:      -8.4      0.000      0.000
REMARK  Name = 
REMARK  9 active torsions:
REMARK  status: ('A' for Active; 'I' for Inactive)
REMARK    1  A    between atoms: C_2  and  C_3
REMARK    2  A    between atoms: C_3  and  O_4
REMARK    3  A    between atoms: O_4  and  C_5
REMARK    4  A    between atoms: N_13  and  N_14
REMARK    5  A    between atoms: N_14  and  C_15
REMARK    6  A    between atoms: C_15  and  N_17
REMARK    7  A    between atoms: N_17  and  C_18
REMARK    8  A    between atoms: C_18  and  C_19
REMARK    9  A    between atoms: C_22  and  C_23
REMARK                            x       y       z     vdW  Elec       q    Type
REMARK                         _______ _______ _______ _____ _____    ______ ____
ROOT
ATOM      1  C   UNL     1       5.480   4.894  18.655  0.00  0.00    +0.000 C 
ATOM      2  S   UNL     1       4.777   3.500  19.274  0.00  0.00    +0.000 S 
ENDROOT
BRANCH   1   3
ATOM      3  N   UNL     1       6.828   5.177  18.814  0.00  0.00    +0.000 N 
ATOM      4  H   UNL     1       7.563   4.475  18.713  0.00  0.00    +0.000 HD
BRANCH   3   7
ATOM      5  O   UNL     1       7.628   6.449  16.505  0.00  0.00    +0.000 OA
ATOM      6  C   UNL     1       7.582   7.083  17.551  0.00  0.00    +0.000 C 
ATOM      7  N   UNL     1       7.255   6.514  18.767  0.00  0.00    +0.000 N 
ATOM      8  H   UNL     1       6.992   7.087  19.566  0.00  0.00    +0.000 HD
BRANCH   6   9
ATOM      9  C   UNL     1       7.918   8.573  17.653  0.00  0.00    +0.000 C 
BRANCH   9  10
ATOM     10  O   UNL     1       8.732   8.838  18.790  0.00  0.00    +0.000 OA
BRANCH  10  11
ATOM     11  C   UNL     1       9.162  10.132  18.931  0.00  0.00    +0.000 A 
ATOM     12  C   UNL     1       9.568  10.968  17.889  0.00  0.00    +0.000 A 
ATOM     13  C   UNL     1       9.994  12.274  18.155  0.00  0.00    +0.000 A 
ATOM     14  C   UNL     1      10.012  12.759  19.463  0.00  0.00    +0.000 A 
ATOM     15 CL   UNL     1      10.568  14.373  19.716  0.00  0.00    +0.000 Cl
ATOM     16  C   UNL     1       9.584  11.935  20.509  0.00  0.00    +0.000 A 
ATOM     17 CL   UNL     1       9.571  12.465  22.154  0.00  0.00    +0.000 Cl
ATOM     18  C   UNL     1       9.153  10.630  20.238  0.00  0.00    +0.000 A 
ENDBRANCH  10  11
ENDBRANCH   9  10
ENDBRANCH   6   9
ENDBRANCH   3   7
ENDBRANCH   1   3
BRANCH   1  19
ATOM     19  N   UNL     1       4.810   5.893  17.984  0.00  0.00    +0.000 N 
ATOM     20  H   UNL     1       5.233   6.809  17.996  0.00  0.00    +0.000 HD
BRANCH  19  21
ATOM     21  C   UNL     1       3.381   5.892  17.691  0.00  0.00    +0.000 C 
BRANCH  21  22
ATOM     22  C   UNL     1       2.663   6.883  18.580  0.00  0.00    +0.000 A 
ATOM     23  C   UNL     1       2.320   6.543  19.890  0.00  0.00    +0.000 A 
ATOM     24  C   UNL     1       1.621   7.447  20.701  0.00  0.00    +0.000 A 
ATOM     25  C   UNL     1       1.242   8.722  20.240  0.00  0.00    +0.000 A 
ATOM     26  C   UNL     1       1.588   9.045  18.917  0.00  0.00    +0.000 A 
ATOM     27  C   UNL     1       2.281   8.141  18.100  0.00  0.00    +0.000 A 
BRANCH  25  28
ATOM     28  C   UNL     1       0.514   9.674  21.116  0.00  0.00    +0.000 A 
ATOM     29  C   UNL     1      -0.104   9.246  22.307  0.00  0.00    +0.000 A 
ATOM     30  C   UNL     1      -0.818  10.128  23.125  0.00  0.00    +0.000 A 
ATOM     31  C   UNL     1      -0.919  11.471  22.779  0.00  0.00    +0.000 A 
ATOM     32  C   UNL     1      -0.308  11.929  21.617  0.00  0.00    +0.000 A 
ATOM     33  C   UNL     1       0.395  11.040  20.794  0.00  0.00    +0.000 A 
ENDBRANCH  25  28
ENDBRANCH  21  22
ENDBRANCH  19  21
ENDBRANCH   1  19
TORSDOF 9
ENDMDL
MODEL 2
REMARK VINA RESULT:      -8.2      1.458      1.775
REMARK  Name = 
REMARK  9 active torsions:
REMARK  status: ('A' for Active; 'I' for Inactive)
REMARK    1  A    between atoms: C_2  and  C_3
REMARK    2  A    between atoms: C_3  and  O_4
REMARK    3  A    between atoms: O_4  and  C_5
REMARK    4  A    between atoms: N_13  and  N_14
REMARK    5  A    between atoms: N_14  and  C_15
REMARK    6  A    between atoms: C_15  and  N_17
REMARK    7  A    between atoms: N_17  and  C_18
REMARK    8  A    between atoms: C_18  and  C_19
REMARK    9  A    between atoms: C_22  and  C_23
REMARK                            x       y       z     vdW  Elec       q    Type
REMARK                         _______ _______ _______ _____ _____    ______ ____
ROOT
ATOM      1  C   UNL     1       5.864   6.011  16.364  0.00  0.00    +0.000 C 
ATOM      2  S   UNL     1       5.503   4.997  15.075  0.00  0.00    +0.000 S 
ENDROOT
BRANCH   1   3
ATOM      3  N   UNL     1       7.161   6.408  16.654  0.00  0.00    +0.000 N 
ATOM      4  H   UNL     1       7.977   5.818  16.483  0.00  0.00    +0.000 HD
BRANCH   3   7
ATOM      5  O   UNL     1       8.442   7.398  18.883  0.00  0.00    +0.000 OA
ATOM      6  C   UNL     1       8.127   8.167  17.984  0.00  0.00    +0.000 C 
ATOM      7  N   UNL     1       7.427   7.771  16.860  0.00  0.00    +0.000 N 
ATOM      8  H   UNL     1       7.384   8.357  16.029  0.00  0.00    +0.000 HD
BRANCH   6   9
ATOM      9  C   UNL     1       8.434   9.667  18.006  0.00  0.00    +0.000 C 
BRANCH   9  10
ATOM     10  O   UNL     1       8.873  10.081  19.295  0.00  0.00    +0.000 OA
BRANCH  10  11
ATOM     11  C   UNL     1       9.702  11.172  19.324  0.00  0.00    +0.000 A 
ATOM     12  C   UNL     1      10.660  11.486  18.359  0.00  0.00    +0.000 A 
ATOM     13  C   UNL     1      11.455  12.629  18.497  0.00  0.00    +0.000 A 
ATOM     14  C   UNL     1      11.298  13.470  19.599  0.00  0.00    +0.000 A 
ATOM     15 CL   UNL     1      12.330  14.850  19.712  0.00  0.00    +0.000 Cl
ATOM     16  C   UNL     1      10.325  13.174  20.559  0.00  0.00    +0.000 A 
ATOM     17 CL   UNL     1      10.064  14.170  21.946  0.00  0.00    +0.000 Cl
ATOM     18  C   UNL     1       9.525  12.033  20.412  0.00  0.00    +0.000 A 
ENDBRANCH  10  11
ENDBRANCH   9  10
ENDBRANCH   6   9
ENDBRANCH   3   7
ENDBRANCH   1   3
BRANCH   1  19
ATOM     19  N   UNL     1       4.950   6.506  17.268  0.00  0.00    +0.000 N 
ATOM     20  H   UNL     1       5.315   7.081  18.012  0.00  0.00    +0.000 HD
BRANCH  19  21
ATOM     21  C   UNL     1       3.643   5.920  17.544  0.00  0.00    +0.000 C 
BRANCH  21  22
ATOM     22  C   UNL     1       2.835   6.836  18.435  0.00  0.00    +0.000 A 
ATOM     23  C   UNL     1       2.389   8.073  17.965  0.00  0.00    +0.000 A 
ATOM     24  C   UNL     1       1.672   8.938  18.803  0.00  0.00    +0.000 A 
ATOM     25  C   UNL     1       1.370   8.602  20.136  0.00  0.00    +0.000 A 
ATOM     26  C   UNL     1       1.832   7.358  20.595  0.00  0.00    +0.000 A 
ATOM     27  C   UNL     1       2.556   6.493  19.762  0.00  0.00    +0.000 A 
BRANCH  25  28
ATOM     28  C   UNL     1       0.598   9.524  21.007  0.00  0.00    +0.000 A 
ATOM     29  C   UNL     1       0.294   9.185  22.340  0.00  0.00    +0.000 A 
ATOM     30  C   UNL     1      -0.458  10.032  23.162  0.00  0.00    +0.000 A 
ATOM     31  C   UNL     1      -0.911  11.253  22.674  0.00  0.00    +0.000 A 
ATOM     32  C   UNL     1      -0.615  11.623  21.367  0.00  0.00    +0.000 A 
ATOM     33  C   UNL     1       0.126  10.766  20.543  0.00  0.00    +0.000 A 
ENDBRANCH  25  28
ENDBRANCH  21  22
ENDBRANCH  19  21
ENDBRANCH   1  19
TORSDOF 9
ENDMDL
MODEL 3
REMARK VINA RESULT:      -8.2      5.391      9.460
REMARK  Name = 
REMARK  9 active torsions:
REMARK  status: ('A' for Active; 'I' for Inactive)
REMARK    1  A    between atoms: C_2  and  C_3
REMARK    2  A    between atoms: C_3  and  O_4
REMARK    3  A    between atoms: O_4  and  C_5
REMARK    4  A    between atoms: N_13  and  N_14
REMARK    5  A    between atoms: N_14  and  C_15
REMARK    6  A    between atoms: C_15  and  N_17
REMARK    7  A    between atoms: N_17  and  C_18
REMARK    8  A    between atoms: C_18  and  C_19
REMARK    9  A    between atoms: C_22  and  C_23
REMARK                            x       y       z     vdW  Elec       q    Type
REMARK                         _______ _______ _______ _____ _____    ______ ____
ROOT
ATOM      1  C   UNL     1       7.642   7.408  17.829  0.00  0.00    +0.000 C 
ATOM      2  S   UNL     1       7.903   6.195  18.960  0.00  0.00    +0.000 S 
ENDROOT
BRANCH   1   3
ATOM      3  N   UNL     1       6.917   7.193  16.666  0.00  0.00    +0.000 N 
ATOM      4  H   UNL     1       7.155   7.624  15.771  0.00  0.00    +0.000 HD
BRANCH   3   7
ATOM      5  O   UNL     1       7.554   4.799  15.462  0.00  0.00    +0.000 OA
ATOM      6  C   UNL     1       6.473   4.915  16.025  0.00  0.00    +0.000 C 
ATOM      7  N   UNL     1       6.042   6.096  16.600  0.00  0.00    +0.000 N 
ATOM      8  H   UNL     1       5.266   6.114  17.258  0.00  0.00    +0.000 HD
BRANCH   6   9
ATOM      9  C   UNL     1       5.446   3.785  16.131  0.00  0.00    +0.000 C 
BRANCH   9  10
ATOM     10  O   UNL     1       4.123   4.301  16.230  0.00  0.00    +0.000 OA
BRANCH  10  11
ATOM     11  C   UNL     1       3.428   3.956  17.360  0.00  0.00    +0.000 A 
ATOM     12  C   UNL     1       2.086   4.251  17.606  0.00  0.00    +0.000 A 
ATOM     13  C   UNL     1       1.482   3.850  18.802  0.00  0.00    +0.000 A 
ATOM     14  C   UNL     1       2.212   3.146  19.761  0.00  0.00    +0.000 A 
ATOM     15 CL   UNL     1       1.404   2.703  21.222  0.00  0.00    +0.000 Cl
ATOM     16  C   UNL     1       3.550   2.826  19.511  0.00  0.00    +0.000 A 
ATOM     17 CL   UNL     1       4.516   1.952  20.645  0.00  0.00    +0.000 Cl
ATOM     18  C   UNL     1       4.149   3.224  18.309  0.00  0.00    +0.000 A 
ENDBRANCH  10  11
ENDBRANCH   9  10
ENDBRANCH   6   9
ENDBRANCH   3   7
ENDBRANCH   1   3
BRANCH   1  19
ATOM     19  N   UNL     1       8.138   8.691  17.908  0.00  0.00    +0.000 N 
ATOM     20  H   UNL     1       8.260   9.183  17.036  0.00  0.00    +0.000 HD
BRANCH  19  21
ATOM     21  C   UNL     1       8.934   9.214  19.013  0.00  0.00    +0.000 C 
BRANCH  21  22
ATOM     22  C   UNL     1       9.261  10.672  18.779  0.00  0.00    +0.000 A 
ATOM     23  C   UNL     1      10.189  11.331  19.589  0.00  0.00    +0.000 A 
ATOM     24  C   UNL     1      10.465  12.691  19.395  0.00  0.00    +0.000 A 
ATOM     25  C   UNL     1       9.832  13.443  18.389  0.00  0.00    +0.000 A 
ATOM     26  C   UNL     1       8.895  12.767  17.588  0.00  0.00    +0.000 A 
ATOM     27  C   UNL     1       8.611  11.409  17.782  0.00  0.00    +0.000 A 
BRANCH  25  28
ATOM     28  C   UNL     1      10.144  14.881  18.188  0.00  0.00    +0.000 A 
ATOM     29  C   UNL     1       9.538  15.878  18.977  0.00  0.00    +0.000 A 
ATOM     30  C   UNL     1       9.802  17.237  18.777  0.00  0.00    +0.000 A 
ATOM     31  C   UNL     1      10.696  17.635  17.790  0.00  0.00    +0.000 A 
ATOM     32  C   UNL     1      11.323  16.674  17.003  0.00  0.00    +0.000 A 
ATOM     33  C   UNL     1      11.045  15.315  17.197  0.00  0.00    +0.000 A 
ENDBRANCH  25  28
ENDBRANCH  21  22
ENDBRANCH  19  21
ENDBRANCH   1  19
TORSDOF 9
ENDMDL
MODEL 4
REMARK VINA RESULT:      -8.2      5.216      9.219
REMARK  Name = 
REMARK  9 active torsions:
REMARK  status: ('A' for Active; 'I' for Inactive)
REMARK    1  A    between atoms: C_2  and  C_3
REMARK    2  A    between atoms: C_3  and  O_4
REMARK    3  A    between atoms: O_4  and  C_5
REMARK    4  A    between atoms: N_13  and  N_14
REMARK    5  A    between atoms: N_14  and  C_15
REMARK    6  A    between atoms: C_15  and  N_17
REMARK    7  A    between atoms: N_17  and  C_18
REMARK    8  A    between atoms: C_18  and  C_19
REMARK    9  A    between atoms: C_22  and  C_23
REMARK                            x       y       z     vdW  Elec       q    Type
REMARK                         _______ _______ _______ _____ _____    ______ ____
ROOT
ATOM      1  C   UNL     1       8.076   7.152  18.360  0.00  0.00    +0.000 C 
ATOM      2  S   UNL     1       7.970   5.833  19.394  0.00  0.00    +0.000 S 
ENDROOT
BRANCH   1   3
ATOM      3  N   UNL     1       7.733   7.072  17.019  0.00  0.00    +0.000 N 
ATOM      4  H   UNL     1       8.397   7.239  16.261  0.00  0.00    +0.000 HD
BRANCH   3   7
ATOM      5  O   UNL     1       7.669   4.550  15.913  0.00  0.00    +0.000 OA
ATOM      6  C   UNL     1       6.615   5.120  16.160  0.00  0.00    +0.000 C 
ATOM      7  N   UNL     1       6.550   6.409  16.656  0.00  0.00    +0.000 N 
ATOM      8  H   UNL     1       5.696   6.774  17.073  0.00  0.00    +0.000 HD
BRANCH   6   9
ATOM      9  C   UNL     1       5.238   4.497  15.918  0.00  0.00    +0.000 C 
BRANCH   9  10
ATOM     10  O   UNL     1       4.213   5.261  16.545  0.00  0.00    +0.000 OA
BRANCH  10  11
ATOM     11  C   UNL     1       3.520   4.627  17.544  0.00  0.00    +0.000 A 
ATOM     12  C   UNL     1       2.159   4.787  17.813  0.00  0.00    +0.000 A 
ATOM     13  C   UNL     1       1.559   4.088  18.866  0.00  0.00    +0.000 A 
ATOM     14  C   UNL     1       2.312   3.219  19.657  0.00  0.00    +0.000 A 
ATOM     15 CL   UNL     1       1.508   2.408  20.951  0.00  0.00    +0.000 Cl
ATOM     16  C   UNL     1       3.671   3.036  19.380  0.00  0.00    +0.000 A 
ATOM     17 CL   UNL     1       4.667   1.974  20.308  0.00  0.00    +0.000 Cl
ATOM     18  C   UNL     1       4.266   3.733  18.319  0.00  0.00    +0.000 A 
ENDBRANCH  10  11
ENDBRANCH   9  10
ENDBRANCH   6   9
ENDBRANCH   3   7
ENDBRANCH   1   3
BRANCH   1  19
ATOM     19  N   UNL     1       8.539   8.402  18.709  0.00  0.00    +0.000 N 
ATOM     20  H   UNL     1       8.480   8.649  19.686  0.00  0.00    +0.000 HD
BRANCH  19  21
ATOM     21  C   UNL     1       8.641   9.541  17.804  0.00  0.00    +0.000 C 
BRANCH  21  22
ATOM     22  C   UNL     1       9.094  10.771  18.557  0.00  0.00    +0.000 A 
ATOM     23  C   UNL     1       9.307  11.977  17.886  0.00  0.00    +0.000 A 
ATOM     24  C   UNL     1       9.763  13.107  18.578  0.00  0.00    +0.000 A 
ATOM     25  C   UNL     1      10.018  13.080  19.962  0.00  0.00    +0.000 A 
ATOM     26  C   UNL     1       9.806  11.857  20.620  0.00  0.00    +0.000 A 
ATOM     27  C   UNL     1       9.357  10.722  19.931  0.00  0.00    +0.000 A 
BRANCH  25  28
ATOM     28  C   UNL     1      10.488  14.289  20.684  0.00  0.00    +0.000 A 
ATOM     29  C   UNL     1       9.984  14.624  21.955  0.00  0.00    +0.000 A 
ATOM     30  C   UNL     1      10.397  15.777  22.631  0.00  0.00    +0.000 A 
ATOM     31  C   UNL     1      11.344  16.619  22.059  0.00  0.00    +0.000 A 
ATOM     32  C   UNL     1      11.873  16.308  20.810  0.00  0.00    +0.000 A 
ATOM     33  C   UNL     1      11.446  15.160  20.130  0.00  0.00    +0.000 A 
ENDBRANCH  25  28
ENDBRANCH  21  22
ENDBRANCH  19  21
ENDBRANCH   1  19
TORSDOF 9
ENDMDL
MODEL 5
REMARK VINA RESULT:      -8.1      7.253     11.228
REMARK  Name = 
REMARK  9 active torsions:
REMARK  status: ('A' for Active; 'I' for Inactive)
REMARK    1  A    between atoms: C_2  and  C_3
REMARK    2  A    between atoms: C_3  and  O_4
REMARK    3  A    between atoms: O_4  and  C_5
REMARK    4  A    between atoms: N_13  and  N_14
REMARK    5  A    between atoms: N_14  and  C_15
REMARK    6  A    between atoms: C_15  and  N_17
REMARK    7  A    between atoms: N_17  and  C_18
REMARK    8  A    between atoms: C_18  and  C_19
REMARK    9  A    between atoms: C_22  and  C_23
REMARK                            x       y       z     vdW  Elec       q    Type
REMARK                         _______ _______ _______ _____ _____    ______ ____
ROOT
ATOM      1  C   UNL     1      -1.163  11.847  18.262  0.00  0.00    +0.000 C 
ATOM      2  S   UNL     1      -1.377  12.772  19.647  0.00  0.00    +0.000 S 
ENDROOT
BRANCH   1   3
ATOM      3  N   UNL     1      -1.983  11.975  17.151  0.00  0.00    +0.000 N 
ATOM      4  H   UNL     1      -1.652  11.847  16.194  0.00  0.00    +0.000 HD
BRANCH   3   7
ATOM      5  O   UNL     1      -3.399   9.665  17.647  0.00  0.00    +0.000 OA
ATOM      6  C   UNL     1      -3.992  10.735  17.625  0.00  0.00    +0.000 C 
ATOM      7  N   UNL     1      -3.376  11.936  17.323  0.00  0.00    +0.000 N 
ATOM      8  H   UNL     1      -3.817  12.827  17.539  0.00  0.00    +0.000 HD
BRANCH   6   9
ATOM      9  C   UNL     1      -5.492  10.878  17.892  0.00  0.00    +0.000 C 
BRANCH   9  10
ATOM     10  O   UNL     1      -5.807  12.184  18.363  0.00  0.00    +0.000 OA
BRANCH  10  11
ATOM     11  C   UNL     1      -6.191  12.271  19.676  0.00  0.00    +0.000 A 
ATOM     12  C   UNL     1      -7.345  11.705  20.220  0.00  0.00    +0.000 A 
ATOM     13  C   UNL     1      -7.637  11.865  21.579  0.00  0.00    +0.000 A 
ATOM     14  C   UNL     1      -6.777  12.587  22.407  0.00  0.00    +0.000 A 
ATOM     15 CL   UNL     1      -7.214  12.760  24.068  0.00  0.00    +0.000 Cl
ATOM     16  C   UNL     1      -5.607  13.138  21.873  0.00  0.00    +0.000 A 
ATOM     17 CL   UNL     1      -4.490  14.039  22.834  0.00  0.00    +0.000 Cl
ATOM     18  C   UNL     1      -5.315  12.970  20.513  0.00  0.00    +0.000 A 
ENDBRANCH  10  11
ENDBRANCH   9  10
ENDBRANCH   6   9
ENDBRANCH   3   7
ENDBRANCH   1   3
BRANCH   1  19
ATOM     19  N   UNL     1      -0.211  10.864  18.100  0.00  0.00    +0.000 N 
ATOM     20  H   UNL     1      -0.534   9.975  17.749  0.00  0.00    +0.000 HD
BRANCH  19  21
ATOM     21  C   UNL     1       1.062  10.806  18.809  0.00  0.00    +0.000 C 
BRANCH  21  22
ATOM     22  C   UNL     1       1.441   9.370  19.091  0.00  0.00    +0.000 A 
ATOM     23  C   UNL     1       1.234   8.816  20.357  0.00  0.00    +0.000 A 
ATOM     24  C   UNL     1       1.619   7.497  20.629  0.00  0.00    +0.000 A 
ATOM     25  C   UNL     1       2.220   6.680  19.653  0.00  0.00    +0.000 A 
ATOM     26  C   UNL     1       2.428   7.255  18.388  0.00  0.00    +0.000 A 
ATOM     27  C   UNL     1       2.051   8.577  18.113  0.00  0.00    +0.000 A 
BRANCH  25  28
ATOM     28  C   UNL     1       2.611   5.279  19.953  0.00  0.00    +0.000 A 
ATOM     29  C   UNL     1       1.950   4.533  20.948  0.00  0.00    +0.000 A 
ATOM     30  C   UNL     1       2.330   3.223  21.260  0.00  0.00    +0.000 A 
ATOM     31  C   UNL     1       3.372   2.617  20.568  0.00  0.00    +0.000 A 
ATOM     32  C   UNL     1       4.035   3.321  19.569  0.00  0.00    +0.000 A 
ATOM     33  C   UNL     1       3.661   4.638  19.269  0.00  0.00    +0.000 A 
ENDBRANCH  25  28
ENDBRANCH  21  22
ENDBRANCH  19  21
ENDBRANCH   1  19
TORSDOF 9
ENDMDL
MODEL 6
REMARK VINA RESULT:      -8.0      4.576      9.201
REMARK  Name = 
REMARK  9 active torsions:
REMARK  status: ('A' for Active; 'I' for Inactive)
REMARK    1  A    between atoms: C_2  and  C_3
REMARK    2  A    between atoms: C_3  and  O_4
REMARK    3  A    between atoms: O_4  and  C_5
REMARK    4  A    between atoms: N_13  and  N_14
REMARK    5  A    between atoms: N_14  and  C_15
REMARK    6  A    between atoms: C_15  and  N_17
REMARK    7  A    between atoms: N_17  and  C_18
REMARK    8  A    between atoms: C_18  and  C_19
REMARK    9  A    between atoms: C_22  and  C_23
REMARK                            x       y       z     vdW  Elec       q    Type
REMARK                         _______ _______ _______ _____ _____    ______ ____
ROOT
ATOM      1  C   UNL     1       7.880   7.418  17.885  0.00  0.00    +0.000 C 
ATOM      2  S   UNL     1       7.848   6.251  19.092  0.00  0.00    +0.000 S 
ENDROOT
BRANCH   1   3
ATOM      3  N   UNL     1       7.676   7.109  16.549  0.00  0.00    +0.000 N 
ATOM      4  H   UNL     1       8.417   7.143  15.847  0.00  0.00    +0.000 HD
BRANCH   3   7
ATOM      5  O   UNL     1       7.724   4.547  15.537  0.00  0.00    +0.000 OA
ATOM      6  C   UNL     1       6.645   5.090  15.737  0.00  0.00    +0.000 C 
ATOM      7  N   UNL     1       6.525   6.392  16.183  0.00  0.00    +0.000 N 
ATOM      8  H   UNL     1       5.650   6.742  16.567  0.00  0.00    +0.000 HD
BRANCH   6   9
ATOM      9  C   UNL     1       5.297   4.411  15.487  0.00  0.00    +0.000 C 
BRANCH   9  10
ATOM     10  O   UNL     1       5.016   3.443  16.492  0.00  0.00    +0.000 OA
BRANCH  10  11
ATOM     11  C   UNL     1       4.239   3.872  17.537  0.00  0.00    +0.000 A 
ATOM     12  C   UNL     1       3.962   3.141  18.693  0.00  0.00    +0.000 A 
ATOM     13  C   UNL     1       3.148   3.682  19.694  0.00  0.00    +0.000 A 
ATOM     14  C   UNL     1       2.608   4.961  19.551  0.00  0.00    +0.000 A 
ATOM     15 CL   UNL     1       1.596   5.554  20.818  0.00  0.00    +0.000 Cl
ATOM     16  C   UNL     1       2.900   5.708  18.406  0.00  0.00    +0.000 A 
ATOM     17 CL   UNL     1       2.275   7.300  18.159  0.00  0.00    +0.000 Cl
ATOM     18  C   UNL     1       3.721   5.165  17.409  0.00  0.00    +0.000 A 
ENDBRANCH  10  11
ENDBRANCH   9  10
ENDBRANCH   6   9
ENDBRANCH   3   7
ENDBRANCH   1   3
BRANCH   1  19
ATOM     19  N   UNL     1       8.146   8.756  18.079  0.00  0.00    +0.000 N 
ATOM     20  H   UNL     1       8.029   9.361  17.280  0.00  0.00    +0.000 HD
BRANCH  19  21
ATOM     21  C   UNL     1       9.010   9.296  19.122  0.00  0.00    +0.000 C 
BRANCH  21  22
ATOM     22  C   UNL     1       9.338  10.744  18.835  0.00  0.00    +0.000 A 
ATOM     23  C   UNL     1       8.631  11.453  17.861  0.00  0.00    +0.000 A 
ATOM     24  C   UNL     1       8.960  12.783  17.568  0.00  0.00    +0.000 A 
ATOM     25  C   UNL     1       9.999  13.458  18.237  0.00  0.00    +0.000 A 
ATOM     26  C   UNL     1      10.705  12.728  19.208  0.00  0.00    +0.000 A 
ATOM     27  C   UNL     1      10.384  11.395  19.498  0.00  0.00    +0.000 A 
BRANCH  25  28
ATOM     28  C   UNL     1      10.327  14.872  17.925  0.00  0.00    +0.000 A 
ATOM     29  C   UNL     1      11.578  15.231  17.387  0.00  0.00    +0.000 A 
ATOM     30  C   UNL     1      11.909  16.563  17.117  0.00  0.00    +0.000 A 
ATOM     31  C   UNL     1      10.986  17.573  17.363  0.00  0.00    +0.000 A 
ATOM     32  C   UNL     1       9.736  17.251  17.880  0.00  0.00    +0.000 A 
ATOM     33  C   UNL     1       9.413  15.917  18.161  0.00  0.00    +0.000 A 
ENDBRANCH  25  28
ENDBRANCH  21  22
ENDBRANCH  19  21
ENDBRANCH   1  19
TORSDOF 9
ENDMDL
MODEL 7
REMARK VINA RESULT:      -8.0      5.815     10.142
REMARK  Name = 
REMARK  9 active torsions:
REMARK  status: ('A' for Active; 'I' for Inactive)
REMARK    1  A    between atoms: C_2  and  C_3
REMARK    2  A    between atoms: C_3  and  O_4
REMARK    3  A    between atoms: O_4  and  C_5
REMARK    4  A    between atoms: N_13  and  N_14
REMARK    5  A    between atoms: N_14  and  C_15
REMARK    6  A    between atoms: C_15  and  N_17
REMARK    7  A    between atoms: N_17  and  C_18
REMARK    8  A    between atoms: C_18  and  C_19
REMARK    9  A    between atoms: C_22  and  C_23
REMARK                            x       y       z     vdW  Elec       q    Type
REMARK                         _______ _______ _______ _____ _____    ______ ____
ROOT
ATOM      1  C   UNL     1       2.424   6.963  19.553  0.00  0.00    +0.000 C 
ATOM      2  S   UNL     1       2.616   7.852  18.142  0.00  0.00    +0.000 S 
ENDROOT
BRANCH   1   3
ATOM      3  N   UNL     1       1.765   7.468  20.664  0.00  0.00    +0.000 N 
ATOM      4  H   UNL     1       1.850   7.062  21.597  0.00  0.00    +0.000 HD
BRANCH   3   7
ATOM      5  O   UNL     1      -0.566   8.229  21.921  0.00  0.00    +0.000 OA
ATOM      6  C   UNL     1       0.093   9.070  21.323  0.00  0.00    +0.000 C 
ATOM      7  N   UNL     1       1.240   8.769  20.612  0.00  0.00    +0.000 N 
ATOM      8  H   UNL     1       1.894   9.495  20.329  0.00  0.00    +0.000 HD
BRANCH   6   9
ATOM      9  C   UNL     1      -0.287  10.551  21.255  0.00  0.00    +0.000 C 
BRANCH   9  10
ATOM     10  O   UNL     1      -0.204  11.041  19.921  0.00  0.00    +0.000 OA
BRANCH  10  11
ATOM     11  C   UNL     1      -1.399  11.228  19.276  0.00  0.00    +0.000 A 
ATOM     12  C   UNL     1      -2.427  12.069  19.705  0.00  0.00    +0.000 A 
ATOM     13  C   UNL     1      -3.609  12.176  18.964  0.00  0.00    +0.000 A 
ATOM     14  C   UNL     1      -3.773  11.447  17.785  0.00  0.00    +0.000 A 
ATOM     15 CL   UNL     1      -5.266  11.614  16.936  0.00  0.00    +0.000 Cl
ATOM     16  C   UNL     1      -2.738  10.619  17.337  0.00  0.00    +0.000 A 
ATOM     17 CL   UNL     1      -2.862   9.691  15.886  0.00  0.00    +0.000 Cl
ATOM     18  C   UNL     1      -1.553  10.520  18.079  0.00  0.00    +0.000 A 
ENDBRANCH  10  11
ENDBRANCH   9  10
ENDBRANCH   6   9
ENDBRANCH   3   7
ENDBRANCH   1   3
BRANCH   1  19
ATOM     19  N   UNL     1       2.920   5.696  19.769  0.00  0.00    +0.000 N 
ATOM     20  H   UNL     1       2.322   5.054  20.267  0.00  0.00    +0.000 HD
BRANCH  19  21
ATOM     21  C   UNL     1       4.336   5.343  19.795  0.00  0.00    +0.000 C 
BRANCH  21  22
ATOM     22  C   UNL     1       4.845   5.115  18.390  0.00  0.00    +0.000 A 
ATOM     23  C   UNL     1       5.890   5.887  17.878  0.00  0.00    +0.000 A 
ATOM     24  C   UNL     1       6.337   5.701  16.563  0.00  0.00    +0.000 A 
ATOM     25  C   UNL     1       5.764   4.738  15.712  0.00  0.00    +0.000 A 
ATOM     26  C   UNL     1       4.709   3.975  16.239  0.00  0.00    +0.000 A 
ATOM     27  C   UNL     1       4.254   4.163  17.551  0.00  0.00    +0.000 A 
BRANCH  25  28
ATOM     28  C   UNL     1       6.258   4.544  14.325  0.00  0.00    +0.000 A 
ATOM     29  C   UNL     1       5.640   3.627  13.451  0.00  0.00    +0.000 A 
ATOM     30  C   UNL     1       6.115   3.414  12.153  0.00  0.00    +0.000 A 
ATOM     31  C   UNL     1       7.213   4.128  11.686  0.00  0.00    +0.000 A 
ATOM     32  C   UNL     1       7.835   5.052  12.519  0.00  0.00    +0.000 A 
ATOM     33  C   UNL     1       7.366   5.253  13.823  0.00  0.00    +0.000 A 
ENDBRANCH  25  28
ENDBRANCH  21  22
ENDBRANCH  19  21
ENDBRANCH   1  19
TORSDOF 9
ENDMDL
MODEL 8
REMARK VINA RESULT:      -8.0      1.674      1.962
REMARK  Name = 
REMARK  9 active torsions:
REMARK  status: ('A' for Active; 'I' for Inactive)
REMARK    1  A    between atoms: C_2  and  C_3
REMARK    2  A    between atoms: C_3  and  O_4
REMARK    3  A    between atoms: O_4  and  C_5
REMARK    4  A    between atoms: N_13  and  N_14
REMARK    5  A    between atoms: N_14  and  C_15
REMARK    6  A    between atoms: C_15  and  N_17
REMARK    7  A    between atoms: N_17  and  C_18
REMARK    8  A    between atoms: C_18  and  C_19
REMARK    9  A    between atoms: C_22  and  C_23
REMARK                            x       y       z     vdW  Elec       q    Type
REMARK                         _______ _______ _______ _____ _____    ______ ____
ROOT
ATOM      1  C   UNL     1       5.977   5.293  17.022  0.00  0.00    +0.000 C 
ATOM      2  S   UNL     1       5.693   3.705  16.556  0.00  0.00    +0.000 S 
ENDROOT
BRANCH   1   3
ATOM      3  N   UNL     1       7.216   5.899  16.874  0.00  0.00    +0.000 N 
ATOM      4  H   UNL     1       8.044   5.404  16.539  0.00  0.00    +0.000 HD
BRANCH   3   7
ATOM      5  O   UNL     1       8.433   7.416  18.825  0.00  0.00    +0.000 OA
ATOM      6  C   UNL     1       7.972   7.972  17.836  0.00  0.00    +0.000 C 
ATOM      7  N   UNL     1       7.290   7.301  16.839  0.00  0.00    +0.000 N 
ATOM      8  H   UNL     1       7.128   7.726  15.929  0.00  0.00    +0.000 HD
BRANCH   6   9
ATOM      9  C   UNL     1       8.059   9.482  17.596  0.00  0.00    +0.000 C 
BRANCH   9  10
ATOM     10  O   UNL     1       8.831  10.118  18.609  0.00  0.00    +0.000 OA
BRANCH  10  11
ATOM     11  C   UNL     1       9.458  11.281  18.243  0.00  0.00    +0.000 A 
ATOM     12  C   UNL     1      10.762  11.378  17.756  0.00  0.00    +0.000 A 
ATOM     13  C   UNL     1      11.300  12.625  17.418  0.00  0.00    +0.000 A 
ATOM     14  C   UNL     1      10.536  13.785  17.558  0.00  0.00    +0.000 A 
ATOM     15 CL   UNL     1      11.274  15.289  17.140  0.00  0.00    +0.000 Cl
ATOM     16  C   UNL     1       9.221  13.692  18.023  0.00  0.00    +0.000 A 
ATOM     17 CL   UNL     1       8.211  15.081  18.217  0.00  0.00    +0.000 Cl
ATOM     18  C   UNL     1       8.684  12.441  18.354  0.00  0.00    +0.000 A 
ENDBRANCH  10  11
ENDBRANCH   9  10
ENDBRANCH   6   9
ENDBRANCH   3   7
ENDBRANCH   1   3
BRANCH   1  19
ATOM     19  N   UNL     1       5.055   6.125  17.618  0.00  0.00    +0.000 N 
ATOM     20  H   UNL     1       5.127   6.237  18.619  0.00  0.00    +0.000 HD
BRANCH  19  21
ATOM     21  C   UNL     1       3.745   6.455  17.068  0.00  0.00    +0.000 C 
BRANCH  21  22
ATOM     22  C   UNL     1       2.935   7.238  18.076  0.00  0.00    +0.000 A 
ATOM     23  C   UNL     1       2.715   6.731  19.359  0.00  0.00    +0.000 A 
ATOM     24  C   UNL     1       1.932   7.440  20.281  0.00  0.00    +0.000 A 
ATOM     25  C   UNL     1       1.345   8.679  19.962  0.00  0.00    +0.000 A 
ATOM     26  C   UNL     1       1.570   9.171  18.666  0.00  0.00    +0.000 A 
ATOM     27  C   UNL     1       2.346   8.462  17.738  0.00  0.00    +0.000 A 
BRANCH  25  28
ATOM     28  C   UNL     1       0.530   9.424  20.954  0.00  0.00    +0.000 A 
ATOM     29  C   UNL     1      -0.227  10.551  20.580  0.00  0.00    +0.000 A 
ATOM     30  C   UNL     1      -0.975  11.279  21.511  0.00  0.00    +0.000 A 
ATOM     31  C   UNL     1      -1.001  10.885  22.844  0.00  0.00    +0.000 A 
ATOM     32  C   UNL     1      -0.276   9.767  23.244  0.00  0.00    +0.000 A 
ATOM     33  C   UNL     1       0.483   9.049  22.311  0.00  0.00    +0.000 A 
ENDBRANCH  25  28
ENDBRANCH  21  22
ENDBRANCH  19  21
ENDBRANCH   1  19
TORSDOF 9
ENDMDL
MODEL 9
REMARK VINA RESULT:      -8.0      5.037      6.039
REMARK  Name = 
REMARK  9 active torsions:
REMARK  status: ('A' for Active; 'I' for Inactive)
REMARK    1  A    between atoms: C_2  and  C_3
REMARK    2  A    between atoms: C_3  and  O_4
REMARK    3  A    between atoms: O_4  and  C_5
REMARK    4  A    between atoms: N_13  and  N_14
REMARK    5  A    between atoms: N_14  and  C_15
REMARK    6  A    between atoms: C_15  and  N_17
REMARK    7  A    between atoms: N_17  and  C_18
REMARK    8  A    between atoms: C_18  and  C_19
REMARK    9  A    between atoms: C_22  and  C_23
REMARK                            x       y       z     vdW  Elec       q    Type
REMARK                         _______ _______ _______ _____ _____    ______ ____
ROOT
ATOM      1  C   UNL     1       3.603   3.960  19.714  0.00  0.00    +0.000 C 
ATOM      2  S   UNL     1       2.222   3.007  19.776  0.00  0.00    +0.000 S 
ENDROOT
BRANCH   1   3
ATOM      3  N   UNL     1       4.878   3.424  19.813  0.00  0.00    +0.000 N 
ATOM      4  H   UNL     1       5.129   2.700  20.488  0.00  0.00    +0.000 HD
BRANCH   3   7
ATOM      5  O   UNL     1       6.790   5.406  19.741  0.00  0.00    +0.000 OA
ATOM      6  C   UNL     1       6.741   4.591  18.830  0.00  0.00    +0.000 C 
ATOM      7  N   UNL     1       5.778   3.602  18.750  0.00  0.00    +0.000 N 
ATOM      8  H   UNL     1       5.890   2.802  18.131  0.00  0.00    +0.000 HD
BRANCH   6   9
ATOM      9  C   UNL     1       7.712   4.584  17.646  0.00  0.00    +0.000 C 
BRANCH   9  10
ATOM     10  O   UNL     1       7.304   5.510  16.644  0.00  0.00    +0.000 OA
BRANCH  10  11
ATOM     11  C   UNL     1       6.656   4.974  15.562  0.00  0.00    +0.000 A 
ATOM     12  C   UNL     1       5.394   4.378  15.588  0.00  0.00    +0.000 A 
ATOM     13  C   UNL     1       4.833   3.859  14.416  0.00  0.00    +0.000 A 
ATOM     14  C   UNL     1       5.525   3.936  13.206  0.00  0.00    +0.000 A 
ATOM     15 CL   UNL     1       4.778   3.256  11.806  0.00  0.00    +0.000 Cl
ATOM     16  C   UNL     1       6.780   4.553  13.168  0.00  0.00    +0.000 A 
ATOM     17 CL   UNL     1       7.695   4.693  11.710  0.00  0.00    +0.000 Cl
ATOM     18  C   UNL     1       7.335   5.077  14.343  0.00  0.00    +0.000 A 
ENDBRANCH  10  11
ENDBRANCH   9  10
ENDBRANCH   6   9
ENDBRANCH   3   7
ENDBRANCH   1   3
BRANCH   1  19
ATOM     19  N   UNL     1       3.618   5.333  19.605  0.00  0.00    +0.000 N 
ATOM     20  H   UNL     1       3.566   5.856  20.466  0.00  0.00    +0.000 HD
BRANCH  19  21
ATOM     21  C   UNL     1       3.222   6.084  18.419  0.00  0.00    +0.000 C 
BRANCH  21  22
ATOM     22  C   UNL     1       2.399   7.290  18.812  0.00  0.00    +0.000 A 
ATOM     23  C   UNL     1       2.083   8.272  17.870  0.00  0.00    +0.000 A 
ATOM     24  C   UNL     1       1.352   9.408  18.244  0.00  0.00    +0.000 A 
ATOM     25  C   UNL     1       0.905   9.605  19.564  0.00  0.00    +0.000 A 
ATOM     26  C   UNL     1       1.238   8.612  20.499  0.00  0.00    +0.000 A 
ATOM     27  C   UNL     1       1.975   7.478  20.132  0.00  0.00    +0.000 A 
BRANCH  25  28
ATOM     28  C   UNL     1       0.120  10.808  19.941  0.00  0.00    +0.000 A 
ATOM     29  C   UNL     1       0.618  11.744  20.868  0.00  0.00    +0.000 A 
ATOM     30  C   UNL     1      -0.126  12.865  21.254  0.00  0.00    +0.000 A 
ATOM     31  C   UNL     1      -1.384  13.089  20.705  0.00  0.00    +0.000 A 
ATOM     32  C   UNL     1      -1.897  12.191  19.775  0.00  0.00    +0.000 A 
ATOM     33  C   UNL     1      -1.156  11.062  19.403  0.00  0.00    +0.000 A 
ENDBRANCH  25  28
ENDBRANCH  21  22
ENDBRANCH  19  21
ENDBRANCH   1  19
TORSDOF 9
ENDMDL
