MODEL 1
REMARK VINA RESULT:      -7.8      0.000      0.000
REMARK  Name = 
REMARK  9 active torsions:
REMARK  status: ('A' for Active; 'I' for Inactive)
REMARK    1  A    between atoms: C_1  and  C_2
REMARK    2  A    between atoms: C_2  and  C_3
REMARK    3  A    between atoms: C_3  and  C_4
REMARK    4  A    between atoms: C_4  and  O_5
REMARK    5  A    between atoms: O_5  and  C_6
REMARK    6  A    between atoms: C_6  and  C_8
REMARK    7  A    between atoms: C_9  and  C_10
REMARK    8  A    between atoms: N_20  and  C_21
REMARK    9  A    between atoms: C_21  and  C_22
REMARK                            x       y       z     vdW  Elec       q    Type
REMARK                         _______ _______ _______ _____ _____    ______ ____
ROOT
ATOM      1  C   UNL     1       1.762   7.996  19.948  0.00  0.00    +0.000 A 
ATOM      2  C   UNL     1       1.441   8.880  18.887  0.00  0.00    +0.000 A 
ATOM      3  C   UNL     1       0.724  10.069  19.101  0.00  0.00    +0.000 A 
ATOM      4  C   UNL     1       0.332  10.364  20.393  0.00  0.00    +0.000 A 
ATOM      5  C   UNL     1       0.663   9.497  21.432  0.00  0.00    +0.000 A 
ATOM      6  C   UNL     1       1.378   8.327  21.252  0.00  0.00    +0.000 A 
ATOM      7  C   UNL     1       0.114  10.056  22.666  0.00  0.00    +0.000 C 
ATOM      8  O   UNL     1       0.197   9.590  23.775  0.00  0.00    +0.000 OA
ATOM      9  C   UNL     1      -0.594  11.368  22.240  0.00  0.00    +0.000 C 
ATOM     10  O   UNL     1      -1.195  12.109  22.988  0.00  0.00    +0.000 OA
ATOM     11  N   UNL     1      -0.389  11.471  20.871  0.00  0.00    +0.000 N 
ENDROOT
BRANCH   1  13
ATOM     12  C   UNL     1       2.542   6.191  18.435  0.00  0.00    +0.000 C 
ATOM     13  C   UNL     1       2.509   6.764  19.648  0.00  0.00    +0.000 C 
BRANCH  12  14
ATOM     14  C   UNL     1       3.414   5.026  18.172  0.00  0.00    +0.000 C 
ATOM     15  O   UNL     1       4.612   4.972  18.389  0.00  0.00    +0.000 OA
BRANCH  14  16
ATOM     16  O   UNL     1       2.671   4.121  17.487  0.00  0.00    +0.000 OA
BRANCH  16  17
ATOM     17  C   UNL     1       1.366   3.907  18.035  0.00  0.00    +0.000 C 
BRANCH  17  18
ATOM     18  C   UNL     1       1.341   2.784  19.062  0.00  0.00    +0.000 C 
BRANCH  18  20
ATOM     19  C   UNL     1       2.177   3.434  21.362  0.00  0.00    +0.000 C 
ATOM     20  C   UNL     1       0.974   3.342  20.440  0.00  0.00    +0.000 C 
ENDBRANCH  18  20
ENDBRANCH  17  18
ENDBRANCH  16  17
ENDBRANCH  14  16
ENDBRANCH  12  14
ENDBRANCH   1  13
BRANCH  11  21
ATOM     21  C   UNL     1      -0.887  12.564  20.061  0.00  0.00    +0.000 C 
BRANCH  21  22
ATOM     22  C   UNL     1      -2.300  12.338  19.571  0.00  0.00    +0.000 A 
ATOM     23  C   UNL     1      -3.394  12.829  20.302  0.00  0.00    +0.000 A 
ATOM     24  C   UNL     1      -4.703  12.557  19.898  0.00  0.00    +0.000 A 
ATOM     25  C   UNL     1      -4.928  11.811  18.745  0.00  0.00    +0.000 A 
ATOM     26 BR   UNL     1      -6.697  11.384  18.233  0.00  0.00    +0.000 Br
ATOM     27  C   UNL     1      -3.857  11.363  17.975  0.00  0.00    +0.000 A 
ATOM     28  C   UNL     1      -2.548  11.629  18.386  0.00  0.00    +0.000 A 
ENDBRANCH  21  22
ENDBRANCH  11  21
TORSDOF 8
ENDMDL
MODEL 2
REMARK VINA RESULT:      -7.5      3.981      8.959
REMARK  Name = 
REMARK  9 active torsions:
REMARK  status: ('A' for Active; 'I' for Inactive)
REMARK    1  A    between atoms: C_1  and  C_2
REMARK    2  A    between atoms: C_2  and  C_3
REMARK    3  A    between atoms: C_3  and  C_4
REMARK    4  A    between atoms: C_4  and  O_5
REMARK    5  A    between atoms: O_5  and  C_6
REMARK    6  A    between atoms: C_6  and  C_8
REMARK    7  A    between atoms: C_9  and  C_10
REMARK    8  A    between atoms: N_20  and  C_21
REMARK    9  A    between atoms: C_21  and  C_22
REMARK                            x       y       z     vdW  Elec       q    Type
REMARK                         _______ _______ _______ _____ _____    ______ ____
ROOT
ATOM      1  C   UNL     1       1.555   6.707  20.558  0.00  0.00    +0.000 A 
ATOM      2  C   UNL     1       2.397   7.129  19.499  0.00  0.00    +0.000 A 
ATOM      3  C   UNL     1       3.097   6.213  18.695  0.00  0.00    +0.000 A 
ATOM      4  C   UNL     1       2.941   4.867  18.964  0.00  0.00    +0.000 A 
ATOM      5  C   UNL     1       2.101   4.460  19.999  0.00  0.00    +0.000 A 
ATOM      6  C   UNL     1       1.391   5.339  20.796  0.00  0.00    +0.000 A 
ATOM      7  C   UNL     1       2.142   3.000  20.054  0.00  0.00    +0.000 C 
ATOM      8  O   UNL     1       1.544   2.284  20.818  0.00  0.00    +0.000 OA
ATOM      9  C   UNL     1       3.118   2.577  18.926  0.00  0.00    +0.000 C 
ATOM     10  O   UNL     1       3.434   1.435  18.670  0.00  0.00    +0.000 OA
ATOM     11  N   UNL     1       3.523   3.760  18.323  0.00  0.00    +0.000 N 
ENDROOT
BRANCH   1  13
ATOM     12  C   UNL     1       1.468   8.796  21.895  0.00  0.00    +0.000 C 
ATOM     13  C   UNL     1       0.860   7.724  21.364  0.00  0.00    +0.000 C 
BRANCH  12  14
ATOM     14  C   UNL     1       0.687   9.844  22.586  0.00  0.00    +0.000 C 
ATOM     15  O   UNL     1       0.118   9.717  23.656  0.00  0.00    +0.000 OA
BRANCH  14  16
ATOM     16  O   UNL     1       0.576  10.888  21.727  0.00  0.00    +0.000 OA
BRANCH  16  17
ATOM     17  C   UNL     1      -0.763  11.135  21.284  0.00  0.00    +0.000 C 
BRANCH  17  18
ATOM     18  C   UNL     1      -0.830  11.511  19.810  0.00  0.00    +0.000 C 
BRANCH  18  20
ATOM     19  C   UNL     1       0.459   9.946  18.292  0.00  0.00    +0.000 C 
ATOM     20  C   UNL     1      -0.877  10.246  18.948  0.00  0.00    +0.000 C 
ENDBRANCH  18  20
ENDBRANCH  17  18
ENDBRANCH  16  17
ENDBRANCH  14  16
ENDBRANCH  12  14
ENDBRANCH   1  13
BRANCH  11  21
ATOM     21  C   UNL     1       4.445   3.823  17.207  0.00  0.00    +0.000 C 
BRANCH  21  22
ATOM     22  C   UNL     1       5.439   4.957  17.328  0.00  0.00    +0.000 A 
ATOM     23  C   UNL     1       6.438   4.927  18.314  0.00  0.00    +0.000 A 
ATOM     24  C   UNL     1       7.309   6.006  18.482  0.00  0.00    +0.000 A 
ATOM     25  C   UNL     1       7.203   7.114  17.647  0.00  0.00    +0.000 A 
ATOM     26 BR   UNL     1       8.337   8.603  17.915  0.00  0.00    +0.000 Br
ATOM     27  C   UNL     1       6.256   7.140  16.626  0.00  0.00    +0.000 A 
ATOM     28  C   UNL     1       5.379   6.063  16.466  0.00  0.00    +0.000 A 
ENDBRANCH  21  22
ENDBRANCH  11  21
TORSDOF 8
ENDMDL
MODEL 3
REMARK VINA RESULT:      -7.5      0.841      1.300
REMARK  Name = 
REMARK  9 active torsions:
REMARK  status: ('A' for Active; 'I' for Inactive)
REMARK    1  A    between atoms: C_1  and  C_2
REMARK    2  A    between atoms: C_2  and  C_3
REMARK    3  A    between atoms: C_3  and  C_4
REMARK    4  A    between atoms: C_4  and  O_5
REMARK    5  A    between atoms: O_5  and  C_6
REMARK    6  A    between atoms: C_6  and  C_8
REMARK    7  A    between atoms: C_9  and  C_10
REMARK    8  A    between atoms: N_20  and  C_21
REMARK    9  A    between atoms: C_21  and  C_22
REMARK                            x       y       z     vdW  Elec       q    Type
REMARK                         _______ _______ _______ _____ _____    ______ ____
ROOT
ATOM      1  C   UNL     1       2.014   7.994  18.759  0.00  0.00    +0.000 A 
ATOM      2  C   UNL     1       1.522   8.935  17.819  0.00  0.00    +0.000 A 
ATOM      3  C   UNL     1       0.809  10.079  18.216  0.00  0.00    +0.000 A 
ATOM      4  C   UNL     1       0.596  10.270  19.567  0.00  0.00    +0.000 A 
ATOM      5  C   UNL     1       1.094   9.348  20.485  0.00  0.00    +0.000 A 
ATOM      6  C   UNL     1       1.810   8.221  20.124  0.00  0.00    +0.000 A 
ATOM      7  C   UNL     1       0.710   9.801  21.821  0.00  0.00    +0.000 C 
ATOM      8  O   UNL     1       0.962   9.265  22.871  0.00  0.00    +0.000 OA
ATOM      9  C   UNL     1      -0.088  11.111  21.593  0.00  0.00    +0.000 C 
ATOM     10  O   UNL     1      -0.598  11.776  22.469  0.00  0.00    +0.000 OA
ATOM     11  N   UNL     1      -0.081  11.315  20.220  0.00  0.00    +0.000 N 
ENDROOT
BRANCH   1  13
ATOM     12  C   UNL     1       2.200   5.593  18.160  0.00  0.00    +0.000 C 
ATOM     13  C   UNL     1       2.746   6.814  18.269  0.00  0.00    +0.000 C 
BRANCH  12  14
ATOM     14  C   UNL     1       2.954   4.480  17.543  0.00  0.00    +0.000 C 
ATOM     15  O   UNL     1       4.120   4.520  17.194  0.00  0.00    +0.000 OA
BRANCH  14  16
ATOM     16  O   UNL     1       2.060   3.495  17.278  0.00  0.00    +0.000 OA
BRANCH  16  17
ATOM     17  C   UNL     1       1.285   3.094  18.413  0.00  0.00    +0.000 C 
BRANCH  17  18
ATOM     18  C   UNL     1       1.986   2.037  19.255  0.00  0.00    +0.000 C 
BRANCH  18  20
ATOM     19  C   UNL     1       1.390   2.760  21.608  0.00  0.00    +0.000 C 
ATOM     20  C   UNL     1       2.487   2.657  20.563  0.00  0.00    +0.000 C 
ENDBRANCH  18  20
ENDBRANCH  17  18
ENDBRANCH  16  17
ENDBRANCH  14  16
ENDBRANCH  12  14
ENDBRANCH   1  13
BRANCH  11  21
ATOM     21  C   UNL     1      -0.720  12.440  19.568  0.00  0.00    +0.000 C 
BRANCH  21  22
ATOM     22  C   UNL     1      -2.180  12.192  19.261  0.00  0.00    +0.000 A 
ATOM     23  C   UNL     1      -2.557  11.508  18.094  0.00  0.00    +0.000 A 
ATOM     24  C   UNL     1      -3.904  11.344  17.766  0.00  0.00    +0.000 A 
ATOM     25  C   UNL     1      -4.887  11.844  18.615  0.00  0.00    +0.000 A 
ATOM     26 BR   UNL     1      -6.710  11.683  18.139  0.00  0.00    +0.000 Br
ATOM     27  C   UNL     1      -4.535  12.476  19.806  0.00  0.00    +0.000 A 
ATOM     28  C   UNL     1      -3.186  12.647  20.128  0.00  0.00    +0.000 A 
ENDBRANCH  21  22
ENDBRANCH  11  21
TORSDOF 8
ENDMDL
MODEL 4
REMARK VINA RESULT:      -7.5      1.082      1.203
REMARK  Name = 
REMARK  9 active torsions:
REMARK  status: ('A' for Active; 'I' for Inactive)
REMARK    1  A    between atoms: C_1  and  C_2
REMARK    2  A    between atoms: C_2  and  C_3
REMARK    3  A    between atoms: C_3  and  C_4
REMARK    4  A    between atoms: C_4  and  O_5
REMARK    5  A    between atoms: O_5  and  C_6
REMARK    6  A    between atoms: C_6  and  C_8
REMARK    7  A    between atoms: C_9  and  C_10
REMARK    8  A    between atoms: N_20  and  C_21
REMARK    9  A    between atoms: C_21  and  C_22
REMARK                            x       y       z     vdW  Elec       q    Type
REMARK                         _______ _______ _______ _____ _____    ______ ____
ROOT
ATOM      1  C   UNL     1       2.047   7.536  18.745  0.00  0.00    +0.000 A 
ATOM      2  C   UNL     1       1.624   8.444  17.742  0.00  0.00    +0.000 A 
ATOM      3  C   UNL     1       1.034   9.680  18.057  0.00  0.00    +0.000 A 
ATOM      4  C   UNL     1       0.874   9.997  19.392  0.00  0.00    +0.000 A 
ATOM      5  C   UNL     1       1.304   9.105  20.372  0.00  0.00    +0.000 A 
ATOM      6  C   UNL     1       1.899   7.889  20.091  0.00  0.00    +0.000 A 
ATOM      7  C   UNL     1       0.999   9.697  21.674  0.00  0.00    +0.000 C 
ATOM      8  O   UNL     1       1.224   9.222  22.759  0.00  0.00    +0.000 OA
ATOM      9  C   UNL     1       0.326  11.056  21.355  0.00  0.00    +0.000 C 
ATOM     10  O   UNL     1      -0.096  11.835  22.183  0.00  0.00    +0.000 OA
ATOM     11  N   UNL     1       0.317  11.150  19.970  0.00  0.00    +0.000 N 
ENDROOT
BRANCH   1  13
ATOM     12  C   UNL     1       3.907   5.897  18.641  0.00  0.00    +0.000 C 
ATOM     13  C   UNL     1       2.649   6.256  18.340  0.00  0.00    +0.000 C 
BRANCH  12  14
ATOM     14  C   UNL     1       4.408   4.545  18.312  0.00  0.00    +0.000 C 
ATOM     15  O   UNL     1       5.166   4.271  17.399  0.00  0.00    +0.000 OA
BRANCH  14  16
ATOM     16  O   UNL     1       3.726   3.670  19.092  0.00  0.00    +0.000 OA
BRANCH  16  17
ATOM     17  C   UNL     1       2.986   2.690  18.356  0.00  0.00    +0.000 C 
BRANCH  17  18
ATOM     18  C   UNL     1       1.787   2.160  19.131  0.00  0.00    +0.000 C 
BRANCH  18  20
ATOM     19  C   UNL     1       1.517   2.756  21.577  0.00  0.00    +0.000 C 
ATOM     20  C   UNL     1       1.312   3.207  20.142  0.00  0.00    +0.000 C 
ENDBRANCH  18  20
ENDBRANCH  17  18
ENDBRANCH  16  17
ENDBRANCH  14  16
ENDBRANCH  12  14
ENDBRANCH   1  13
BRANCH  11  21
ATOM     21  C   UNL     1      -0.226  12.278  19.241  0.00  0.00    +0.000 C 
BRANCH  21  22
ATOM     22  C   UNL     1      -1.700  12.128  18.936  0.00  0.00    +0.000 A 
ATOM     23  C   UNL     1      -2.666  12.524  19.875  0.00  0.00    +0.000 A 
ATOM     24  C   UNL     1      -4.026  12.316  19.633  0.00  0.00    +0.000 A 
ATOM     25  C   UNL     1      -4.432  11.731  18.438  0.00  0.00    +0.000 A 
ATOM     26 BR   UNL     1      -6.266  11.387  18.136  0.00  0.00    +0.000 Br
ATOM     27  C   UNL     1      -3.493  11.382  17.469  0.00  0.00    +0.000 A 
ATOM     28  C   UNL     1      -2.132  11.583  17.717  0.00  0.00    +0.000 A 
ENDBRANCH  21  22
ENDBRANCH  11  21
TORSDOF 8
ENDMDL
MODEL 5
REMARK VINA RESULT:      -7.5      4.249      7.061
REMARK  Name = 
REMARK  9 active torsions:
REMARK  status: ('A' for Active; 'I' for Inactive)
REMARK    1  A    between atoms: C_1  and  C_2
REMARK    2  A    between atoms: C_2  and  C_3
REMARK    3  A    between atoms: C_3  and  C_4
REMARK    4  A    between atoms: C_4  and  O_5
REMARK    5  A    between atoms: O_5  and  C_6
REMARK    6  A    between atoms: C_6  and  C_8
REMARK    7  A    between atoms: C_9  and  C_10
REMARK    8  A    between atoms: N_20  and  C_21
REMARK    9  A    between atoms: C_21  and  C_22
REMARK                            x       y       z     vdW  Elec       q    Type
REMARK                         _______ _______ _______ _____ _____    ______ ____
ROOT
ATOM      1  C   UNL     1       4.955   4.462  16.481  0.00  0.00    +0.000 A 
ATOM      2  C   UNL     1       5.275   5.587  17.282  0.00  0.00    +0.000 A 
ATOM      3  C   UNL     1       4.496   5.956  18.392  0.00  0.00    +0.000 A 
ATOM      4  C   UNL     1       3.392   5.182  18.692  0.00  0.00    +0.000 A 
ATOM      5  C   UNL     1       3.092   4.071  17.908  0.00  0.00    +0.000 A 
ATOM      6  C   UNL     1       3.848   3.677  16.819  0.00  0.00    +0.000 A 
ATOM      7  C   UNL     1       1.879   3.461  18.451  0.00  0.00    +0.000 C 
ATOM      8  O   UNL     1       1.313   2.478  18.040  0.00  0.00    +0.000 OA
ATOM      9  C   UNL     1       1.482   4.348  19.658  0.00  0.00    +0.000 C 
ATOM     10  O   UNL     1       0.506   4.177  20.357  0.00  0.00    +0.000 OA
ATOM     11  N   UNL     1       2.457   5.334  19.730  0.00  0.00    +0.000 N 
ENDROOT
BRANCH   1  13
ATOM     12  C   UNL     1       6.119   5.019  14.362  0.00  0.00    +0.000 C 
ATOM     13  C   UNL     1       5.812   4.141  15.329  0.00  0.00    +0.000 C 
BRANCH  12  14
ATOM     14  C   UNL     1       7.087   4.668  13.300  0.00  0.00    +0.000 C 
ATOM     15  O   UNL     1       8.082   5.307  13.008  0.00  0.00    +0.000 OA
BRANCH  14  16
ATOM     16  O   UNL     1       6.561   3.625  12.613  0.00  0.00    +0.000 OA
BRANCH  16  17
ATOM     17  C   UNL     1       5.350   3.939  11.916  0.00  0.00    +0.000 C 
BRANCH  17  18
ATOM     18  C   UNL     1       4.721   2.719  11.258  0.00  0.00    +0.000 C 
BRANCH  18  20
ATOM     19  C   UNL     1       3.147   4.031   9.769  0.00  0.00    +0.000 C 
ATOM     20  C   UNL     1       3.264   3.015  10.891  0.00  0.00    +0.000 C 
ENDBRANCH  18  20
ENDBRANCH  17  18
ENDBRANCH  16  17
ENDBRANCH  14  16
ENDBRANCH  12  14
ENDBRANCH   1  13
BRANCH  11  21
ATOM     21  C   UNL     1       2.472   6.384  20.728  0.00  0.00    +0.000 C 
BRANCH  21  22
ATOM     22  C   UNL     1       1.772   7.644  20.268  0.00  0.00    +0.000 A 
ATOM     23  C   UNL     1       0.908   8.335  21.133  0.00  0.00    +0.000 A 
ATOM     24  C   UNL     1       0.199   9.454  20.690  0.00  0.00    +0.000 A 
ATOM     25  C   UNL     1       0.368   9.905  19.385  0.00  0.00    +0.000 A 
ATOM     26 BR   UNL     1      -0.641  11.377  18.762  0.00  0.00    +0.000 Br
ATOM     27  C   UNL     1       1.263   9.267  18.528  0.00  0.00    +0.000 A 
ATOM     28  C   UNL     1       1.965   8.142  18.971  0.00  0.00    +0.000 A 
ENDBRANCH  21  22
ENDBRANCH  11  21
TORSDOF 8
ENDMDL
MODEL 6
REMARK VINA RESULT:      -7.5      2.956      3.825
REMARK  Name = 
REMARK  9 active torsions:
REMARK  status: ('A' for Active; 'I' for Inactive)
REMARK    1  A    between atoms: C_1  and  C_2
REMARK    2  A    between atoms: C_2  and  C_3
REMARK    3  A    between atoms: C_3  and  C_4
REMARK    4  A    between atoms: C_4  and  O_5
REMARK    5  A    between atoms: O_5  and  C_6
REMARK    6  A    between atoms: C_6  and  C_8
REMARK    7  A    between atoms: C_9  and  C_10
REMARK    8  A    between atoms: N_20  and  C_21
REMARK    9  A    between atoms: C_21  and  C_22
REMARK                            x       y       z     vdW  Elec       q    Type
REMARK                         _______ _______ _______ _____ _____    ______ ____
ROOT
ATOM      1  C   UNL     1       2.551   7.308  18.687  0.00  0.00    +0.000 A 
ATOM      2  C   UNL     1       2.259   8.191  17.617  0.00  0.00    +0.000 A 
ATOM      3  C   UNL     1       1.482   9.348  17.800  0.00  0.00    +0.000 A 
ATOM      4  C   UNL     1       1.002   9.610  19.068  0.00  0.00    +0.000 A 
ATOM      5  C   UNL     1       1.305   8.744  20.116  0.00  0.00    +0.000 A 
ATOM      6  C   UNL     1       2.078   7.606  19.968  0.00  0.00    +0.000 A 
ATOM      7  C   UNL     1       0.662   9.265  21.321  0.00  0.00    +0.000 C 
ATOM      8  O   UNL     1       0.697   8.788  22.428  0.00  0.00    +0.000 OA
ATOM      9  C   UNL     1      -0.073  10.552  20.867  0.00  0.00    +0.000 C 
ATOM     10  O   UNL     1      -0.747  11.259  21.585  0.00  0.00    +0.000 OA
ATOM     11  N   UNL     1       0.209  10.681  19.514  0.00  0.00    +0.000 N 
ENDROOT
BRANCH   1  13
ATOM     12  C   UNL     1       4.139   5.516  19.341  0.00  0.00    +0.000 C 
ATOM     13  C   UNL     1       3.365   6.111  18.419  0.00  0.00    +0.000 C 
BRANCH  12  14
ATOM     14  C   UNL     1       4.832   4.244  19.041  0.00  0.00    +0.000 C 
ATOM     15  O   UNL     1       6.016   4.022  19.216  0.00  0.00    +0.000 OA
BRANCH  14  16
ATOM     16  O   UNL     1       3.948   3.459  18.376  0.00  0.00    +0.000 OA
BRANCH  16  17
ATOM     17  C   UNL     1       3.231   2.550  19.219  0.00  0.00    +0.000 C 
BRANCH  17  18
ATOM     18  C   UNL     1       1.731   2.568  18.955  0.00  0.00    +0.000 C 
BRANCH  18  20
ATOM     19  C   UNL     1       1.671   3.878  21.122  0.00  0.00    +0.000 C 
ATOM     20  C   UNL     1       0.973   2.843  20.257  0.00  0.00    +0.000 C 
ENDBRANCH  18  20
ENDBRANCH  17  18
ENDBRANCH  16  17
ENDBRANCH  14  16
ENDBRANCH  12  14
ENDBRANCH   1  13
BRANCH  11  21
ATOM     21  C   UNL     1      -0.284  11.764  18.686  0.00  0.00    +0.000 C 
BRANCH  21  22
ATOM     22  C   UNL     1       0.600  12.990  18.731  0.00  0.00    +0.000 A 
ATOM     23  C   UNL     1       1.956  12.904  18.376  0.00  0.00    +0.000 A 
ATOM     24  C   UNL     1       2.797  14.013  18.490  0.00  0.00    +0.000 A 
ATOM     25  C   UNL     1       2.281  15.226  18.937  0.00  0.00    +0.000 A 
ATOM     26 BR   UNL     1       3.430  16.711  19.156  0.00  0.00    +0.000 Br
ATOM     27  C   UNL     1       0.927  15.348  19.240  0.00  0.00    +0.000 A 
ATOM     28  C   UNL     1       0.089  14.233  19.134  0.00  0.00    +0.000 A 
ENDBRANCH  21  22
ENDBRANCH  11  21
TORSDOF 8
ENDMDL
MODEL 7
REMARK VINA RESULT:      -7.4      3.416      4.823
REMARK  Name = 
REMARK  9 active torsions:
REMARK  status: ('A' for Active; 'I' for Inactive)
REMARK    1  A    between atoms: C_1  and  C_2
REMARK    2  A    between atoms: C_2  and  C_3
REMARK    3  A    between atoms: C_3  and  C_4
REMARK    4  A    between atoms: C_4  and  O_5
REMARK    5  A    between atoms: O_5  and  C_6
REMARK    6  A    between atoms: C_6  and  C_8
REMARK    7  A    between atoms: C_9  and  C_10
REMARK    8  A    between atoms: N_20  and  C_21
REMARK    9  A    between atoms: C_21  and  C_22
REMARK                            x       y       z     vdW  Elec       q    Type
REMARK                         _______ _______ _______ _____ _____    ______ ____
ROOT
ATOM      1  C   UNL     1       2.407   7.198  18.814  0.00  0.00    +0.000 A 
ATOM      2  C   UNL     1       2.134   8.056  17.719  0.00  0.00    +0.000 A 
ATOM      3  C   UNL     1       1.466   9.282  17.883  0.00  0.00    +0.000 A 
ATOM      4  C   UNL     1       1.077   9.640  19.159  0.00  0.00    +0.000 A 
ATOM      5  C   UNL     1       1.360   8.797  20.232  0.00  0.00    +0.000 A 
ATOM      6  C   UNL     1       2.027   7.592  20.101  0.00  0.00    +0.000 A 
ATOM      7  C   UNL     1       0.826   9.423  21.439  0.00  0.00    +0.000 C 
ATOM      8  O   UNL     1       0.879   8.994  22.565  0.00  0.00    +0.000 OA
ATOM      9  C   UNL     1       0.179  10.748  20.960  0.00  0.00    +0.000 C 
ATOM     10  O   UNL     1      -0.397  11.541  21.674  0.00  0.00    +0.000 OA
ATOM     11  N   UNL     1       0.400  10.793  19.590  0.00  0.00    +0.000 N 
ENDROOT
BRANCH   1  13
ATOM     12  C   UNL     1       4.063   5.434  19.365  0.00  0.00    +0.000 C 
ATOM     13  C   UNL     1       3.103   5.925  18.566  0.00  0.00    +0.000 C 
BRANCH  12  14
ATOM     14  C   UNL     1       4.632   4.090  19.126  0.00  0.00    +0.000 C 
ATOM     15  O   UNL     1       3.995   3.089  18.849  0.00  0.00    +0.000 OA
BRANCH  14  16
ATOM     16  O   UNL     1       5.946   4.152  19.453  0.00  0.00    +0.000 OA
BRANCH  16  17
ATOM     17  C   UNL     1       6.517   5.459  19.322  0.00  0.00    +0.000 C 
BRANCH  17  18
ATOM     18  C   UNL     1       7.553   5.535  18.209  0.00  0.00    +0.000 C 
BRANCH  18  20
ATOM     19  C   UNL     1       7.782   8.000  17.673  0.00  0.00    +0.000 C 
ATOM     20  C   UNL     1       7.199   6.666  17.239  0.00  0.00    +0.000 C 
ENDBRANCH  18  20
ENDBRANCH  17  18
ENDBRANCH  16  17
ENDBRANCH  14  16
ENDBRANCH  12  14
ENDBRANCH   1  13
BRANCH  11  21
ATOM     21  C   UNL     1      -0.044  11.876  18.736  0.00  0.00    +0.000 C 
BRANCH  21  22
ATOM     22  C   UNL     1       0.925  13.038  18.706  0.00  0.00    +0.000 A 
ATOM     23  C   UNL     1       2.240  12.857  18.247  0.00  0.00    +0.000 A 
ATOM     24  C   UNL     1       3.162  13.905  18.291  0.00  0.00    +0.000 A 
ATOM     25  C   UNL     1       2.769  15.150  18.771  0.00  0.00    +0.000 A 
ATOM     26 BR   UNL     1       4.032  16.551  18.894  0.00  0.00    +0.000 Br
ATOM     27  C   UNL     1       1.454  15.366  19.178  0.00  0.00    +0.000 A 
ATOM     28  C   UNL     1       0.535  14.313  19.142  0.00  0.00    +0.000 A 
ENDBRANCH  21  22
ENDBRANCH  11  21
TORSDOF 8
ENDMDL
MODEL 8
REMARK VINA RESULT:      -7.4      3.062      3.969
REMARK  Name = 
REMARK  9 active torsions:
REMARK  status: ('A' for Active; 'I' for Inactive)
REMARK    1  A    between atoms: C_1  and  C_2
REMARK    2  A    between atoms: C_2  and  C_3
REMARK    3  A    between atoms: C_3  and  C_4
REMARK    4  A    between atoms: C_4  and  O_5
REMARK    5  A    between atoms: O_5  and  C_6
REMARK    6  A    between atoms: C_6  and  C_8
REMARK    7  A    between atoms: C_9  and  C_10
REMARK    8  A    between atoms: N_20  and  C_21
REMARK    9  A    between atoms: C_21  and  C_22
REMARK                            x       y       z     vdW  Elec       q    Type
REMARK                         _______ _______ _______ _____ _____    ______ ____
ROOT
ATOM      1  C   UNL     1       2.502   7.138  18.640  0.00  0.00    +0.000 A 
ATOM      2  C   UNL     1       2.175   8.028  17.586  0.00  0.00    +0.000 A 
ATOM      3  C   UNL     1       1.485   9.231  17.815  0.00  0.00    +0.000 A 
ATOM      4  C   UNL     1       1.129   9.533  19.115  0.00  0.00    +0.000 A 
ATOM      5  C   UNL     1       1.466   8.660  20.147  0.00  0.00    +0.000 A 
ATOM      6  C   UNL     1       2.154   7.477  19.952  0.00  0.00    +0.000 A 
ATOM      7  C   UNL     1       0.956   9.230  21.393  0.00  0.00    +0.000 C 
ATOM      8  O   UNL     1       1.055   8.762  22.500  0.00  0.00    +0.000 OA
ATOM      9  C   UNL     1       0.264  10.555  20.982  0.00  0.00    +0.000 C 
ATOM     10  O   UNL     1      -0.305  11.308  21.743  0.00  0.00    +0.000 OA
ATOM     11  N   UNL     1       0.441  10.655  19.609  0.00  0.00    +0.000 N 
ENDROOT
BRANCH   1  13
ATOM     12  C   UNL     1       4.195   5.381  19.088  0.00  0.00    +0.000 C 
ATOM     13  C   UNL     1       3.218   5.892  18.323  0.00  0.00    +0.000 C 
BRANCH  12  14
ATOM     14  C   UNL     1       4.785   4.060  18.779  0.00  0.00    +0.000 C 
ATOM     15  O   UNL     1       5.130   3.677  17.675  0.00  0.00    +0.000 OA
BRANCH  14  16
ATOM     16  O   UNL     1       4.695   3.312  19.907  0.00  0.00    +0.000 OA
BRANCH  16  17
ATOM     17  C   UNL     1       3.477   2.567  20.014  0.00  0.00    +0.000 C 
BRANCH  17  18
ATOM     18  C   UNL     1       2.689   2.914  21.270  0.00  0.00    +0.000 C 
BRANCH  18  20
ATOM     19  C   UNL     1       0.965   3.068  19.421  0.00  0.00    +0.000 C 
ATOM     20  C   UNL     1       1.240   3.249  20.903  0.00  0.00    +0.000 C 
ENDBRANCH  18  20
ENDBRANCH  17  18
ENDBRANCH  16  17
ENDBRANCH  14  16
ENDBRANCH  12  14
ENDBRANCH   1  13
BRANCH  11  21
ATOM     21  C   UNL     1      -0.055  11.757  18.809  0.00  0.00    +0.000 C 
BRANCH  21  22
ATOM     22  C   UNL     1       0.908  12.923  18.753  0.00  0.00    +0.000 A 
ATOM     23  C   UNL     1       0.463  14.228  19.019  0.00  0.00    +0.000 A 
ATOM     24  C   UNL     1       1.327  15.317  18.892  0.00  0.00    +0.000 A 
ATOM     25  C   UNL     1       2.652  15.107  18.522  0.00  0.00    +0.000 A 
ATOM     26 BR   UNL     1       3.807  16.585  18.284  0.00  0.00    +0.000 Br
ATOM     27  C   UNL     1       3.129  13.815  18.309  0.00  0.00    +0.000 A 
ATOM     28  C   UNL     1       2.259  12.727  18.428  0.00  0.00    +0.000 A 
ENDBRANCH  21  22
ENDBRANCH  11  21
TORSDOF 8
ENDMDL
MODEL 9
REMARK VINA RESULT:      -7.3      1.790      2.804
REMARK  Name = 
REMARK  9 active torsions:
REMARK  status: ('A' for Active; 'I' for Inactive)
REMARK    1  A    between atoms: C_1  and  C_2
REMARK    2  A    between atoms: C_2  and  C_3
REMARK    3  A    between atoms: C_3  and  C_4
REMARK    4  A    between atoms: C_4  and  O_5
REMARK    5  A    between atoms: O_5  and  C_6
REMARK    6  A    between atoms: C_6  and  C_8
REMARK    7  A    between atoms: C_9  and  C_10
REMARK    8  A    between atoms: N_20  and  C_21
REMARK    9  A    between atoms: C_21  and  C_22
REMARK                            x       y       z     vdW  Elec       q    Type
REMARK                         _______ _______ _______ _____ _____    ______ ____
ROOT
ATOM      1  C   UNL     1       2.240   7.581  18.884  0.00  0.00    +0.000 A 
ATOM      2  C   UNL     1       1.836   8.458  17.845  0.00  0.00    +0.000 A 
ATOM      3  C   UNL     1       1.102   9.628  18.103  0.00  0.00    +0.000 A 
ATOM      4  C   UNL     1       0.779   9.911  19.416  0.00  0.00    +0.000 A 
ATOM      5  C   UNL     1       1.190   9.051  20.432  0.00  0.00    +0.000 A 
ATOM      6  C   UNL     1       1.924   7.900  20.208  0.00  0.00    +0.000 A 
ATOM      7  C   UNL     1       0.700   9.595  21.697  0.00  0.00    +0.000 C 
ATOM      8  O   UNL     1       0.859   9.129  22.799  0.00  0.00    +0.000 OA
ATOM      9  C   UNL     1      -0.064  10.889  21.317  0.00  0.00    +0.000 C 
ATOM     10  O   UNL     1      -0.640  11.613  22.100  0.00  0.00    +0.000 OA
ATOM     11  N   UNL     1       0.059  10.999  19.938  0.00  0.00    +0.000 N 
ENDROOT
BRANCH   1  13
ATOM     12  C   UNL     1       3.519   5.531  19.448  0.00  0.00    +0.000 C 
ATOM     13  C   UNL     1       2.999   6.369  18.537  0.00  0.00    +0.000 C 
BRANCH  12  14
ATOM     14  C   UNL     1       4.161   4.265  19.033  0.00  0.00    +0.000 C 
ATOM     15  O   UNL     1       3.637   3.166  19.045  0.00  0.00    +0.000 OA
BRANCH  14  16
ATOM     16  O   UNL     1       5.472   4.537  18.819  0.00  0.00    +0.000 OA
BRANCH  16  17
ATOM     17  C   UNL     1       5.885   4.373  17.458  0.00  0.00    +0.000 C 
BRANCH  17  18
ATOM     18  C   UNL     1       7.279   4.928  17.199  0.00  0.00    +0.000 C 
BRANCH  18  20
ATOM     19  C   UNL     1       7.916   7.110  18.316  0.00  0.00    +0.000 C 
ATOM     20  C   UNL     1       7.231   6.457  17.129  0.00  0.00    +0.000 C 
ENDBRANCH  18  20
ENDBRANCH  17  18
ENDBRANCH  16  17
ENDBRANCH  14  16
ENDBRANCH  12  14
ENDBRANCH   1  13
BRANCH  11  21
ATOM     21  C   UNL     1      -0.513  12.080  19.161  0.00  0.00    +0.000 C 
BRANCH  21  22
ATOM     22  C   UNL     1      -1.992  11.901  18.902  0.00  0.00    +0.000 A 
ATOM     23  C   UNL     1      -2.941  12.547  19.712  0.00  0.00    +0.000 A 
ATOM     24  C   UNL     1      -4.307  12.324  19.527  0.00  0.00    +0.000 A 
ATOM     25  C   UNL     1      -4.737  11.472  18.515  0.00  0.00    +0.000 A 
ATOM     26 BR   UNL     1      -6.582  11.116  18.307  0.00  0.00    +0.000 Br
ATOM     27  C   UNL     1      -3.815  10.866  17.665  0.00  0.00    +0.000 A 
ATOM     28  C   UNL     1      -2.447  11.083  17.857  0.00  0.00    +0.000 A 
ENDBRANCH  21  22
ENDBRANCH  11  21
TORSDOF 8
ENDMDL
