MODEL 1
REMARK VINA RESULT:      -7.4      0.000      0.000
REMARK  Name = 
REMARK  4 active torsions:
REMARK  status: ('A' for Active; 'I' for Inactive)
REMARK    1  A    between atoms: N_3  and  C_4
REMARK    2  A    between atoms: N_10  and  N_11
REMARK    3  A    between atoms: N_11  and  C_16
REMARK    4  A    between atoms: C_12  and  C_14
REMARK                            x       y       z     vdW  Elec       q    Type
REMARK                         _______ _______ _______ _____ _____    ______ ____
ROOT
ATOM      1  O   UNL     1       4.747   7.006  15.489  0.00  0.00    +0.000 OA
ATOM      2  C   UNL     1       4.972   5.998  16.155  0.00  0.00    +0.000 C 
ATOM      3  N   UNL     1       5.527   4.834  15.694  0.00  0.00    +0.000 N 
ATOM      4  N   UNL     1       4.715   6.076  17.505  0.00  0.00    +0.000 N 
ATOM      5  H   UNL     1       5.435   4.018  16.282  0.00  0.00    +0.000 HD
ATOM      6  H   UNL     1       4.255   6.941  17.775  0.00  0.00    +0.000 HD
ENDROOT
BRANCH   3   7
ATOM      7  C   UNL     1       6.131   4.625  14.427  0.00  0.00    +0.000 A 
ATOM      8  C   UNL     1       7.308   5.255  14.008  0.00  0.00    +0.000 A 
ATOM      9  C   UNL     1       7.844   5.007  12.738  0.00  0.00    +0.000 A 
ATOM     10  C   UNL     1       7.217   4.112  11.875  0.00  0.00    +0.000 A 
ATOM     11  C   UNL     1       6.062   3.455  12.292  0.00  0.00    +0.000 A 
ATOM     12  C   UNL     1       5.527   3.705  13.560  0.00  0.00    +0.000 A 
ENDBRANCH   3   7
BRANCH   4  13
ATOM     13  N   UNL     1       4.606   5.010  18.425  0.00  0.00    +0.000 N 
ATOM     14  C   UNL     1       5.721   4.525  19.132  0.00  0.00    +0.000 C 
ATOM     15  O   UNL     1       5.682   3.483  19.799  0.00  0.00    +0.000 OA
BRANCH  13  16
ATOM     16  C   UNL     1       3.267   4.682  18.861  0.00  0.00    +0.000 A 
ATOM     17  C   UNL     1       2.738   5.223  20.052  0.00  0.00    +0.000 A 
ATOM     18  C   UNL     1       1.459   4.894  20.510  0.00  0.00    +0.000 A 
ATOM     19  C   UNL     1       0.673   4.024  19.766  0.00  0.00    +0.000 A 
ATOM     20  C   UNL     1       1.150   3.511  18.558  0.00  0.00    +0.000 A 
ATOM     21  C   UNL     1       2.435   3.850  18.097  0.00  0.00    +0.000 A 
ENDBRANCH  13  16
BRANCH  14  22
ATOM     22  C   UNL     1       7.021   5.305  19.072  0.00  0.00    +0.000 C 
ATOM     23 CL   UNL     1       8.083   4.555  17.855  0.00  0.00    +0.000 Cl
ENDBRANCH  14  22
ENDBRANCH   4  13
TORSDOF 4
ENDMDL
MODEL 2
REMARK VINA RESULT:      -7.3      0.079      1.051
REMARK  Name = 
REMARK  4 active torsions:
REMARK  status: ('A' for Active; 'I' for Inactive)
REMARK    1  A    between atoms: N_3  and  C_4
REMARK    2  A    between atoms: N_10  and  N_11
REMARK    3  A    between atoms: N_11  and  C_16
REMARK    4  A    between atoms: C_12  and  C_14
REMARK                            x       y       z     vdW  Elec       q    Type
REMARK                         _______ _______ _______ _____ _____    ______ ____
ROOT
ATOM      1  O   UNL     1       4.771   6.956  15.465  0.00  0.00    +0.000 OA
ATOM      2  C   UNL     1       4.974   5.947  16.137  0.00  0.00    +0.000 C 
ATOM      3  N   UNL     1       5.469   4.757  15.674  0.00  0.00    +0.000 N 
ATOM      4  N   UNL     1       4.757   6.049  17.492  0.00  0.00    +0.000 N 
ATOM      5  H   UNL     1       5.361   3.951  16.274  0.00  0.00    +0.000 HD
ATOM      6  H   UNL     1       4.340   6.934  17.765  0.00  0.00    +0.000 HD
ENDROOT
BRANCH   3   7
ATOM      7  C   UNL     1       6.030   4.511  14.394  0.00  0.00    +0.000 A 
ATOM      8  C   UNL     1       5.460   3.662  13.440  0.00  0.00    +0.000 A 
ATOM      9  C   UNL     1       6.074   3.459  12.197  0.00  0.00    +0.000 A 
ATOM     10  C   UNL     1       7.262   4.116  11.887  0.00  0.00    +0.000 A 
ATOM     11  C   UNL     1       7.824   4.989  12.817  0.00  0.00    +0.000 A 
ATOM     12  C   UNL     1       7.210   5.188  14.058  0.00  0.00    +0.000 A 
ENDBRANCH   3   7
BRANCH   4  13
ATOM     13  N   UNL     1       4.632   4.998  18.427  0.00  0.00    +0.000 N 
ATOM     14  C   UNL     1       5.736   4.514  19.151  0.00  0.00    +0.000 C 
ATOM     15  O   UNL     1       5.683   3.482  19.832  0.00  0.00    +0.000 OA
BRANCH  13  16
ATOM     16  C   UNL     1       3.286   4.688  18.856  0.00  0.00    +0.000 A 
ATOM     17  C   UNL     1       2.781   5.183  20.077  0.00  0.00    +0.000 A 
ATOM     18  C   UNL     1       1.496   4.870  20.527  0.00  0.00    +0.000 A 
ATOM     19  C   UNL     1       0.679   4.062  19.746  0.00  0.00    +0.000 A 
ATOM     20  C   UNL     1       1.134   3.597  18.511  0.00  0.00    +0.000 A 
ATOM     21  C   UNL     1       2.425   3.920  18.058  0.00  0.00    +0.000 A 
ENDBRANCH  13  16
BRANCH  14  22
ATOM     22  C   UNL     1       7.044   5.281  19.090  0.00  0.00    +0.000 C 
ATOM     23 CL   UNL     1       8.066   4.573  17.816  0.00  0.00    +0.000 Cl
ENDBRANCH  14  22
ENDBRANCH   4  13
TORSDOF 4
ENDMDL
MODEL 3
REMARK VINA RESULT:      -7.2      0.047      1.053
REMARK  Name = 
REMARK  4 active torsions:
REMARK  status: ('A' for Active; 'I' for Inactive)
REMARK    1  A    between atoms: N_3  and  C_4
REMARK    2  A    between atoms: N_10  and  N_11
REMARK    3  A    between atoms: N_11  and  C_16
REMARK    4  A    between atoms: C_12  and  C_14
REMARK                            x       y       z     vdW  Elec       q    Type
REMARK                         _______ _______ _______ _____ _____    ______ ____
ROOT
ATOM      1  O   UNL     1       4.727   7.004  15.478  0.00  0.00    +0.000 OA
ATOM      2  C   UNL     1       4.970   6.006  16.151  0.00  0.00    +0.000 C 
ATOM      3  N   UNL     1       5.542   4.847  15.699  0.00  0.00    +0.000 N 
ATOM      4  N   UNL     1       4.716   6.090  17.501  0.00  0.00    +0.000 N 
ATOM      5  H   UNL     1       5.465   4.034  16.294  0.00  0.00    +0.000 HD
ATOM      6  H   UNL     1       4.243   6.950  17.766  0.00  0.00    +0.000 HD
ENDROOT
BRANCH   3   7
ATOM      7  C   UNL     1       6.147   4.637  14.432  0.00  0.00    +0.000 A 
ATOM      8  C   UNL     1       7.322   5.268  14.011  0.00  0.00    +0.000 A 
ATOM      9  C   UNL     1       7.858   5.019  12.741  0.00  0.00    +0.000 A 
ATOM     10  C   UNL     1       7.232   4.122  11.880  0.00  0.00    +0.000 A 
ATOM     11  C   UNL     1       6.078   3.463  12.298  0.00  0.00    +0.000 A 
ATOM     12  C   UNL     1       5.543   3.714  13.566  0.00  0.00    +0.000 A 
ENDBRANCH   3   7
BRANCH   4  13
ATOM     13  N   UNL     1       4.626   5.031  18.430  0.00  0.00    +0.000 N 
ATOM     14  C   UNL     1       5.756   4.552  19.118  0.00  0.00    +0.000 C 
ATOM     15  O   UNL     1       5.731   3.514  19.792  0.00  0.00    +0.000 OA
BRANCH  13  16
ATOM     16  C   UNL     1       3.297   4.705  18.896  0.00  0.00    +0.000 A 
ATOM     17  C   UNL     1       2.477   3.804  18.184  0.00  0.00    +0.000 A 
ATOM     18  C   UNL     1       1.177   3.501  18.597  0.00  0.00    +0.000 A 
ATOM     19  C   UNL     1       0.677   4.086  19.753  0.00  0.00    +0.000 A 
ATOM     20  C   UNL     1       1.481   4.944  20.506  0.00  0.00    +0.000 A 
ATOM     21  C   UNL     1       2.792   5.241  20.090  0.00  0.00    +0.000 A 
ENDBRANCH  13  16
BRANCH  14  22
ATOM     22  C   UNL     1       7.054   5.331  19.026  0.00  0.00    +0.000 C 
ATOM     23 CL   UNL     1       8.131   4.517  17.865  0.00  0.00    +0.000 Cl
ENDBRANCH  14  22
ENDBRANCH   4  13
TORSDOF 4
ENDMDL
MODEL 4
REMARK VINA RESULT:      -7.2      2.300      6.348
REMARK  Name = 
REMARK  4 active torsions:
REMARK  status: ('A' for Active; 'I' for Inactive)
REMARK    1  A    between atoms: N_3  and  C_4
REMARK    2  A    between atoms: N_10  and  N_11
REMARK    3  A    between atoms: N_11  and  C_16
REMARK    4  A    between atoms: C_12  and  C_14
REMARK                            x       y       z     vdW  Elec       q    Type
REMARK                         _______ _______ _______ _____ _____    ______ ____
ROOT
ATOM      1  O   UNL     1       3.404   3.038  17.175  0.00  0.00    +0.000 OA
ATOM      2  C   UNL     1       4.300   3.876  17.103  0.00  0.00    +0.000 C 
ATOM      3  N   UNL     1       4.306   5.105  17.708  0.00  0.00    +0.000 N 
ATOM      4  N   UNL     1       5.435   3.514  16.414  0.00  0.00    +0.000 N 
ATOM      5  H   UNL     1       4.983   5.777  17.376  0.00  0.00    +0.000 HD
ATOM      6  H   UNL     1       5.348   2.617  15.943  0.00  0.00    +0.000 HD
ENDROOT
BRANCH   3   7
ATOM      7  C   UNL     1       3.393   5.573  18.688  0.00  0.00    +0.000 A 
ATOM      8  C   UNL     1       2.921   4.797  19.752  0.00  0.00    +0.000 A 
ATOM      9  C   UNL     1       2.012   5.322  20.679  0.00  0.00    +0.000 A 
ATOM     10  C   UNL     1       1.574   6.639  20.562  0.00  0.00    +0.000 A 
ATOM     11  C   UNL     1       2.060   7.432  19.525  0.00  0.00    +0.000 A 
ATOM     12  C   UNL     1       2.966   6.905  18.599  0.00  0.00    +0.000 A 
ENDBRANCH   3   7
BRANCH   4  13
ATOM     13  N   UNL     1       6.462   4.359  15.939  0.00  0.00    +0.000 N 
ATOM     14  C   UNL     1       6.676   4.563  14.564  0.00  0.00    +0.000 C 
ATOM     15  O   UNL     1       7.676   5.148  14.128  0.00  0.00    +0.000 OA
BRANCH  13  16
ATOM     16  C   UNL     1       7.042   5.260  16.909  0.00  0.00    +0.000 A 
ATOM     17  C   UNL     1       7.618   4.772  18.101  0.00  0.00    +0.000 A 
ATOM     18  C   UNL     1       8.154   5.627  19.068  0.00  0.00    +0.000 A 
ATOM     19  C   UNL     1       8.138   6.998  18.847  0.00  0.00    +0.000 A 
ATOM     20  C   UNL     1       7.620   7.508  17.655  0.00  0.00    +0.000 A 
ATOM     21  C   UNL     1       7.088   6.644  16.682  0.00  0.00    +0.000 A 
ENDBRANCH  13  16
BRANCH  14  22
ATOM     22  C   UNL     1       5.648   4.043  13.577  0.00  0.00    +0.000 C 
ATOM     23 CL   UNL     1       6.496   3.414  12.144  0.00  0.00    +0.000 Cl
ENDBRANCH  14  22
ENDBRANCH   4  13
TORSDOF 4
ENDMDL
MODEL 5
REMARK VINA RESULT:      -7.2      2.282      6.373
REMARK  Name = 
REMARK  4 active torsions:
REMARK  status: ('A' for Active; 'I' for Inactive)
REMARK    1  A    between atoms: N_3  and  C_4
REMARK    2  A    between atoms: N_10  and  N_11
REMARK    3  A    between atoms: N_11  and  C_16
REMARK    4  A    between atoms: C_12  and  C_14
REMARK                            x       y       z     vdW  Elec       q    Type
REMARK                         _______ _______ _______ _____ _____    ______ ____
ROOT
ATOM      1  O   UNL     1       3.428   3.015  17.308  0.00  0.00    +0.000 OA
ATOM      2  C   UNL     1       4.309   3.866  17.217  0.00  0.00    +0.000 C 
ATOM      3  N   UNL     1       4.293   5.109  17.793  0.00  0.00    +0.000 N 
ATOM      4  N   UNL     1       5.451   3.509  16.536  0.00  0.00    +0.000 N 
ATOM      5  H   UNL     1       4.958   5.785  17.446  0.00  0.00    +0.000 HD
ATOM      6  H   UNL     1       5.381   2.600  16.087  0.00  0.00    +0.000 HD
ENDROOT
BRANCH   3   7
ATOM      7  C   UNL     1       3.371   5.583  18.762  0.00  0.00    +0.000 A 
ATOM      8  C   UNL     1       2.832   4.792  19.782  0.00  0.00    +0.000 A 
ATOM      9  C   UNL     1       1.918   5.325  20.700  0.00  0.00    +0.000 A 
ATOM     10  C   UNL     1       1.542   6.664  20.618  0.00  0.00    +0.000 A 
ATOM     11  C   UNL     1       2.096   7.470  19.626  0.00  0.00    +0.000 A 
ATOM     12  C   UNL     1       3.006   6.935  18.708  0.00  0.00    +0.000 A 
ENDBRANCH   3   7
BRANCH   4  13
ATOM     13  N   UNL     1       6.463   4.360  16.042  0.00  0.00    +0.000 N 
ATOM     14  C   UNL     1       6.666   4.547  14.663  0.00  0.00    +0.000 C 
ATOM     15  O   UNL     1       7.655   5.139  14.212  0.00  0.00    +0.000 OA
BRANCH  13  16
ATOM     16  C   UNL     1       7.036   5.285  16.995  0.00  0.00    +0.000 A 
ATOM     17  C   UNL     1       7.034   6.675  16.751  0.00  0.00    +0.000 A 
ATOM     18  C   UNL     1       7.611   7.583  17.642  0.00  0.00    +0.000 A 
ATOM     19  C   UNL     1       8.189   7.113  18.814  0.00  0.00    +0.000 A 
ATOM     20  C   UNL     1       8.163   5.748  19.107  0.00  0.00    +0.000 A 
ATOM     21  C   UNL     1       7.575   4.838  18.211  0.00  0.00    +0.000 A 
ENDBRANCH  13  16
BRANCH  14  22
ATOM     22  C   UNL     1       5.640   3.997  13.691  0.00  0.00    +0.000 C 
ATOM     23 CL   UNL     1       6.471   3.509  12.195  0.00  0.00    +0.000 Cl
ENDBRANCH  14  22
ENDBRANCH   4  13
TORSDOF 4
ENDMDL
MODEL 6
REMARK VINA RESULT:      -7.1      0.207      1.497
REMARK  Name = 
REMARK  4 active torsions:
REMARK  status: ('A' for Active; 'I' for Inactive)
REMARK    1  A    between atoms: N_3  and  C_4
REMARK    2  A    between atoms: N_10  and  N_11
REMARK    3  A    between atoms: N_11  and  C_16
REMARK    4  A    between atoms: C_12  and  C_14
REMARK                            x       y       z     vdW  Elec       q    Type
REMARK                         _______ _______ _______ _____ _____    ______ ____
ROOT
ATOM      1  O   UNL     1       4.612   6.877  15.558  0.00  0.00    +0.000 OA
ATOM      2  C   UNL     1       4.854   5.868  16.216  0.00  0.00    +0.000 C 
ATOM      3  N   UNL     1       5.401   4.706  15.740  0.00  0.00    +0.000 N 
ATOM      4  N   UNL     1       4.627   5.940  17.572  0.00  0.00    +0.000 N 
ATOM      5  H   UNL     1       5.324   3.888  16.327  0.00  0.00    +0.000 HD
ATOM      6  H   UNL     1       4.172   6.804  17.855  0.00  0.00    +0.000 HD
ENDROOT
BRANCH   3   7
ATOM      7  C   UNL     1       5.978   4.502  14.459  0.00  0.00    +0.000 A 
ATOM      8  C   UNL     1       5.406   3.706  13.461  0.00  0.00    +0.000 A 
ATOM      9  C   UNL     1       6.036   3.543  12.221  0.00  0.00    +0.000 A 
ATOM     10  C   UNL     1       7.243   4.187  11.957  0.00  0.00    +0.000 A 
ATOM     11  C   UNL     1       7.808   5.007  12.932  0.00  0.00    +0.000 A 
ATOM     12  C   UNL     1       7.177   5.167  14.171  0.00  0.00    +0.000 A 
ENDBRANCH   3   7
BRANCH   4  13
ATOM     13  N   UNL     1       4.541   4.872  18.491  0.00  0.00    +0.000 N 
ATOM     14  C   UNL     1       5.659   4.433  19.224  0.00  0.00    +0.000 C 
ATOM     15  O   UNL     1       5.647   3.390  19.891  0.00  0.00    +0.000 OA
BRANCH  13  16
ATOM     16  C   UNL     1       3.207   4.491  18.898  0.00  0.00    +0.000 A 
ATOM     17  C   UNL     1       2.458   3.556  18.151  0.00  0.00    +0.000 A 
ATOM     18  C   UNL     1       1.155   3.198  18.507  0.00  0.00    +0.000 A 
ATOM     19  C   UNL     1       0.580   3.762  19.639  0.00  0.00    +0.000 A 
ATOM     20  C   UNL     1       1.313   4.653  20.425  0.00  0.00    +0.000 A 
ATOM     21  C   UNL     1       2.627   5.005  20.067  0.00  0.00    +0.000 A 
ENDBRANCH  13  16
BRANCH  14  22
ATOM     22  C   UNL     1       6.927   5.264  19.191  0.00  0.00    +0.000 C 
ATOM     23 CL   UNL     1       8.001   4.621  17.925  0.00  0.00    +0.000 Cl
ENDBRANCH  14  22
ENDBRANCH   4  13
TORSDOF 4
ENDMDL
MODEL 7
REMARK VINA RESULT:      -7.1      2.285      6.322
REMARK  Name = 
REMARK  4 active torsions:
REMARK  status: ('A' for Active; 'I' for Inactive)
REMARK    1  A    between atoms: N_3  and  C_4
REMARK    2  A    between atoms: N_10  and  N_11
REMARK    3  A    between atoms: N_11  and  C_16
REMARK    4  A    between atoms: C_12  and  C_14
REMARK                            x       y       z     vdW  Elec       q    Type
REMARK                         _______ _______ _______ _____ _____    ______ ____
ROOT
ATOM      1  O   UNL     1       3.412   3.071  17.231  0.00  0.00    +0.000 OA
ATOM      2  C   UNL     1       4.306   3.909  17.144  0.00  0.00    +0.000 C 
ATOM      3  N   UNL     1       4.308   5.149  17.726  0.00  0.00    +0.000 N 
ATOM      4  N   UNL     1       5.443   3.537  16.464  0.00  0.00    +0.000 N 
ATOM      5  H   UNL     1       4.983   5.817  17.382  0.00  0.00    +0.000 HD
ATOM      6  H   UNL     1       5.360   2.631  16.011  0.00  0.00    +0.000 HD
ENDROOT
BRANCH   3   7
ATOM      7  C   UNL     1       3.391   5.633  18.695  0.00  0.00    +0.000 A 
ATOM      8  C   UNL     1       2.859   6.927  18.692  0.00  0.00    +0.000 A 
ATOM      9  C   UNL     1       1.964   7.341  19.686  0.00  0.00    +0.000 A 
ATOM     10  C   UNL     1       1.576   6.458  20.691  0.00  0.00    +0.000 A 
ATOM     11  C   UNL     1       2.074   5.157  20.689  0.00  0.00    +0.000 A 
ATOM     12  C   UNL     1       2.970   4.747  19.696  0.00  0.00    +0.000 A 
ENDBRANCH   3   7
BRANCH   4  13
ATOM     13  N   UNL     1       6.469   4.375  15.976  0.00  0.00    +0.000 N 
ATOM     14  C   UNL     1       6.677   4.565  14.598  0.00  0.00    +0.000 C 
ATOM     15  O   UNL     1       7.676   5.144  14.151  0.00  0.00    +0.000 OA
BRANCH  13  16
ATOM     16  C   UNL     1       7.054   5.287  16.934  0.00  0.00    +0.000 A 
ATOM     17  C   UNL     1       7.638   4.811  18.127  0.00  0.00    +0.000 A 
ATOM     18  C   UNL     1       8.179   5.675  19.082  0.00  0.00    +0.000 A 
ATOM     19  C   UNL     1       8.162   7.044  18.847  0.00  0.00    +0.000 A 
ATOM     20  C   UNL     1       7.636   7.542  17.654  0.00  0.00    +0.000 A 
ATOM     21  C   UNL     1       7.098   6.668  16.692  0.00  0.00    +0.000 A 
ENDBRANCH  13  16
BRANCH  14  22
ATOM     22  C   UNL     1       5.644   4.035  13.622  0.00  0.00    +0.000 C 
ATOM     23 CL   UNL     1       6.483   3.406  12.183  0.00  0.00    +0.000 Cl
ENDBRANCH  14  22
ENDBRANCH   4  13
TORSDOF 4
ENDMDL
MODEL 8
REMARK VINA RESULT:      -7.1      2.288      6.330
REMARK  Name = 
REMARK  4 active torsions:
REMARK  status: ('A' for Active; 'I' for Inactive)
REMARK    1  A    between atoms: N_3  and  C_4
REMARK    2  A    between atoms: N_10  and  N_11
REMARK    3  A    between atoms: N_11  and  C_16
REMARK    4  A    between atoms: C_12  and  C_14
REMARK                            x       y       z     vdW  Elec       q    Type
REMARK                         _______ _______ _______ _____ _____    ______ ____
ROOT
ATOM      1  O   UNL     1       3.363   3.141  17.236  0.00  0.00    +0.000 OA
ATOM      2  C   UNL     1       4.265   3.972  17.157  0.00  0.00    +0.000 C 
ATOM      3  N   UNL     1       4.271   5.214  17.734  0.00  0.00    +0.000 N 
ATOM      4  N   UNL     1       5.406   3.588  16.490  0.00  0.00    +0.000 N 
ATOM      5  H   UNL     1       4.956   5.875  17.395  0.00  0.00    +0.000 HD
ATOM      6  H   UNL     1       5.320   2.682  16.039  0.00  0.00    +0.000 HD
ENDROOT
BRANCH   3   7
ATOM      7  C   UNL     1       3.347   5.709  18.692  0.00  0.00    +0.000 A 
ATOM      8  C   UNL     1       2.838   7.012  18.687  0.00  0.00    +0.000 A 
ATOM      9  C   UNL     1       1.935   7.436  19.670  0.00  0.00    +0.000 A 
ATOM     10  C   UNL     1       1.517   6.555  20.664  0.00  0.00    +0.000 A 
ATOM     11  C   UNL     1       1.993   5.245  20.663  0.00  0.00    +0.000 A 
ATOM     12  C   UNL     1       2.897   4.825  19.681  0.00  0.00    +0.000 A 
ENDBRANCH   3   7
BRANCH   4  13
ATOM     13  N   UNL     1       6.444   4.416  16.010  0.00  0.00    +0.000 N 
ATOM     14  C   UNL     1       6.662   4.608  14.633  0.00  0.00    +0.000 C 
ATOM     15  O   UNL     1       7.669   5.177  14.194  0.00  0.00    +0.000 OA
BRANCH  13  16
ATOM     16  C   UNL     1       7.035   5.318  16.974  0.00  0.00    +0.000 A 
ATOM     17  C   UNL     1       7.060   6.710  16.746  0.00  0.00    +0.000 A 
ATOM     18  C   UNL     1       7.655   7.597  17.648  0.00  0.00    +0.000 A 
ATOM     19  C   UNL     1       8.223   7.101  18.814  0.00  0.00    +0.000 A 
ATOM     20  C   UNL     1       8.170   5.733  19.091  0.00  0.00    +0.000 A 
ATOM     21  C   UNL     1       7.565   4.845  18.184  0.00  0.00    +0.000 A 
ENDBRANCH  13  16
BRANCH  14  22
ATOM     22  C   UNL     1       5.628   4.093  13.650  0.00  0.00    +0.000 C 
ATOM     23 CL   UNL     1       6.470   3.390  12.248  0.00  0.00    +0.000 Cl
ENDBRANCH  14  22
ENDBRANCH   4  13
TORSDOF 4
ENDMDL
MODEL 9
REMARK VINA RESULT:      -7.0      2.283      2.972
REMARK  Name = 
REMARK  4 active torsions:
REMARK  status: ('A' for Active; 'I' for Inactive)
REMARK    1  A    between atoms: N_3  and  C_4
REMARK    2  A    between atoms: N_10  and  N_11
REMARK    3  A    between atoms: N_11  and  C_16
REMARK    4  A    between atoms: C_12  and  C_14
REMARK                            x       y       z     vdW  Elec       q    Type
REMARK                         _______ _______ _______ _____ _____    ______ ____
ROOT
ATOM      1  O   UNL     1       6.963   4.721  17.168  0.00  0.00    +0.000 OA
ATOM      2  C   UNL     1       5.774   4.622  16.875  0.00  0.00    +0.000 C 
ATOM      3  N   UNL     1       5.254   4.604  15.608  0.00  0.00    +0.000 N 
ATOM      4  N   UNL     1       4.891   4.432  17.914  0.00  0.00    +0.000 N 
ATOM      5  H   UNL     1       4.260   4.758  15.517  0.00  0.00    +0.000 HD
ATOM      6  H   UNL     1       5.328   4.510  18.828  0.00  0.00    +0.000 HD
ENDROOT
BRANCH   3   7
ATOM      7  C   UNL     1       5.981   4.493  14.394  0.00  0.00    +0.000 A 
ATOM      8  C   UNL     1       7.148   5.211  14.112  0.00  0.00    +0.000 A 
ATOM      9  C   UNL     1       7.809   5.058  12.887  0.00  0.00    +0.000 A 
ATOM     10  C   UNL     1       7.320   4.170  11.932  0.00  0.00    +0.000 A 
ATOM     11  C   UNL     1       6.176   3.426  12.212  0.00  0.00    +0.000 A 
ATOM     12  C   UNL     1       5.515   3.582  13.435  0.00  0.00    +0.000 A 
ENDBRANCH   3   7
BRANCH   4  13
ATOM     13  N   UNL     1       3.487   4.578  17.890  0.00  0.00    +0.000 N 
ATOM     14  C   UNL     1       2.630   3.473  17.740  0.00  0.00    +0.000 C 
ATOM     15  O   UNL     1       1.415   3.599  17.535  0.00  0.00    +0.000 OA
BRANCH  13  16
ATOM     16  C   UNL     1       2.972   5.840  18.373  0.00  0.00    +0.000 A 
ATOM     17  C   UNL     1       2.929   6.976  17.536  0.00  0.00    +0.000 A 
ATOM     18  C   UNL     1       2.467   8.213  17.992  0.00  0.00    +0.000 A 
ATOM     19  C   UNL     1       2.017   8.332  19.300  0.00  0.00    +0.000 A 
ATOM     20  C   UNL     1       2.001   7.215  20.137  0.00  0.00    +0.000 A 
ATOM     21  C   UNL     1       2.461   5.969  19.673  0.00  0.00    +0.000 A 
ENDBRANCH  13  16
BRANCH  14  22
ATOM     22  C   UNL     1       3.214   2.076  17.827  0.00  0.00    +0.000 C 
ATOM     23 CL   UNL     1       3.837   1.816  19.474  0.00  0.00    +0.000 Cl
ENDBRANCH  14  22
ENDBRANCH   4  13
TORSDOF 4
ENDMDL
