MODEL 1
REMARK VINA RESULT:      -9.0      0.000      0.000
REMARK  Name = 
REMARK  5 active torsions:
REMARK  status: ('A' for Active; 'I' for Inactive)
REMARK    1  A    between atoms: C_1  and  C_2
REMARK    2  A    between atoms: C_2  and  O_4
REMARK    3  A    between atoms: O_4  and  N_5
REMARK    4  A    between atoms: C_7  and  C_8
REMARK    5  A    between atoms: C_9  and  O_10
REMARK                            x       y       z     vdW  Elec       q    Type
REMARK                         _______ _______ _______ _____ _____    ______ ____
ROOT
ATOM      1  N   UNL     1       3.785   6.551  17.887  0.00  0.00    +0.000 NA
ATOM      2  C   UNL     1       3.609   5.273  17.783  0.00  0.00    +0.000 C 
ATOM      3  C   UNL     1       4.519   4.405  16.934  0.00  0.00    +0.000 C 
ATOM      4  N   UNL     1       4.184   3.145  17.020  0.00  0.00    +0.000 NA
ATOM      5  C   UNL     1       3.101   3.091  17.914  0.00  0.00    +0.000 A 
ATOM      6  C   UNL     1       2.503   1.934  18.379  0.00  0.00    +0.000 A 
ATOM      7  C   UNL     1       1.461   2.049  19.303  0.00  0.00    +0.000 A 
ATOM      8  C   UNL     1       1.009   3.312  19.724  0.00  0.00    +0.000 A 
ATOM      9  C   UNL     1       1.613   4.481  19.253  0.00  0.00    +0.000 A 
ATOM     10  C   UNL     1       2.670   4.337  18.376  0.00  0.00    +0.000 A 
ENDROOT
BRANCH   3  11
ATOM     11  C   UNL     1       5.636   4.841  16.132  0.00  0.00    +0.000 A 
ATOM     12  C   UNL     1       6.655   5.684  16.545  0.00  0.00    +0.000 A 
ATOM     13  N   UNL     1       7.529   5.836  15.507  0.00  0.00    +0.000 N 
ATOM     14  C   UNL     1       7.111   5.123  14.411  0.00  0.00    +0.000 A 
ATOM     15  C   UNL     1       7.685   5.002  13.140  0.00  0.00    +0.000 A 
ATOM     16  C   UNL     1       7.021   4.203  12.206  0.00  0.00    +0.000 A 
ATOM     17  C   UNL     1       5.835   3.550  12.532  0.00  0.00    +0.000 A 
ATOM     18  C   UNL     1       5.281   3.678  13.810  0.00  0.00    +0.000 A 
ATOM     19  C   UNL     1       5.928   4.479  14.774  0.00  0.00    +0.000 A 
ATOM     20  H   UNL     1       8.356   6.412  15.553  0.00  0.00    +0.000 HD
BRANCH  12  21
ATOM     21  O   UNL     1       6.920   6.308  17.686  0.00  0.00    +0.000 OA
ATOM     22  H   UNL     1       7.355   5.675  18.296  0.00  0.00    +0.000 HD
ENDBRANCH  12  21
ENDBRANCH   3  11
BRANCH   1  23
ATOM     23  O   UNL     1       2.844   7.162  18.723  0.00  0.00    +0.000 OA
BRANCH  23  25
ATOM     24  C   UNL     1       1.443   9.008  19.099  0.00  0.00    +0.000 C 
ATOM     25  C   UNL     1       2.371   8.321  18.138  0.00  0.00    +0.000 C 
ATOM     26  O   UNL     1       2.632   8.739  17.022  0.00  0.00    +0.000 OA
ENDBRANCH  23  25
ENDBRANCH   1  23
TORSDOF 4
ENDMDL
MODEL 2
REMARK VINA RESULT:      -8.6      2.352      6.701
REMARK  Name = 
REMARK  5 active torsions:
REMARK  status: ('A' for Active; 'I' for Inactive)
REMARK    1  A    between atoms: C_1  and  C_2
REMARK    2  A    between atoms: C_2  and  O_4
REMARK    3  A    between atoms: O_4  and  N_5
REMARK    4  A    between atoms: C_7  and  C_8
REMARK    5  A    between atoms: C_9  and  O_10
REMARK                            x       y       z     vdW  Elec       q    Type
REMARK                         _______ _______ _______ _____ _____    ______ ____
ROOT
ATOM      1  N   UNL     1       2.317   4.220  17.925  0.00  0.00    +0.000 NA
ATOM      2  C   UNL     1       3.314   4.974  17.588  0.00  0.00    +0.000 C 
ATOM      3  C   UNL     1       3.498   6.364  18.167  0.00  0.00    +0.000 C 
ATOM      4  N   UNL     1       4.596   6.917  17.723  0.00  0.00    +0.000 NA
ATOM      5  C   UNL     1       5.201   5.964  16.886  0.00  0.00    +0.000 A 
ATOM      6  C   UNL     1       6.442   6.094  16.290  0.00  0.00    +0.000 A 
ATOM      7  C   UNL     1       6.923   5.034  15.517  0.00  0.00    +0.000 A 
ATOM      8  C   UNL     1       6.149   3.876  15.323  0.00  0.00    +0.000 A 
ATOM      9  C   UNL     1       4.894   3.747  15.923  0.00  0.00    +0.000 A 
ATOM     10  C   UNL     1       4.463   4.790  16.718  0.00  0.00    +0.000 A 
ENDROOT
BRANCH   3  11
ATOM     11  C   UNL     1       2.632   7.038  19.102  0.00  0.00    +0.000 A 
ATOM     12  C   UNL     1       2.235   6.555  20.338  0.00  0.00    +0.000 A 
ATOM     13  N   UNL     1       1.439   7.495  20.927  0.00  0.00    +0.000 N 
ATOM     14  C   UNL     1       1.288   8.587  20.109  0.00  0.00    +0.000 A 
ATOM     15  C   UNL     1       0.556   9.764  20.300  0.00  0.00    +0.000 A 
ATOM     16  C   UNL     1       0.579  10.712  19.274  0.00  0.00    +0.000 A 
ATOM     17  C   UNL     1       1.308  10.491  18.108  0.00  0.00    +0.000 A 
ATOM     18  C   UNL     1       2.038   9.311  17.938  0.00  0.00    +0.000 A 
ATOM     19  C   UNL     1       2.033   8.334  18.957  0.00  0.00    +0.000 A 
ATOM     20  H   UNL     1       1.013   7.378  21.834  0.00  0.00    +0.000 HD
BRANCH  12  21
ATOM     21  O   UNL     1       2.484   5.435  21.006  0.00  0.00    +0.000 OA
ATOM     22  H   UNL     1       3.349   5.079  20.710  0.00  0.00    +0.000 HD
ENDBRANCH  12  21
ENDBRANCH   3  11
BRANCH   1  23
ATOM     23  O   UNL     1       2.336   2.976  17.284  0.00  0.00    +0.000 OA
BRANCH  23  25
ATOM     24  C   UNL     1       1.596   1.972  19.274  0.00  0.00    +0.000 C 
ATOM     25  C   UNL     1       2.638   1.979  18.192  0.00  0.00    +0.000 C 
ATOM     26  O   UNL     1       3.594   1.221  18.159  0.00  0.00    +0.000 OA
ENDBRANCH  23  25
ENDBRANCH   1  23
TORSDOF 4
ENDMDL
MODEL 3
REMARK VINA RESULT:      -8.5      1.522      1.748
REMARK  Name = 
REMARK  5 active torsions:
REMARK  status: ('A' for Active; 'I' for Inactive)
REMARK    1  A    between atoms: C_1  and  C_2
REMARK    2  A    between atoms: C_2  and  O_4
REMARK    3  A    between atoms: O_4  and  N_5
REMARK    4  A    between atoms: C_7  and  C_8
REMARK    5  A    between atoms: C_9  and  O_10
REMARK                            x       y       z     vdW  Elec       q    Type
REMARK                         _______ _______ _______ _____ _____    ______ ____
ROOT
ATOM      1  N   UNL     1       3.202   5.977  17.888  0.00  0.00    +0.000 NA
ATOM      2  C   UNL     1       3.428   4.912  18.589  0.00  0.00    +0.000 C 
ATOM      3  C   UNL     1       4.741   4.158  18.498  0.00  0.00    +0.000 C 
ATOM      4  N   UNL     1       4.764   3.150  19.330  0.00  0.00    +0.000 NA
ATOM      5  C   UNL     1       3.539   3.186  20.018  0.00  0.00    +0.000 A 
ATOM      6  C   UNL     1       3.188   2.362  21.071  0.00  0.00    +0.000 A 
ATOM      7  C   UNL     1       1.944   2.554  21.680  0.00  0.00    +0.000 A 
ATOM      8  C   UNL     1       1.058   3.539  21.210  0.00  0.00    +0.000 A 
ATOM      9  C   UNL     1       1.413   4.370  20.145  0.00  0.00    +0.000 A 
ATOM     10  C   UNL     1       2.666   4.189  19.592  0.00  0.00    +0.000 A 
ENDROOT
BRANCH   3  11
ATOM     11  C   UNL     1       5.864   4.468  17.649  0.00  0.00    +0.000 A 
ATOM     12  C   UNL     1       7.119   4.875  18.073  0.00  0.00    +0.000 A 
ATOM     13  N   UNL     1       7.907   5.044  16.971  0.00  0.00    +0.000 N 
ATOM     14  C   UNL     1       7.205   4.770  15.824  0.00  0.00    +0.000 A 
ATOM     15  C   UNL     1       7.607   4.825  14.485  0.00  0.00    +0.000 A 
ATOM     16  C   UNL     1       6.660   4.495  13.512  0.00  0.00    +0.000 A 
ATOM     17  C   UNL     1       5.366   4.123  13.867  0.00  0.00    +0.000 A 
ATOM     18  C   UNL     1       4.984   4.067  15.212  0.00  0.00    +0.000 A 
ATOM     19  C   UNL     1       5.920   4.395  16.216  0.00  0.00    +0.000 A 
ATOM     20  H   UNL     1       8.868   5.348  17.013  0.00  0.00    +0.000 HD
BRANCH  12  21
ATOM     21  O   UNL     1       7.653   5.096  19.268  0.00  0.00    +0.000 OA
ATOM     22  H   UNL     1       7.512   6.038  19.505  0.00  0.00    +0.000 HD
ENDBRANCH  12  21
ENDBRANCH   3  11
BRANCH   1  23
ATOM     23  O   UNL     1       1.936   6.524  18.126  0.00  0.00    +0.000 OA
BRANCH  23  25
ATOM     24  C   UNL     1       2.193   8.834  17.793  0.00  0.00    +0.000 C 
ATOM     25  C   UNL     1       2.056   7.725  18.797  0.00  0.00    +0.000 C 
ATOM     26  O   UNL     1       2.069   7.893  20.006  0.00  0.00    +0.000 OA
ENDBRANCH  23  25
ENDBRANCH   1  23
TORSDOF 4
ENDMDL
MODEL 4
REMARK VINA RESULT:      -8.3      2.035      6.192
REMARK  Name = 
REMARK  5 active torsions:
REMARK  status: ('A' for Active; 'I' for Inactive)
REMARK    1  A    between atoms: C_1  and  C_2
REMARK    2  A    between atoms: C_2  and  O_4
REMARK    3  A    between atoms: O_4  and  N_5
REMARK    4  A    between atoms: C_7  and  C_8
REMARK    5  A    between atoms: C_9  and  O_10
REMARK                            x       y       z     vdW  Elec       q    Type
REMARK                         _______ _______ _______ _____ _____    ______ ____
ROOT
ATOM      1  N   UNL     1       6.452   6.089  16.966  0.00  0.00    +0.000 NA
ATOM      2  C   UNL     1       6.156   5.221  16.052  0.00  0.00    +0.000 C 
ATOM      3  C   UNL     1       5.030   4.221  16.233  0.00  0.00    +0.000 C 
ATOM      4  N   UNL     1       4.880   3.481  15.166  0.00  0.00    +0.000 NA
ATOM      5  C   UNL     1       5.831   3.941  14.238  0.00  0.00    +0.000 A 
ATOM      6  C   UNL     1       5.947   3.508  12.931  0.00  0.00    +0.000 A 
ATOM      7  C   UNL     1       6.920   4.098  12.119  0.00  0.00    +0.000 A 
ATOM      8  C   UNL     1       7.782   5.085  12.630  0.00  0.00    +0.000 A 
ATOM      9  C   UNL     1       7.664   5.520  13.953  0.00  0.00    +0.000 A 
ATOM     10  C   UNL     1       6.665   4.953  14.719  0.00  0.00    +0.000 A 
ENDROOT
BRANCH   3  11
ATOM     11  C   UNL     1       4.183   4.065  17.390  0.00  0.00    +0.000 A 
ATOM     12  C   UNL     1       3.889   2.872  18.030  0.00  0.00    +0.000 A 
ATOM     13  N   UNL     1       3.075   3.147  19.092  0.00  0.00    +0.000 N 
ATOM     14  C   UNL     1       2.812   4.493  19.168  0.00  0.00    +0.000 A 
ATOM     15  C   UNL     1       2.026   5.209  20.076  0.00  0.00    +0.000 A 
ATOM     16  C   UNL     1       1.932   6.592  19.899  0.00  0.00    +0.000 A 
ATOM     17  C   UNL     1       2.602   7.230  18.858  0.00  0.00    +0.000 A 
ATOM     18  C   UNL     1       3.389   6.497  17.963  0.00  0.00    +0.000 A 
ATOM     19  C   UNL     1       3.502   5.099  18.117  0.00  0.00    +0.000 A 
ATOM     20  H   UNL     1       2.712   2.442  19.715  0.00  0.00    +0.000 HD
BRANCH  12  21
ATOM     21  O   UNL     1       4.242   1.610  17.821  0.00  0.00    +0.000 OA
ATOM     22  H   UNL     1       3.961   1.074  18.593  0.00  0.00    +0.000 HD
ENDBRANCH  12  21
ENDBRANCH   3  11
BRANCH   1  23
ATOM     23  O   UNL     1       7.515   6.922  16.599  0.00  0.00    +0.000 OA
BRANCH  23  25
ATOM     24  C   UNL     1       8.103   6.769  18.867  0.00  0.00    +0.000 C 
ATOM     25  C   UNL     1       7.924   7.675  17.682  0.00  0.00    +0.000 C 
ATOM     26  O   UNL     1       8.104   8.882  17.711  0.00  0.00    +0.000 OA
ENDBRANCH  23  25
ENDBRANCH   1  23
TORSDOF 4
ENDMDL
MODEL 5
REMARK VINA RESULT:      -8.0      1.562      6.119
REMARK  Name = 
REMARK  5 active torsions:
REMARK  status: ('A' for Active; 'I' for Inactive)
REMARK    1  A    between atoms: C_1  and  C_2
REMARK    2  A    between atoms: C_2  and  O_4
REMARK    3  A    between atoms: O_4  and  N_5
REMARK    4  A    between atoms: C_7  and  C_8
REMARK    5  A    between atoms: C_9  and  O_10
REMARK                            x       y       z     vdW  Elec       q    Type
REMARK                         _______ _______ _______ _____ _____    ______ ____
ROOT
ATOM      1  N   UNL     1       6.104   6.859  17.306  0.00  0.00    +0.000 NA
ATOM      2  C   UNL     1       5.721   5.881  16.549  0.00  0.00    +0.000 C 
ATOM      3  C   UNL     1       4.432   5.125  16.808  0.00  0.00    +0.000 C 
ATOM      4  N   UNL     1       4.224   4.218  15.891  0.00  0.00    +0.000 NA
ATOM      5  C   UNL     1       5.295   4.328  14.987  0.00  0.00    +0.000 A 
ATOM      6  C   UNL     1       5.416   3.627  13.801  0.00  0.00    +0.000 A 
ATOM      7  C   UNL     1       6.524   3.883  12.988  0.00  0.00    +0.000 A 
ATOM      8  C   UNL     1       7.508   4.806  13.383  0.00  0.00    +0.000 A 
ATOM      9  C   UNL     1       7.385   5.512  14.582  0.00  0.00    +0.000 A 
ATOM     10  C   UNL     1       6.258   5.274  15.344  0.00  0.00    +0.000 A 
ENDROOT
BRANCH   3  11
ATOM     11  C   UNL     1       3.501   5.340  17.888  0.00  0.00    +0.000 A 
ATOM     12  C   UNL     1       3.049   6.569  18.342  0.00  0.00    +0.000 A 
ATOM     13  N   UNL     1       2.164   6.349  19.358  0.00  0.00    +0.000 N 
ATOM     14  C   UNL     1       2.024   5.004  19.599  0.00  0.00    +0.000 A 
ATOM     15  C   UNL     1       1.242   4.333  20.546  0.00  0.00    +0.000 A 
ATOM     16  C   UNL     1       1.308   2.938  20.565  0.00  0.00    +0.000 A 
ATOM     17  C   UNL     1       2.121   2.244  19.672  0.00  0.00    +0.000 A 
ATOM     18  C   UNL     1       2.890   2.933  18.728  0.00  0.00    +0.000 A 
ATOM     19  C   UNL     1       2.844   4.343  18.685  0.00  0.00    +0.000 A 
ATOM     20  H   UNL     1       1.699   7.087  19.865  0.00  0.00    +0.000 HD
BRANCH  12  21
ATOM     21  O   UNL     1       3.292   7.823  17.982  0.00  0.00    +0.000 OA
ATOM     22  H   UNL     1       3.577   7.830  17.043  0.00  0.00    +0.000 HD
ENDBRANCH  12  21
ENDBRANCH   3  11
BRANCH   1  23
ATOM     23  O   UNL     1       7.314   7.426  16.889  0.00  0.00    +0.000 OA
BRANCH  23  25
ATOM     24  C   UNL     1       8.229   9.339  17.896  0.00  0.00    +0.000 C 
ATOM     25  C   UNL     1       8.041   7.851  17.984  0.00  0.00    +0.000 C 
ATOM     26  O   UNL     1       8.486   7.158  18.884  0.00  0.00    +0.000 OA
ENDBRANCH  23  25
ENDBRANCH   1  23
TORSDOF 4
ENDMDL
MODEL 6
REMARK VINA RESULT:      -7.8      2.151      6.263
REMARK  Name = 
REMARK  5 active torsions:
REMARK  status: ('A' for Active; 'I' for Inactive)
REMARK    1  A    between atoms: C_1  and  C_2
REMARK    2  A    between atoms: C_2  and  O_4
REMARK    3  A    between atoms: O_4  and  N_5
REMARK    4  A    between atoms: C_7  and  C_8
REMARK    5  A    between atoms: C_9  and  O_10
REMARK                            x       y       z     vdW  Elec       q    Type
REMARK                         _______ _______ _______ _____ _____    ______ ____
ROOT
ATOM      1  N   UNL     1       6.061   7.261  17.579  0.00  0.00    +0.000 NA
ATOM      2  C   UNL     1       5.629   6.200  16.977  0.00  0.00    +0.000 C 
ATOM      3  C   UNL     1       4.365   5.487  17.420  0.00  0.00    +0.000 C 
ATOM      4  N   UNL     1       4.096   4.475  16.638  0.00  0.00    +0.000 NA
ATOM      5  C   UNL     1       5.099   4.468  15.652  0.00  0.00    +0.000 A 
ATOM      6  C   UNL     1       5.138   3.627  14.556  0.00  0.00    +0.000 A 
ATOM      7  C   UNL     1       6.183   3.776  13.640  0.00  0.00    +0.000 A 
ATOM      8  C   UNL     1       7.189   4.737  13.847  0.00  0.00    +0.000 A 
ATOM      9  C   UNL     1       7.150   5.585  14.957  0.00  0.00    +0.000 A 
ATOM     10  C   UNL     1       6.081   5.447  15.821  0.00  0.00    +0.000 A 
ENDROOT
BRANCH   3  11
ATOM     11  C   UNL     1       3.513   5.837  18.529  0.00  0.00    +0.000 A 
ATOM     12  C   UNL     1       3.259   5.051  19.641  0.00  0.00    +0.000 A 
ATOM     13  N   UNL     1       2.425   5.743  20.471  0.00  0.00    +0.000 N 
ATOM     14  C   UNL     1       2.110   6.966  19.935  0.00  0.00    +0.000 A 
ATOM     15  C   UNL     1       1.287   7.984  20.429  0.00  0.00    +0.000 A 
ATOM     16  C   UNL     1       1.142   9.134  19.649  0.00  0.00    +0.000 A 
ATOM     17  C   UNL     1       1.796   9.259  18.426  0.00  0.00    +0.000 A 
ATOM     18  C   UNL     1       2.620   8.233  17.951  0.00  0.00    +0.000 A 
ATOM     19  C   UNL     1       2.785   7.060  18.718  0.00  0.00    +0.000 A 
ATOM     20  H   UNL     1       2.083   5.381  21.349  0.00  0.00    +0.000 HD
BRANCH  12  21
ATOM     21  O   UNL     1       3.664   3.845  20.020  0.00  0.00    +0.000 OA
ATOM     22  H   UNL     1       4.400   3.563  19.437  0.00  0.00    +0.000 HD
ENDBRANCH  12  21
ENDBRANCH   3  11
BRANCH   1  23
ATOM     23  O   UNL     1       7.236   7.767  17.011  0.00  0.00    +0.000 OA
BRANCH  23  25
ATOM     24  C   UNL     1       8.396   9.619  17.870  0.00  0.00    +0.000 C 
ATOM     25  C   UNL     1       8.118   8.149  18.003  0.00  0.00    +0.000 C 
ATOM     26  O   UNL     1       8.620   7.433  18.854  0.00  0.00    +0.000 OA
ENDBRANCH  23  25
ENDBRANCH   1  23
TORSDOF 4
ENDMDL
MODEL 7
REMARK VINA RESULT:      -7.8      2.315      6.877
REMARK  Name = 
REMARK  5 active torsions:
REMARK  status: ('A' for Active; 'I' for Inactive)
REMARK    1  A    between atoms: C_1  and  C_2
REMARK    2  A    between atoms: C_2  and  O_4
REMARK    3  A    between atoms: O_4  and  N_5
REMARK    4  A    between atoms: C_7  and  C_8
REMARK    5  A    between atoms: C_9  and  O_10
REMARK                            x       y       z     vdW  Elec       q    Type
REMARK                         _______ _______ _______ _____ _____    ______ ____
ROOT
ATOM      1  N   UNL     1       4.201   6.744  18.174  0.00  0.00    +0.000 NA
ATOM      2  C   UNL     1       3.518   6.110  19.072  0.00  0.00    +0.000 C 
ATOM      3  C   UNL     1       2.322   6.739  19.761  0.00  0.00    +0.000 C 
ATOM      4  N   UNL     1       1.759   5.900  20.589  0.00  0.00    +0.000 NA
ATOM      5  C   UNL     1       2.489   4.703  20.486  0.00  0.00    +0.000 A 
ATOM      6  C   UNL     1       2.168   3.513  21.111  0.00  0.00    +0.000 A 
ATOM      7  C   UNL     1       2.975   2.397  20.871  0.00  0.00    +0.000 A 
ATOM      8  C   UNL     1       4.105   2.492  20.041  0.00  0.00    +0.000 A 
ATOM      9  C   UNL     1       4.430   3.696  19.411  0.00  0.00    +0.000 A 
ATOM     10  C   UNL     1       3.590   4.771  19.629  0.00  0.00    +0.000 A 
ENDROOT
BRANCH   3  11
ATOM     11  C   UNL     1       1.805   8.071  19.561  0.00  0.00    +0.000 A 
ATOM     12  C   UNL     1       1.849   8.793  18.380  0.00  0.00    +0.000 A 
ATOM     13  N   UNL     1       1.237   9.995  18.592  0.00  0.00    +0.000 N 
ATOM     14  C   UNL     1       0.797  10.095  19.889  0.00  0.00    +0.000 A 
ATOM     15  C   UNL     1       0.137  11.143  20.540  0.00  0.00    +0.000 A 
ATOM     16  C   UNL     1      -0.185  10.964  21.888  0.00  0.00    +0.000 A 
ATOM     17  C   UNL     1       0.139   9.785  22.554  0.00  0.00    +0.000 A 
ATOM     18  C   UNL     1       0.793   8.746  21.884  0.00  0.00    +0.000 A 
ATOM     19  C   UNL     1       1.131   8.898  20.522  0.00  0.00    +0.000 A 
ATOM     20  H   UNL     1       1.146  10.709  17.885  0.00  0.00    +0.000 HD
BRANCH  12  21
ATOM     21  O   UNL     1       2.327   8.537  17.169  0.00  0.00    +0.000 OA
ATOM     22  H   UNL     1       3.284   8.754  17.157  0.00  0.00    +0.000 HD
ENDBRANCH  12  21
ENDBRANCH   3  11
BRANCH   1  23
ATOM     23  O   UNL     1       5.256   5.984  17.658  0.00  0.00    +0.000 OA
BRANCH  23  25
ATOM     24  C   UNL     1       5.153   4.483  15.856  0.00  0.00    +0.000 C 
ATOM     25  C   UNL     1       5.169   5.923  16.281  0.00  0.00    +0.000 C 
ATOM     26  O   UNL     1       5.127   6.865  15.506  0.00  0.00    +0.000 OA
ENDBRANCH  23  25
ENDBRANCH   1  23
TORSDOF 4
ENDMDL
MODEL 8
REMARK VINA RESULT:      -7.8      2.539      6.821
REMARK  Name = 
REMARK  5 active torsions:
REMARK  status: ('A' for Active; 'I' for Inactive)
REMARK    1  A    between atoms: C_1  and  C_2
REMARK    2  A    between atoms: C_2  and  O_4
REMARK    3  A    between atoms: O_4  and  N_5
REMARK    4  A    between atoms: C_7  and  C_8
REMARK    5  A    between atoms: C_9  and  O_10
REMARK                            x       y       z     vdW  Elec       q    Type
REMARK                         _______ _______ _______ _____ _____    ______ ____
ROOT
ATOM      1  N   UNL     1       2.782   4.242  19.134  0.00  0.00    +0.000 NA
ATOM      2  C   UNL     1       3.359   5.035  18.288  0.00  0.00    +0.000 C 
ATOM      3  C   UNL     1       3.178   6.540  18.349  0.00  0.00    +0.000 C 
ATOM      4  N   UNL     1       3.892   7.138  17.433  0.00  0.00    +0.000 NA
ATOM      5  C   UNL     1       4.586   6.121  16.756  0.00  0.00    +0.000 A 
ATOM      6  C   UNL     1       5.543   6.319  15.778  0.00  0.00    +0.000 A 
ATOM      7  C   UNL     1       6.176   5.199  15.230  0.00  0.00    +0.000 A 
ATOM      8  C   UNL     1       5.823   3.901  15.640  0.00  0.00    +0.000 A 
ATOM      9  C   UNL     1       4.855   3.702  16.627  0.00  0.00    +0.000 A 
ATOM     10  C   UNL     1       4.279   4.827  17.184  0.00  0.00    +0.000 A 
ENDROOT
BRANCH   3  11
ATOM     11  C   UNL     1       2.362   7.280  19.280  0.00  0.00    +0.000 A 
ATOM     12  C   UNL     1       2.012   6.875  20.558  0.00  0.00    +0.000 A 
ATOM     13  N   UNL     1       1.255   7.860  21.125  0.00  0.00    +0.000 N 
ATOM     14  C   UNL     1       1.084   8.906  20.252  0.00  0.00    +0.000 A 
ATOM     15  C   UNL     1       0.378  10.104  20.406  0.00  0.00    +0.000 A 
ATOM     16  C   UNL     1       0.370  10.992  19.327  0.00  0.00    +0.000 A 
ATOM     17  C   UNL     1       1.044  10.693  18.146  0.00  0.00    +0.000 A 
ATOM     18  C   UNL     1       1.751   9.492  18.013  0.00  0.00    +0.000 A 
ATOM     19  C   UNL     1       1.776   8.576  19.086  0.00  0.00    +0.000 A 
ATOM     20  H   UNL     1       0.867   7.801  22.054  0.00  0.00    +0.000 HD
BRANCH  12  21
ATOM     21  O   UNL     1       2.275   5.792  21.278  0.00  0.00    +0.000 OA
ATOM     22  H   UNL     1       1.635   5.746  22.021  0.00  0.00    +0.000 HD
ENDBRANCH  12  21
ENDBRANCH   3  11
BRANCH   1  23
ATOM     23  O   UNL     1       3.085   2.895  18.909  0.00  0.00    +0.000 OA
BRANCH  23  25
ATOM     24  C   UNL     1       2.814   2.478  21.204  0.00  0.00    +0.000 C 
ATOM     25  C   UNL     1       3.722   2.361  20.012  0.00  0.00    +0.000 C 
ATOM     26  O   UNL     1       4.842   1.879  20.052  0.00  0.00    +0.000 OA
ENDBRANCH  23  25
ENDBRANCH   1  23
TORSDOF 4
ENDMDL
MODEL 9
REMARK VINA RESULT:      -7.7      2.418      6.490
REMARK  Name = 
REMARK  5 active torsions:
REMARK  status: ('A' for Active; 'I' for Inactive)
REMARK    1  A    between atoms: C_1  and  C_2
REMARK    2  A    between atoms: C_2  and  O_4
REMARK    3  A    between atoms: O_4  and  N_5
REMARK    4  A    between atoms: C_7  and  C_8
REMARK    5  A    between atoms: C_9  and  O_10
REMARK                            x       y       z     vdW  Elec       q    Type
REMARK                         _______ _______ _______ _____ _____    ______ ____
ROOT
ATOM      1  N   UNL     1       6.526   4.360  18.395  0.00  0.00    +0.000 NA
ATOM      2  C   UNL     1       6.004   4.139  17.231  0.00  0.00    +0.000 C 
ATOM      3  C   UNL     1       4.596   3.596  17.075  0.00  0.00    +0.000 C 
ATOM      4  N   UNL     1       4.264   3.502  15.815  0.00  0.00    +0.000 NA
ATOM      5  C   UNL     1       5.366   3.982  15.085  0.00  0.00    +0.000 A 
ATOM      6  C   UNL     1       5.402   4.162  13.715  0.00  0.00    +0.000 A 
ATOM      7  C   UNL     1       6.562   4.692  13.144  0.00  0.00    +0.000 A 
ATOM      8  C   UNL     1       7.678   5.004  13.941  0.00  0.00    +0.000 A 
ATOM      9  C   UNL     1       7.641   4.820  15.326  0.00  0.00    +0.000 A 
ATOM     10  C   UNL     1       6.466   4.338  15.868  0.00  0.00    +0.000 A 
ENDROOT
BRANCH   3  11
ATOM     11  C   UNL     1       3.683   3.235  18.131  0.00  0.00    +0.000 A 
ATOM     12  C   UNL     1       3.389   1.947  18.548  0.00  0.00    +0.000 A 
ATOM     13  N   UNL     1       2.500   2.026  19.581  0.00  0.00    +0.000 N 
ATOM     14  C   UNL     1       2.188   3.334  19.855  0.00  0.00    +0.000 A 
ATOM     15  C   UNL     1       1.320   3.874  20.812  0.00  0.00    +0.000 A 
ATOM     16  C   UNL     1       1.192   5.265  20.854  0.00  0.00    +0.000 A 
ATOM     17  C   UNL     1       1.904   6.079  19.978  0.00  0.00    +0.000 A 
ATOM     18  C   UNL     1       2.772   5.521  19.033  0.00  0.00    +0.000 A 
ATOM     19  C   UNL     1       2.922   4.120  18.966  0.00  0.00    +0.000 A 
ATOM     20  H   UNL     1       2.122   1.220  20.056  0.00  0.00    +0.000 HD
BRANCH  12  21
ATOM     21  O   UNL     1       3.798   0.744  18.162  0.00  0.00    +0.000 OA
ATOM     22  H   UNL     1       3.330   0.068  18.697  0.00  0.00    +0.000 HD
ENDBRANCH  12  21
ENDBRANCH   3  11
BRANCH   1  23
ATOM     23  O   UNL     1       7.829   4.867  18.318  0.00  0.00    +0.000 OA
BRANCH  23  25
ATOM     24  C   UNL     1       8.181   7.164  18.652  0.00  0.00    +0.000 C 
ATOM     25  C   UNL     1       8.027   5.817  19.300  0.00  0.00    +0.000 C 
ATOM     26  O   UNL     1       8.090   5.627  20.504  0.00  0.00    +0.000 OA
ENDBRANCH  23  25
ENDBRANCH   1  23
TORSDOF 4
ENDMDL
