MODEL 1
REMARK VINA RESULT:      -5.1      0.000      0.000
REMARK  Name = 
REMARK  6 active torsions:
REMARK  status: ('A' for Active; 'I' for Inactive)
REMARK    1  A    between atoms: C_1  and  C_2
REMARK    2  A    between atoms: C_7  and  O_8
REMARK    3  A    between atoms: O_8  and  C_9
REMARK    4  A    between atoms: C_9  and  C_10
REMARK    5  A    between atoms: C_10  and  C_11
REMARK    6  A    between atoms: C_11  and  O_12
REMARK                            x       y       z     vdW  Elec       q    Type
REMARK                         _______ _______ _______ _____ _____    ______ ____
ROOT
ATOM      1  C   UNL     1       3.330   1.795  18.005  0.00  0.00    +0.000 C 
ATOM      2  C   UNL     1       2.634   2.809  18.872  0.00  0.00    +0.000 A 
ATOM      3  C   UNL     1       1.831   2.335  19.927  0.00  0.00    +0.000 A 
ATOM      4  C   UNL     1       1.157   3.212  20.772  0.00  0.00    +0.000 A 
ATOM      5  C   UNL     1       1.274   4.581  20.573  0.00  0.00    +0.000 A 
ATOM      6  C   UNL     1       2.058   5.065  19.528  0.00  0.00    +0.000 A 
ATOM      7  C   UNL     1       2.749   4.196  18.669  0.00  0.00    +0.000 A 
ENDROOT
BRANCH   7   8
ATOM      8  O   UNL     1       3.545   4.639  17.625  0.00  0.00    +0.000 OA
BRANCH   8   9
ATOM      9  C   UNL     1       4.043   5.977  17.778  0.00  0.00    +0.000 C 
BRANCH   9  10
ATOM     10  C   UNL     1       5.562   6.048  17.780  0.00  0.00    +0.000 C 
BRANCH  10  11
ATOM     11  C   UNL     1       6.177   5.311  18.960  0.00  0.00    +0.000 C 
BRANCH  11  12
ATOM     12  O   UNL     1       6.262   3.922  18.658  0.00  0.00    +0.000 OA
ATOM     13  H   UNL     1       6.442   3.841  17.706  0.00  0.00    +0.000 HD
ENDBRANCH  11  12
ENDBRANCH  10  11
ENDBRANCH   9  10
ENDBRANCH   8   9
ENDBRANCH   7   8
TORSDOF 5
ENDMDL
MODEL 2
REMARK VINA RESULT:      -5.0      2.431      3.133
REMARK  Name = 
REMARK  6 active torsions:
REMARK  status: ('A' for Active; 'I' for Inactive)
REMARK    1  A    between atoms: C_1  and  C_2
REMARK    2  A    between atoms: C_7  and  O_8
REMARK    3  A    between atoms: O_8  and  C_9
REMARK    4  A    between atoms: C_9  and  C_10
REMARK    5  A    between atoms: C_10  and  C_11
REMARK    6  A    between atoms: C_11  and  O_12
REMARK                            x       y       z     vdW  Elec       q    Type
REMARK                         _______ _______ _______ _____ _____    ______ ____
ROOT
ATOM      1  C   UNL     1       5.489   3.828  15.873  0.00  0.00    +0.000 C 
ATOM      2  C   UNL     1       4.554   4.703  16.664  0.00  0.00    +0.000 A 
ATOM      3  C   UNL     1       3.364   4.128  17.150  0.00  0.00    +0.000 A 
ATOM      4  C   UNL     1       2.452   4.875  17.891  0.00  0.00    +0.000 A 
ATOM      5  C   UNL     1       2.715   6.211  18.155  0.00  0.00    +0.000 A 
ATOM      6  C   UNL     1       3.884   6.796  17.674  0.00  0.00    +0.000 A 
ATOM      7  C   UNL     1       4.819   6.059  16.931  0.00  0.00    +0.000 A 
ENDROOT
BRANCH   7   8
ATOM      8  O   UNL     1       5.996   6.603  16.443  0.00  0.00    +0.000 OA
BRANCH   8   9
ATOM      9  C   UNL     1       6.885   7.108  17.450  0.00  0.00    +0.000 C 
BRANCH   9  10
ATOM     10  C   UNL     1       7.671   6.012  18.153  0.00  0.00    +0.000 C 
BRANCH  10  11
ATOM     11  C   UNL     1       7.024   5.579  19.460  0.00  0.00    +0.000 C 
BRANCH  11  12
ATOM     12  O   UNL     1       8.023   5.475  20.470  0.00  0.00    +0.000 OA
ATOM     13  H   UNL     1       8.322   4.550  20.490  0.00  0.00    +0.000 HD
ENDBRANCH  11  12
ENDBRANCH  10  11
ENDBRANCH   9  10
ENDBRANCH   8   9
ENDBRANCH   7   8
TORSDOF 5
ENDMDL
MODEL 3
REMARK VINA RESULT:      -5.0      1.432      1.573
REMARK  Name = 
REMARK  6 active torsions:
REMARK  status: ('A' for Active; 'I' for Inactive)
REMARK    1  A    between atoms: C_1  and  C_2
REMARK    2  A    between atoms: C_7  and  O_8
REMARK    3  A    between atoms: O_8  and  C_9
REMARK    4  A    between atoms: C_9  and  C_10
REMARK    5  A    between atoms: C_10  and  C_11
REMARK    6  A    between atoms: C_11  and  O_12
REMARK                            x       y       z     vdW  Elec       q    Type
REMARK                         _______ _______ _______ _____ _____    ______ ____
ROOT
ATOM      1  C   UNL     1       3.219   3.640  16.949  0.00  0.00    +0.000 C 
ATOM      2  C   UNL     1       2.590   3.881  18.294  0.00  0.00    +0.000 A 
ATOM      3  C   UNL     1       1.462   3.114  18.643  0.00  0.00    +0.000 A 
ATOM      4  C   UNL     1       0.827   3.280  19.871  0.00  0.00    +0.000 A 
ATOM      5  C   UNL     1       1.310   4.220  20.770  0.00  0.00    +0.000 A 
ATOM      6  C   UNL     1       2.420   4.993  20.436  0.00  0.00    +0.000 A 
ATOM      7  C   UNL     1       3.077   4.836  19.206  0.00  0.00    +0.000 A 
ENDROOT
BRANCH   7   8
ATOM      8  O   UNL     1       4.188   5.579  18.841  0.00  0.00    +0.000 OA
BRANCH   8   9
ATOM      9  C   UNL     1       5.447   4.973  19.167  0.00  0.00    +0.000 C 
BRANCH   9  10
ATOM     10  C   UNL     1       6.621   5.619  18.449  0.00  0.00    +0.000 C 
BRANCH  10  11
ATOM     11  C   UNL     1       7.127   4.776  17.287  0.00  0.00    +0.000 C 
BRANCH  11  12
ATOM     12  O   UNL     1       8.278   4.046  17.699  0.00  0.00    +0.000 OA
ATOM     13  H   UNL     1       8.400   3.315  17.070  0.00  0.00    +0.000 HD
ENDBRANCH  11  12
ENDBRANCH  10  11
ENDBRANCH   9  10
ENDBRANCH   8   9
ENDBRANCH   7   8
TORSDOF 5
ENDMDL
MODEL 4
REMARK VINA RESULT:      -4.9      1.829      2.433
REMARK  Name = 
REMARK  6 active torsions:
REMARK  status: ('A' for Active; 'I' for Inactive)
REMARK    1  A    between atoms: C_1  and  C_2
REMARK    2  A    between atoms: C_7  and  O_8
REMARK    3  A    between atoms: O_8  and  C_9
REMARK    4  A    between atoms: C_9  and  C_10
REMARK    5  A    between atoms: C_10  and  C_11
REMARK    6  A    between atoms: C_11  and  O_12
REMARK                            x       y       z     vdW  Elec       q    Type
REMARK                         _______ _______ _______ _____ _____    ______ ____
ROOT
ATOM      1  C   UNL     1       4.560   4.001  16.238  0.00  0.00    +0.000 C 
ATOM      2  C   UNL     1       3.649   4.319  17.392  0.00  0.00    +0.000 A 
ATOM      3  C   UNL     1       2.398   3.674  17.443  0.00  0.00    +0.000 A 
ATOM      4  C   UNL     1       1.503   3.917  18.481  0.00  0.00    +0.000 A 
ATOM      5  C   UNL     1       1.844   4.812  19.485  0.00  0.00    +0.000 A 
ATOM      6  C   UNL     1       3.074   5.464  19.444  0.00  0.00    +0.000 A 
ATOM      7  C   UNL     1       3.993   5.229  18.409  0.00  0.00    +0.000 A 
ENDROOT
BRANCH   7   8
ATOM      8  O   UNL     1       5.229   5.851  18.337  0.00  0.00    +0.000 OA
BRANCH   8   9
ATOM      9  C   UNL     1       6.231   5.291  19.198  0.00  0.00    +0.000 C 
BRANCH   9  10
ATOM     10  C   UNL     1       7.640   5.733  18.835  0.00  0.00    +0.000 C 
BRANCH  10  11
ATOM     11  C   UNL     1       7.651   6.960  17.936  0.00  0.00    +0.000 C 
BRANCH  11  12
ATOM     12  O   UNL     1       7.536   6.551  16.576  0.00  0.00    +0.000 OA
ATOM     13  H   UNL     1       7.795   7.307  16.022  0.00  0.00    +0.000 HD
ENDBRANCH  11  12
ENDBRANCH  10  11
ENDBRANCH   9  10
ENDBRANCH   8   9
ENDBRANCH   7   8
TORSDOF 5
ENDMDL
MODEL 5
REMARK VINA RESULT:      -4.9      1.413      1.627
REMARK  Name = 
REMARK  6 active torsions:
REMARK  status: ('A' for Active; 'I' for Inactive)
REMARK    1  A    between atoms: C_1  and  C_2
REMARK    2  A    between atoms: C_7  and  O_8
REMARK    3  A    between atoms: O_8  and  C_9
REMARK    4  A    between atoms: C_9  and  C_10
REMARK    5  A    between atoms: C_10  and  C_11
REMARK    6  A    between atoms: C_11  and  O_12
REMARK                            x       y       z     vdW  Elec       q    Type
REMARK                         _______ _______ _______ _____ _____    ______ ____
ROOT
ATOM      1  C   UNL     1       2.668   3.423  17.062  0.00  0.00    +0.000 C 
ATOM      2  C   UNL     1       2.406   3.356  18.541  0.00  0.00    +0.000 A 
ATOM      3  C   UNL     1       1.075   3.183  18.969  0.00  0.00    +0.000 A 
ATOM      4  C   UNL     1       0.756   3.109  20.322  0.00  0.00    +0.000 A 
ATOM      5  C   UNL     1       1.763   3.212  21.270  0.00  0.00    +0.000 A 
ATOM      6  C   UNL     1       3.083   3.391  20.863  0.00  0.00    +0.000 A 
ATOM      7  C   UNL     1       3.426   3.461  19.504  0.00  0.00    +0.000 A 
ENDROOT
BRANCH   7   8
ATOM      8  O   UNL     1       4.728   3.631  19.060  0.00  0.00    +0.000 OA
BRANCH   8   9
ATOM      9  C   UNL     1       5.245   4.961  19.217  0.00  0.00    +0.000 C 
BRANCH   9  10
ATOM     10  C   UNL     1       5.611   5.616  17.895  0.00  0.00    +0.000 C 
BRANCH  10  11
ATOM     11  C   UNL     1       6.756   4.905  17.191  0.00  0.00    +0.000 C 
BRANCH  11  12
ATOM     12  O   UNL     1       7.532   4.193  18.151  0.00  0.00    +0.000 OA
ATOM     13  H   UNL     1       6.914   3.796  18.788  0.00  0.00    +0.000 HD
ENDBRANCH  11  12
ENDBRANCH  10  11
ENDBRANCH   9  10
ENDBRANCH   8   9
ENDBRANCH   7   8
TORSDOF 5
ENDMDL
MODEL 6
REMARK VINA RESULT:      -4.9      1.987      4.260
REMARK  Name = 
REMARK  6 active torsions:
REMARK  status: ('A' for Active; 'I' for Inactive)
REMARK    1  A    between atoms: C_1  and  C_2
REMARK    2  A    between atoms: C_7  and  O_8
REMARK    3  A    between atoms: O_8  and  C_9
REMARK    4  A    between atoms: C_9  and  C_10
REMARK    5  A    between atoms: C_10  and  C_11
REMARK    6  A    between atoms: C_11  and  O_12
REMARK                            x       y       z     vdW  Elec       q    Type
REMARK                         _______ _______ _______ _____ _____    ______ ____
ROOT
ATOM      1  C   UNL     1       3.237   2.840  17.470  0.00  0.00    +0.000 C 
ATOM      2  C   UNL     1       3.511   4.319  17.476  0.00  0.00    +0.000 A 
ATOM      3  C   UNL     1       4.582   4.795  16.695  0.00  0.00    +0.000 A 
ATOM      4  C   UNL     1       4.894   6.151  16.649  0.00  0.00    +0.000 A 
ATOM      5  C   UNL     1       4.142   7.053  17.387  0.00  0.00    +0.000 A 
ATOM      6  C   UNL     1       3.085   6.597  18.171  0.00  0.00    +0.000 A 
ATOM      7  C   UNL     1       2.750   5.235  18.226  0.00  0.00    +0.000 A 
ENDROOT
BRANCH   7   8
ATOM      8  O   UNL     1       1.701   4.743  18.987  0.00  0.00    +0.000 OA
BRANCH   8   9
ATOM      9  C   UNL     1       1.714   5.158  20.361  0.00  0.00    +0.000 C 
BRANCH   9  10
ATOM     10  C   UNL     1       2.354   4.134  21.284  0.00  0.00    +0.000 C 
BRANCH  10  11
ATOM     11  C   UNL     1       1.504   2.882  21.444  0.00  0.00    +0.000 C 
BRANCH  11  12
ATOM     12  O   UNL     1       0.420   2.926  20.521  0.00  0.00    +0.000 OA
ATOM     13  H   UNL     1       0.125   3.851  20.463  0.00  0.00    +0.000 HD
ENDBRANCH  11  12
ENDBRANCH  10  11
ENDBRANCH   9  10
ENDBRANCH   8   9
ENDBRANCH   7   8
TORSDOF 5
ENDMDL
MODEL 7
REMARK VINA RESULT:      -4.9      1.302      2.418
REMARK  Name = 
REMARK  6 active torsions:
REMARK  status: ('A' for Active; 'I' for Inactive)
REMARK    1  A    between atoms: C_1  and  C_2
REMARK    2  A    between atoms: C_7  and  O_8
REMARK    3  A    between atoms: O_8  and  C_9
REMARK    4  A    between atoms: C_9  and  C_10
REMARK    5  A    between atoms: C_10  and  C_11
REMARK    6  A    between atoms: C_11  and  O_12
REMARK                            x       y       z     vdW  Elec       q    Type
REMARK                         _______ _______ _______ _____ _____    ______ ____
ROOT
ATOM      1  C   UNL     1       1.925   5.163  21.022  0.00  0.00    +0.000 C 
ATOM      2  C   UNL     1       2.129   4.232  19.858  0.00  0.00    +0.000 A 
ATOM      3  C   UNL     1       1.199   3.191  19.675  0.00  0.00    +0.000 A 
ATOM      4  C   UNL     1       1.321   2.292  18.619  0.00  0.00    +0.000 A 
ATOM      5  C   UNL     1       2.379   2.419  17.730  0.00  0.00    +0.000 A 
ATOM      6  C   UNL     1       3.311   3.439  17.902  0.00  0.00    +0.000 A 
ATOM      7  C   UNL     1       3.202   4.359  18.957  0.00  0.00    +0.000 A 
ENDROOT
BRANCH   7   8
ATOM      8  O   UNL     1       4.104   5.392  19.157  0.00  0.00    +0.000 OA
BRANCH   8   9
ATOM      9  C   UNL     1       5.483   4.996  19.123  0.00  0.00    +0.000 C 
BRANCH   9  10
ATOM     10  C   UNL     1       6.291   5.750  18.077  0.00  0.00    +0.000 C 
BRANCH  10  11
ATOM     11  C   UNL     1       7.057   4.817  17.151  0.00  0.00    +0.000 C 
BRANCH  11  12
ATOM     12  O   UNL     1       7.988   4.055  17.913  0.00  0.00    +0.000 OA
ATOM     13  H   UNL     1       7.840   4.267  18.851  0.00  0.00    +0.000 HD
ENDBRANCH  11  12
ENDBRANCH  10  11
ENDBRANCH   9  10
ENDBRANCH   8   9
ENDBRANCH   7   8
TORSDOF 5
ENDMDL
MODEL 8
REMARK VINA RESULT:      -4.9      1.707      2.607
REMARK  Name = 
REMARK  6 active torsions:
REMARK  status: ('A' for Active; 'I' for Inactive)
REMARK    1  A    between atoms: C_1  and  C_2
REMARK    2  A    between atoms: C_7  and  O_8
REMARK    3  A    between atoms: O_8  and  C_9
REMARK    4  A    between atoms: C_9  and  C_10
REMARK    5  A    between atoms: C_10  and  C_11
REMARK    6  A    between atoms: C_11  and  O_12
REMARK                            x       y       z     vdW  Elec       q    Type
REMARK                         _______ _______ _______ _____ _____    ______ ____
ROOT
ATOM      1  C   UNL     1       2.686   6.608  19.161  0.00  0.00    +0.000 C 
ATOM      2  C   UNL     1       2.252   5.178  19.329  0.00  0.00    +0.000 A 
ATOM      3  C   UNL     1       1.587   4.825  20.519  0.00  0.00    +0.000 A 
ATOM      4  C   UNL     1       1.153   3.521  20.744  0.00  0.00    +0.000 A 
ATOM      5  C   UNL     1       1.381   2.548  19.782  0.00  0.00    +0.000 A 
ATOM      6  C   UNL     1       2.045   2.880  18.603  0.00  0.00    +0.000 A 
ATOM      7  C   UNL     1       2.484   4.189  18.355  0.00  0.00    +0.000 A 
ENDROOT
BRANCH   7   8
ATOM      8  O   UNL     1       3.140   4.560  17.192  0.00  0.00    +0.000 OA
BRANCH   8   9
ATOM      9  C   UNL     1       4.506   4.125  17.111  0.00  0.00    +0.000 C 
BRANCH   9  10
ATOM     10  C   UNL     1       5.290   4.833  16.018  0.00  0.00    +0.000 C 
BRANCH  10  11
ATOM     11  C   UNL     1       6.785   4.565  16.108  0.00  0.00    +0.000 C 
BRANCH  11  12
ATOM     12  O   UNL     1       7.484   5.513  15.308  0.00  0.00    +0.000 OA
ATOM     13  H   UNL     1       7.111   5.469  14.411  0.00  0.00    +0.000 HD
ENDBRANCH  11  12
ENDBRANCH  10  11
ENDBRANCH   9  10
ENDBRANCH   8   9
ENDBRANCH   7   8
TORSDOF 5
ENDMDL
MODEL 9
REMARK VINA RESULT:      -4.8      1.462      1.486
REMARK  Name = 
REMARK  6 active torsions:
REMARK  status: ('A' for Active; 'I' for Inactive)
REMARK    1  A    between atoms: C_1  and  C_2
REMARK    2  A    between atoms: C_7  and  O_8
REMARK    3  A    between atoms: O_8  and  C_9
REMARK    4  A    between atoms: C_9  and  C_10
REMARK    5  A    between atoms: C_10  and  C_11
REMARK    6  A    between atoms: C_11  and  O_12
REMARK                            x       y       z     vdW  Elec       q    Type
REMARK                         _______ _______ _______ _____ _____    ______ ____
ROOT
ATOM      1  C   UNL     1       4.513   2.021  19.926  0.00  0.00    +0.000 C 
ATOM      2  C   UNL     1       3.421   3.044  20.079  0.00  0.00    +0.000 A 
ATOM      3  C   UNL     1       2.264   2.673  20.792  0.00  0.00    +0.000 A 
ATOM      4  C   UNL     1       1.212   3.567  20.975  0.00  0.00    +0.000 A 
ATOM      5  C   UNL     1       1.300   4.846  20.445  0.00  0.00    +0.000 A 
ATOM      6  C   UNL     1       2.434   5.225  19.731  0.00  0.00    +0.000 A 
ATOM      7  C   UNL     1       3.507   4.340  19.540  0.00  0.00    +0.000 A 
ENDROOT
BRANCH   7   8
ATOM      8  O   UNL     1       4.654   4.683  18.842  0.00  0.00    +0.000 OA
BRANCH   8   9
ATOM      9  C   UNL     1       4.461   4.883  17.434  0.00  0.00    +0.000 C 
BRANCH   9  10
ATOM     10  C   UNL     1       5.486   4.148  16.584  0.00  0.00    +0.000 C 
BRANCH  10  11
ATOM     11  C   UNL     1       6.904   4.645  16.824  0.00  0.00    +0.000 C 
BRANCH  11  12
ATOM     12  O   UNL     1       7.356   4.187  18.095  0.00  0.00    +0.000 OA
ATOM     13  H   UNL     1       7.671   4.963  18.589  0.00  0.00    +0.000 HD
ENDBRANCH  11  12
ENDBRANCH  10  11
ENDBRANCH   9  10
ENDBRANCH   8   9
ENDBRANCH   7   8
TORSDOF 5
ENDMDL
