MODEL 1
REMARK VINA RESULT:      -9.1      0.000      0.000
REMARK  Name = 
REMARK  10 active torsions:
REMARK  status: ('A' for Active; 'I' for Inactive)
REMARK    1  A    between atoms: C_4  and  C_5
REMARK    2  A    between atoms: C_8  and  O_9
REMARK    3  A    between atoms: O_9  and  C_10
REMARK    4  A    between atoms: C_10  and  C_11
REMARK    5  A    between atoms: C_17  and  O_18
REMARK    6  A    between atoms: O_18  and  C_19
REMARK    7  A    between atoms: C_19  and  C_20
REMARK    8  A    between atoms: C_27  and  C_28
REMARK    9  A    between atoms: C_31  and  O_32
REMARK   10  A    between atoms: C_35  and  O_36
REMARK                            x       y       z     vdW  Elec       q    Type
REMARK                         _______ _______ _______ _____ _____    ______ ____
ROOT
ATOM      1  C   UNL     1       1.076   9.387  19.291  0.00  0.00    +0.000 A 
ATOM      2  C   UNL     1       1.554   9.424  17.977  0.00  0.00    +0.000 A 
ATOM      3  C   UNL     1       2.357   8.402  17.484  0.00  0.00    +0.000 A 
ATOM      4  C   UNL     1       2.681   7.288  18.270  0.00  0.00    +0.000 A 
ATOM      5  C   UNL     1       2.247   7.252  19.604  0.00  0.00    +0.000 A 
ATOM      6  C   UNL     1       1.435   8.291  20.094  0.00  0.00    +0.000 A 
ENDROOT
BRANCH   1  10
ATOM      7  O   UNL     1      -2.800  10.949  18.061  0.00  0.00    +0.000 OA
ATOM      8  C   UNL     1      -1.714  11.035  18.603  0.00  0.00    +0.000 C 
ATOM      9  O   UNL     1      -1.186  10.111  19.456  0.00  0.00    +0.000 OA
ATOM     10  C   UNL     1       0.160  10.481  19.800  0.00  0.00    +0.000 C 
ATOM     11  C   UNL     1       0.337  11.812  19.155  0.00  0.00    +0.000 C 
ATOM     12  C   UNL     1      -0.747  12.142  18.451  0.00  0.00    +0.000 C 
BRANCH  11  13
ATOM     13  C   UNL     1       1.540  12.623  19.292  0.00  0.00    +0.000 A 
ATOM     14  C   UNL     1       1.924  13.103  20.549  0.00  0.00    +0.000 A 
ATOM     15  C   UNL     1       3.042  13.934  20.676  0.00  0.00    +0.000 A 
ATOM     16  C   UNL     1       3.768  14.282  19.541  0.00  0.00    +0.000 A 
ATOM     17  C   UNL     1       3.395  13.818  18.286  0.00  0.00    +0.000 A 
ATOM     18  C   UNL     1       2.277  12.992  18.160  0.00  0.00    +0.000 A 
BRANCH  16  19
ATOM     19  O   UNL     1       4.861  15.092  19.616  0.00  0.00    +0.000 OA
ATOM     20  H   UNL     1       5.323  14.923  20.454  0.00  0.00    +0.000 HD
ENDBRANCH  16  19
ENDBRANCH  11  13
BRANCH  12  21
ATOM     21  O   UNL     1      -0.968  13.261  17.699  0.00  0.00    +0.000 OA
ATOM     22  H   UNL     1      -1.923  13.326  17.522  0.00  0.00    +0.000 HD
ENDBRANCH  12  21
ENDBRANCH   1  10
BRANCH   4  23
ATOM     23  O   UNL     1       3.425   6.252  17.766  0.00  0.00    +0.000 OA
BRANCH  23  24
ATOM     24  C   UNL     1       4.477   6.629  16.875  0.00  0.00    +0.000 C 
BRANCH  24  25
ATOM     25  C   UNL     1       5.803   6.529  17.581  0.00  0.00    +0.000 A 
ATOM     26  C   UNL     1       6.819   7.459  17.330  0.00  0.00    +0.000 A 
ATOM     27  C   UNL     1       8.008   7.411  18.056  0.00  0.00    +0.000 A 
ATOM     28  C   UNL     1       8.190   6.437  19.037  0.00  0.00    +0.000 A 
ATOM     29  C   UNL     1       7.187   5.503  19.290  0.00  0.00    +0.000 A 
ATOM     30  C   UNL     1       5.999   5.547  18.564  0.00  0.00    +0.000 A 
ENDBRANCH  24  25
ENDBRANCH  23  24
ENDBRANCH   4  23
BRANCH   5  31
ATOM     31  O   UNL     1       2.481   6.275  20.539  0.00  0.00    +0.000 OA
BRANCH  31  32
ATOM     32  C   UNL     1       1.515   5.233  20.676  0.00  0.00    +0.000 C 
BRANCH  32  33
ATOM     33  C   UNL     1       2.019   4.024  19.922  0.00  0.00    +0.000 A 
ATOM     34  C   UNL     1       1.164   3.266  19.110  0.00  0.00    +0.000 A 
ATOM     35  C   UNL     1       1.644   2.141  18.433  0.00  0.00    +0.000 A 
ATOM     36  C   UNL     1       2.979   1.762  18.567  0.00  0.00    +0.000 A 
ATOM     37  C   UNL     1       3.837   2.506  19.373  0.00  0.00    +0.000 A 
ATOM     38  C   UNL     1       3.359   3.628  20.051  0.00  0.00    +0.000 A 
ENDBRANCH  32  33
ENDBRANCH  31  32
ENDBRANCH   5  31
TORSDOF 10
ENDMDL
MODEL 2
REMARK VINA RESULT:      -9.0      0.202      1.141
REMARK  Name = 
REMARK  10 active torsions:
REMARK  status: ('A' for Active; 'I' for Inactive)
REMARK    1  A    between atoms: C_4  and  C_5
REMARK    2  A    between atoms: C_8  and  O_9
REMARK    3  A    between atoms: O_9  and  C_10
REMARK    4  A    between atoms: C_10  and  C_11
REMARK    5  A    between atoms: C_17  and  O_18
REMARK    6  A    between atoms: O_18  and  C_19
REMARK    7  A    between atoms: C_19  and  C_20
REMARK    8  A    between atoms: C_27  and  C_28
REMARK    9  A    between atoms: C_31  and  O_32
REMARK   10  A    between atoms: C_35  and  O_36
REMARK                            x       y       z     vdW  Elec       q    Type
REMARK                         _______ _______ _______ _____ _____    ______ ____
ROOT
ATOM      1  C   UNL     1       1.084   9.364  19.302  0.00  0.00    +0.000 A 
ATOM      2  C   UNL     1       1.582   9.430  17.997  0.00  0.00    +0.000 A 
ATOM      3  C   UNL     1       2.370   8.406  17.485  0.00  0.00    +0.000 A 
ATOM      4  C   UNL     1       2.659   7.262  18.242  0.00  0.00    +0.000 A 
ATOM      5  C   UNL     1       2.204   7.196  19.569  0.00  0.00    +0.000 A 
ATOM      6  C   UNL     1       1.408   8.238  20.077  0.00  0.00    +0.000 A 
ENDROOT
BRANCH   1  10
ATOM      7  O   UNL     1      -2.811  10.942  18.155  0.00  0.00    +0.000 OA
ATOM      8  C   UNL     1      -1.713  11.024  18.674  0.00  0.00    +0.000 C 
ATOM      9  O   UNL     1      -1.171  10.098  19.516  0.00  0.00    +0.000 OA
ATOM     10  C   UNL     1       0.184  10.463  19.830  0.00  0.00    +0.000 C 
ATOM     11  C   UNL     1       0.352  11.793  19.180  0.00  0.00    +0.000 C 
ATOM     12  C   UNL     1      -0.745  12.127  18.501  0.00  0.00    +0.000 C 
BRANCH  11  13
ATOM     13  C   UNL     1       1.562  12.598  19.291  0.00  0.00    +0.000 A 
ATOM     14  C   UNL     1       1.983  13.065  20.542  0.00  0.00    +0.000 A 
ATOM     15  C   UNL     1       3.107  13.891  20.644  0.00  0.00    +0.000 A 
ATOM     16  C   UNL     1       3.802  14.248  19.493  0.00  0.00    +0.000 A 
ATOM     17  C   UNL     1       3.391  13.798  18.245  0.00  0.00    +0.000 A 
ATOM     18  C   UNL     1       2.268  12.976  18.142  0.00  0.00    +0.000 A 
BRANCH  16  19
ATOM     19  O   UNL     1       4.899  15.053  19.544  0.00  0.00    +0.000 OA
ATOM     20  H   UNL     1       5.490  14.829  18.805  0.00  0.00    +0.000 HD
ENDBRANCH  16  19
ENDBRANCH  11  13
BRANCH  12  21
ATOM     21  O   UNL     1      -0.977  13.246  17.753  0.00  0.00    +0.000 OA
ATOM     22  H   UNL     1      -1.501  13.868  18.288  0.00  0.00    +0.000 HD
ENDBRANCH  12  21
ENDBRANCH   1  10
BRANCH   4  23
ATOM     23  O   UNL     1       3.388   6.225  17.718  0.00  0.00    +0.000 OA
BRANCH  23  24
ATOM     24  C   UNL     1       4.498   6.607  16.902  0.00  0.00    +0.000 C 
BRANCH  24  25
ATOM     25  C   UNL     1       5.768   6.547  17.708  0.00  0.00    +0.000 A 
ATOM     26  C   UNL     1       5.955   5.553  18.676  0.00  0.00    +0.000 A 
ATOM     27  C   UNL     1       7.171   5.452  19.351  0.00  0.00    +0.000 A 
ATOM     28  C   UNL     1       8.207   6.340  19.064  0.00  0.00    +0.000 A 
ATOM     29  C   UNL     1       8.028   7.336  18.105  0.00  0.00    +0.000 A 
ATOM     30  C   UNL     1       6.813   7.441  17.431  0.00  0.00    +0.000 A 
ENDBRANCH  24  25
ENDBRANCH  23  24
ENDBRANCH   4  23
BRANCH   5  31
ATOM     31  O   UNL     1       2.404   6.188  20.477  0.00  0.00    +0.000 OA
BRANCH  31  32
ATOM     32  C   UNL     1       1.485   5.095  20.478  0.00  0.00    +0.000 C 
BRANCH  32  33
ATOM     33  C   UNL     1       2.134   3.936  19.757  0.00  0.00    +0.000 A 
ATOM     34  C   UNL     1       3.356   3.403  20.191  0.00  0.00    +0.000 A 
ATOM     35  C   UNL     1       3.950   2.342  19.502  0.00  0.00    +0.000 A 
ATOM     36  C   UNL     1       3.331   1.809  18.372  0.00  0.00    +0.000 A 
ATOM     37  C   UNL     1       2.118   2.332  17.931  0.00  0.00    +0.000 A 
ATOM     38  C   UNL     1       1.525   3.392  18.617  0.00  0.00    +0.000 A 
ENDBRANCH  32  33
ENDBRANCH  31  32
ENDBRANCH   5  31
TORSDOF 10
ENDMDL
MODEL 3
REMARK VINA RESULT:      -9.0      2.228      4.970
REMARK  Name = 
REMARK  10 active torsions:
REMARK  status: ('A' for Active; 'I' for Inactive)
REMARK    1  A    between atoms: C_4  and  C_5
REMARK    2  A    between atoms: C_8  and  O_9
REMARK    3  A    between atoms: O_9  and  C_10
REMARK    4  A    between atoms: C_10  and  C_11
REMARK    5  A    between atoms: C_17  and  O_18
REMARK    6  A    between atoms: O_18  and  C_19
REMARK    7  A    between atoms: C_19  and  C_20
REMARK    8  A    between atoms: C_27  and  C_28
REMARK    9  A    between atoms: C_31  and  O_32
REMARK   10  A    between atoms: C_35  and  O_36
REMARK                            x       y       z     vdW  Elec       q    Type
REMARK                         _______ _______ _______ _____ _____    ______ ____
ROOT
ATOM      1  C   UNL     1       0.921   9.958  19.915  0.00  0.00    +0.000 A 
ATOM      2  C   UNL     1       0.786   9.340  21.162  0.00  0.00    +0.000 A 
ATOM      3  C   UNL     1       1.207   8.030  21.355  0.00  0.00    +0.000 A 
ATOM      4  C   UNL     1       1.813   7.301  20.323  0.00  0.00    +0.000 A 
ATOM      5  C   UNL     1       1.918   7.888  19.052  0.00  0.00    +0.000 A 
ATOM      6  C   UNL     1       1.489   9.215  18.867  0.00  0.00    +0.000 A 
ENDROOT
BRANCH   1  10
ATOM      7  O   UNL     1      -0.328  13.146  22.608  0.00  0.00    +0.000 OA
ATOM      8  C   UNL     1      -0.283  12.590  21.526  0.00  0.00    +0.000 C 
ATOM      9  O   UNL     1       0.849  12.107  20.938  0.00  0.00    +0.000 OA
ATOM     10  C   UNL     1       0.505  11.404  19.732  0.00  0.00    +0.000 C 
ATOM     11  C   UNL     1      -0.960  11.633  19.592  0.00  0.00    +0.000 C 
ATOM     12  C   UNL     1      -1.430  12.319  20.634  0.00  0.00    +0.000 C 
BRANCH  11  13
ATOM     13  C   UNL     1      -1.747  11.163  18.459  0.00  0.00    +0.000 A 
ATOM     14  C   UNL     1      -2.446   9.954  18.543  0.00  0.00    +0.000 A 
ATOM     15  C   UNL     1      -3.150   9.468  17.437  0.00  0.00    +0.000 A 
ATOM     16  C   UNL     1      -3.147  10.194  16.250  0.00  0.00    +0.000 A 
ATOM     17  C   UNL     1      -2.451  11.392  16.150  0.00  0.00    +0.000 A 
ATOM     18  C   UNL     1      -1.746  11.876  17.254  0.00  0.00    +0.000 A 
BRANCH  16  19
ATOM     19  O   UNL     1      -3.814   9.758  15.146  0.00  0.00    +0.000 OA
ATOM     20  H   UNL     1      -3.940   8.796  15.212  0.00  0.00    +0.000 HD
ENDBRANCH  16  19
ENDBRANCH  11  13
BRANCH  12  21
ATOM     21  O   UNL     1      -2.715  12.705  20.893  0.00  0.00    +0.000 OA
ATOM     22  H   UNL     1      -2.825  13.623  20.589  0.00  0.00    +0.000 HD
ENDBRANCH  12  21
ENDBRANCH   1  10
BRANCH   4  23
ATOM     23  O   UNL     1       2.281   6.028  20.527  0.00  0.00    +0.000 OA
BRANCH  23  24
ATOM     24  C   UNL     1       1.336   4.982  20.291  0.00  0.00    +0.000 C 
BRANCH  24  25
ATOM     25  C   UNL     1       1.941   3.944  19.384  0.00  0.00    +0.000 A 
ATOM     26  C   UNL     1       1.815   4.049  17.993  0.00  0.00    +0.000 A 
ATOM     27  C   UNL     1       2.457   3.133  17.161  0.00  0.00    +0.000 A 
ATOM     28  C   UNL     1       3.228   2.109  17.709  0.00  0.00    +0.000 A 
ATOM     29  C   UNL     1       3.354   1.993  19.093  0.00  0.00    +0.000 A 
ATOM     30  C   UNL     1       2.711   2.905  19.927  0.00  0.00    +0.000 A 
ENDBRANCH  24  25
ENDBRANCH  23  24
ENDBRANCH   4  23
BRANCH   5  31
ATOM     31  O   UNL     1       2.446   7.336  17.912  0.00  0.00    +0.000 OA
BRANCH  31  32
ATOM     32  C   UNL     1       3.747   7.759  17.502  0.00  0.00    +0.000 C 
BRANCH  32  33
ATOM     33  C   UNL     1       4.605   6.528  17.322  0.00  0.00    +0.000 A 
ATOM     34  C   UNL     1       5.048   5.784  18.423  0.00  0.00    +0.000 A 
ATOM     35  C   UNL     1       5.855   4.657  18.239  0.00  0.00    +0.000 A 
ATOM     36  C   UNL     1       6.230   4.270  16.953  0.00  0.00    +0.000 A 
ATOM     37  C   UNL     1       5.797   5.004  15.851  0.00  0.00    +0.000 A 
ATOM     38  C   UNL     1       4.993   6.129  16.034  0.00  0.00    +0.000 A 
ENDBRANCH  32  33
ENDBRANCH  31  32
ENDBRANCH   5  31
TORSDOF 10
ENDMDL
MODEL 4
REMARK VINA RESULT:      -8.9      2.186      4.990
REMARK  Name = 
REMARK  10 active torsions:
REMARK  status: ('A' for Active; 'I' for Inactive)
REMARK    1  A    between atoms: C_4  and  C_5
REMARK    2  A    between atoms: C_8  and  O_9
REMARK    3  A    between atoms: O_9  and  C_10
REMARK    4  A    between atoms: C_10  and  C_11
REMARK    5  A    between atoms: C_17  and  O_18
REMARK    6  A    between atoms: O_18  and  C_19
REMARK    7  A    between atoms: C_19  and  C_20
REMARK    8  A    between atoms: C_27  and  C_28
REMARK    9  A    between atoms: C_31  and  O_32
REMARK   10  A    between atoms: C_35  and  O_36
REMARK                            x       y       z     vdW  Elec       q    Type
REMARK                         _______ _______ _______ _____ _____    ______ ____
ROOT
ATOM      1  C   UNL     1       0.998   9.896  19.846  0.00  0.00    +0.000 A 
ATOM      2  C   UNL     1       0.808   9.300  21.097  0.00  0.00    +0.000 A 
ATOM      3  C   UNL     1       1.193   7.984  21.323  0.00  0.00    +0.000 A 
ATOM      4  C   UNL     1       1.816   7.226  20.322  0.00  0.00    +0.000 A 
ATOM      5  C   UNL     1       1.977   7.791  19.047  0.00  0.00    +0.000 A 
ATOM      6  C   UNL     1       1.584   9.124  18.828  0.00  0.00    +0.000 A 
ENDROOT
BRANCH   1  10
ATOM      7  O   UNL     1      -0.137  13.187  22.463  0.00  0.00    +0.000 OA
ATOM      8  C   UNL     1      -0.118  12.602  21.396  0.00  0.00    +0.000 C 
ATOM      9  O   UNL     1       0.995  12.071  20.811  0.00  0.00    +0.000 OA
ATOM     10  C   UNL     1       0.621  11.347  19.627  0.00  0.00    +0.000 C 
ATOM     11  C   UNL     1      -0.838  11.614  19.494  0.00  0.00    +0.000 C 
ATOM     12  C   UNL     1      -1.279  12.340  20.522  0.00  0.00    +0.000 C 
BRANCH  11  13
ATOM     13  C   UNL     1      -1.648  11.136  18.381  0.00  0.00    +0.000 A 
ATOM     14  C   UNL     1      -1.744  11.891  17.206  0.00  0.00    +0.000 A 
ATOM     15  C   UNL     1      -2.571  11.467  16.161  0.00  0.00    +0.000 A 
ATOM     16  C   UNL     1      -3.300  10.291  16.299  0.00  0.00    +0.000 A 
ATOM     17  C   UNL     1      -3.220   9.535  17.461  0.00  0.00    +0.000 A 
ATOM     18  C   UNL     1      -2.398   9.959  18.506  0.00  0.00    +0.000 A 
BRANCH  16  19
ATOM     19  O   UNL     1      -4.121   9.841  15.309  0.00  0.00    +0.000 OA
ATOM     20  H   UNL     1      -3.788  10.159  14.453  0.00  0.00    +0.000 HD
ENDBRANCH  16  19
ENDBRANCH  11  13
BRANCH  12  21
ATOM     21  O   UNL     1      -2.550  12.768  20.780  0.00  0.00    +0.000 OA
ATOM     22  H   UNL     1      -2.642  13.676  20.442  0.00  0.00    +0.000 HD
ENDBRANCH  12  21
ENDBRANCH   1  10
BRANCH   4  23
ATOM     23  O   UNL     1       2.248   5.946  20.561  0.00  0.00    +0.000 OA
BRANCH  23  24
ATOM     24  C   UNL     1       1.307   4.914  20.258  0.00  0.00    +0.000 C 
BRANCH  24  25
ATOM     25  C   UNL     1       1.946   3.888  19.362  0.00  0.00    +0.000 A 
ATOM     26  C   UNL     1       1.815   3.972  17.970  0.00  0.00    +0.000 A 
ATOM     27  C   UNL     1       2.487   3.070  17.148  0.00  0.00    +0.000 A 
ATOM     28  C   UNL     1       3.293   2.079  17.706  0.00  0.00    +0.000 A 
ATOM     29  C   UNL     1       3.425   1.983  19.090  0.00  0.00    +0.000 A 
ATOM     30  C   UNL     1       2.753   2.882  19.916  0.00  0.00    +0.000 A 
ENDBRANCH  24  25
ENDBRANCH  23  24
ENDBRANCH   4  23
BRANCH   5  31
ATOM     31  O   UNL     1       2.529   7.210  17.933  0.00  0.00    +0.000 OA
BRANCH  31  32
ATOM     32  C   UNL     1       3.807   7.676  17.498  0.00  0.00    +0.000 C 
BRANCH  32  33
ATOM     33  C   UNL     1       4.695   6.472  17.277  0.00  0.00    +0.000 A 
ATOM     34  C   UNL     1       5.099   6.095  15.990  0.00  0.00    +0.000 A 
ATOM     35  C   UNL     1       5.906   4.969  15.803  0.00  0.00    +0.000 A 
ATOM     36  C   UNL     1       6.311   4.210  16.899  0.00  0.00    +0.000 A 
ATOM     37  C   UNL     1       5.914   4.575  18.184  0.00  0.00    +0.000 A 
ATOM     38  C   UNL     1       5.106   5.697  18.372  0.00  0.00    +0.000 A 
ENDBRANCH  32  33
ENDBRANCH  31  32
ENDBRANCH   5  31
TORSDOF 10
ENDMDL
MODEL 5
REMARK VINA RESULT:      -8.9      1.123      1.584
REMARK  Name = 
REMARK  10 active torsions:
REMARK  status: ('A' for Active; 'I' for Inactive)
REMARK    1  A    between atoms: C_4  and  C_5
REMARK    2  A    between atoms: C_8  and  O_9
REMARK    3  A    between atoms: O_9  and  C_10
REMARK    4  A    between atoms: C_10  and  C_11
REMARK    5  A    between atoms: C_17  and  O_18
REMARK    6  A    between atoms: O_18  and  C_19
REMARK    7  A    between atoms: C_19  and  C_20
REMARK    8  A    between atoms: C_27  and  C_28
REMARK    9  A    between atoms: C_31  and  O_32
REMARK   10  A    between atoms: C_35  and  O_36
REMARK                            x       y       z     vdW  Elec       q    Type
REMARK                         _______ _______ _______ _____ _____    ______ ____
ROOT
ATOM      1  C   UNL     1       1.072   9.509  19.432  0.00  0.00    +0.000 A 
ATOM      2  C   UNL     1       1.558   9.582  18.123  0.00  0.00    +0.000 A 
ATOM      3  C   UNL     1       2.313   8.546  17.587  0.00  0.00    +0.000 A 
ATOM      4  C   UNL     1       2.578   7.383  18.322  0.00  0.00    +0.000 A 
ATOM      5  C   UNL     1       2.135   7.308  19.653  0.00  0.00    +0.000 A 
ATOM      6  C   UNL     1       1.372   8.362  20.186  0.00  0.00    +0.000 A 
ENDROOT
BRANCH   1  10
ATOM      7  O   UNL     1      -2.841  11.136  18.421  0.00  0.00    +0.000 OA
ATOM      8  C   UNL     1      -1.723  11.205  18.898  0.00  0.00    +0.000 C 
ATOM      9  O   UNL     1      -1.163  10.275  19.724  0.00  0.00    +0.000 OA
ATOM     10  C   UNL     1       0.207  10.623  19.987  0.00  0.00    +0.000 C 
ATOM     11  C   UNL     1       0.370  11.947  19.325  0.00  0.00    +0.000 C 
ATOM     12  C   UNL     1      -0.747  12.293  18.684  0.00  0.00    +0.000 C 
BRANCH  11  13
ATOM     13  C   UNL     1       1.594  12.736  19.387  0.00  0.00    +0.000 A 
ATOM     14  C   UNL     1       2.063  13.209  20.617  0.00  0.00    +0.000 A 
ATOM     15  C   UNL     1       3.201  14.019  20.674  0.00  0.00    +0.000 A 
ATOM     16  C   UNL     1       3.862  14.355  19.497  0.00  0.00    +0.000 A 
ATOM     17  C   UNL     1       3.404  13.898  18.268  0.00  0.00    +0.000 A 
ATOM     18  C   UNL     1       2.266  13.092  18.211  0.00  0.00    +0.000 A 
BRANCH  16  19
ATOM     19  O   UNL     1       4.971  15.145  19.502  0.00  0.00    +0.000 OA
ATOM     20  H   UNL     1       4.970  15.686  20.310  0.00  0.00    +0.000 HD
ENDBRANCH  16  19
ENDBRANCH  11  13
BRANCH  12  21
ATOM     21  O   UNL     1      -0.991  13.412  17.939  0.00  0.00    +0.000 OA
ATOM     22  H   UNL     1      -0.599  14.176  18.397  0.00  0.00    +0.000 HD
ENDBRANCH  12  21
ENDBRANCH   1  10
BRANCH   4  23
ATOM     23  O   UNL     1       3.274   6.335  17.775  0.00  0.00    +0.000 OA
BRANCH  23  24
ATOM     24  C   UNL     1       4.679   6.329  18.036  0.00  0.00    +0.000 C 
BRANCH  24  25
ATOM     25  C   UNL     1       5.391   5.529  16.979  0.00  0.00    +0.000 A 
ATOM     26  C   UNL     1       4.750   4.465  16.333  0.00  0.00    +0.000 A 
ATOM     27  C   UNL     1       5.386   3.791  15.292  0.00  0.00    +0.000 A 
ATOM     28  C   UNL     1       6.664   4.174  14.888  0.00  0.00    +0.000 A 
ATOM     29  C   UNL     1       7.313   5.228  15.528  0.00  0.00    +0.000 A 
ATOM     30  C   UNL     1       6.681   5.902  16.571  0.00  0.00    +0.000 A 
ENDBRANCH  24  25
ENDBRANCH  23  24
ENDBRANCH   4  23
BRANCH   5  31
ATOM     31  O   UNL     1       2.316   6.279  20.543  0.00  0.00    +0.000 OA
BRANCH  31  32
ATOM     32  C   UNL     1       1.392   5.192  20.507  0.00  0.00    +0.000 C 
BRANCH  32  33
ATOM     33  C   UNL     1       2.042   4.047  19.764  0.00  0.00    +0.000 A 
ATOM     34  C   UNL     1       1.426   3.463  18.649  0.00  0.00    +0.000 A 
ATOM     35  C   UNL     1       2.034   2.394  17.984  0.00  0.00    +0.000 A 
ATOM     36  C   UNL     1       3.257   1.898  18.431  0.00  0.00    +0.000 A 
ATOM     37  C   UNL     1       3.877   2.470  19.540  0.00  0.00    +0.000 A 
ATOM     38  C   UNL     1       3.271   3.535  20.206  0.00  0.00    +0.000 A 
ENDBRANCH  32  33
ENDBRANCH  31  32
ENDBRANCH   5  31
TORSDOF 10
ENDMDL
MODEL 6
REMARK VINA RESULT:      -8.8      1.200      2.017
REMARK  Name = 
REMARK  10 active torsions:
REMARK  status: ('A' for Active; 'I' for Inactive)
REMARK    1  A    between atoms: C_4  and  C_5
REMARK    2  A    between atoms: C_8  and  O_9
REMARK    3  A    between atoms: O_9  and  C_10
REMARK    4  A    between atoms: C_10  and  C_11
REMARK    5  A    between atoms: C_17  and  O_18
REMARK    6  A    between atoms: O_18  and  C_19
REMARK    7  A    between atoms: C_19  and  C_20
REMARK    8  A    between atoms: C_27  and  C_28
REMARK    9  A    between atoms: C_31  and  O_32
REMARK   10  A    between atoms: C_35  and  O_36
REMARK                            x       y       z     vdW  Elec       q    Type
REMARK                         _______ _______ _______ _____ _____    ______ ____
ROOT
ATOM      1  C   UNL     1       1.087   9.340  19.365  0.00  0.00    +0.000 A 
ATOM      2  C   UNL     1       1.748   9.458  18.138  0.00  0.00    +0.000 A 
ATOM      3  C   UNL     1       2.631   8.474  17.709  0.00  0.00    +0.000 A 
ATOM      4  C   UNL     1       2.859   7.319  18.470  0.00  0.00    +0.000 A 
ATOM      5  C   UNL     1       2.238   7.202  19.724  0.00  0.00    +0.000 A 
ATOM      6  C   UNL     1       1.346   8.203  20.148  0.00  0.00    +0.000 A 
ENDROOT
BRANCH   1  10
ATOM      7  O   UNL     1      -2.809  10.638  17.913  0.00  0.00    +0.000 OA
ATOM      8  C   UNL     1      -1.756  10.803  18.500  0.00  0.00    +0.000 C 
ATOM      9  O   UNL     1      -1.217   9.937  19.405  0.00  0.00    +0.000 OA
ATOM     10  C   UNL     1       0.088  10.394  19.796  0.00  0.00    +0.000 C 
ATOM     11  C   UNL     1       0.220  11.713  19.117  0.00  0.00    +0.000 C 
ATOM     12  C   UNL     1      -0.847  11.959  18.356  0.00  0.00    +0.000 C 
BRANCH  11  13
ATOM     13  C   UNL     1       1.368  12.595  19.282  0.00  0.00    +0.000 A 
ATOM     14  C   UNL     1       2.101  13.013  18.165  0.00  0.00    +0.000 A 
ATOM     15  C   UNL     1       3.240  13.807  18.325  0.00  0.00    +0.000 A 
ATOM     16  C   UNL     1       3.644  14.176  19.604  0.00  0.00    +0.000 A 
ATOM     17  C   UNL     1       2.931  13.764  20.723  0.00  0.00    +0.000 A 
ATOM     18  C   UNL     1       1.795  12.968  20.563  0.00  0.00    +0.000 A 
BRANCH  16  19
ATOM     19  O   UNL     1       4.749  14.945  19.809  0.00  0.00    +0.000 OA
ATOM     20  H   UNL     1       5.001  15.366  18.970  0.00  0.00    +0.000 HD
ENDBRANCH  16  19
ENDBRANCH  11  13
BRANCH  12  21
ATOM     21  O   UNL     1      -1.095  13.040  17.559  0.00  0.00    +0.000 OA
ATOM     22  H   UNL     1      -0.717  12.865  16.679  0.00  0.00    +0.000 HD
ENDBRANCH  12  21
ENDBRANCH   1  10
BRANCH   4  23
ATOM     23  O   UNL     1       3.686   6.320  18.021  0.00  0.00    +0.000 OA
BRANCH  23  24
ATOM     24  C   UNL     1       4.948   6.753  17.509  0.00  0.00    +0.000 C 
BRANCH  24  25
ATOM     25  C   UNL     1       5.500   5.716  16.569  0.00  0.00    +0.000 A 
ATOM     26  C   UNL     1       4.682   4.694  16.071  0.00  0.00    +0.000 A 
ATOM     27  C   UNL     1       5.180   3.794  15.130  0.00  0.00    +0.000 A 
ATOM     28  C   UNL     1       6.494   3.907  14.679  0.00  0.00    +0.000 A 
ATOM     29  C   UNL     1       7.318   4.917  15.173  0.00  0.00    +0.000 A 
ATOM     30  C   UNL     1       6.824   5.817  16.116  0.00  0.00    +0.000 A 
ENDBRANCH  24  25
ENDBRANCH  23  24
ENDBRANCH   4  23
BRANCH   5  31
ATOM     31  O   UNL     1       2.353   6.175  20.626  0.00  0.00    +0.000 OA
BRANCH  31  32
ATOM     32  C   UNL     1       1.449   5.076  20.510  0.00  0.00    +0.000 C 
BRANCH  32  33
ATOM     33  C   UNL     1       2.126   3.994  19.700  0.00  0.00    +0.000 A 
ATOM     34  C   UNL     1       3.346   3.438  20.108  0.00  0.00    +0.000 A 
ATOM     35  C   UNL     1       3.966   2.450  19.337  0.00  0.00    +0.000 A 
ATOM     36  C   UNL     1       3.376   2.016  18.151  0.00  0.00    +0.000 A 
ATOM     37  C   UNL     1       2.165   2.564  17.735  0.00  0.00    +0.000 A 
ATOM     38  C   UNL     1       1.545   3.551  18.502  0.00  0.00    +0.000 A 
ENDBRANCH  32  33
ENDBRANCH  31  32
ENDBRANCH   5  31
TORSDOF 10
ENDMDL
MODEL 7
REMARK VINA RESULT:      -8.7      1.992      5.073
REMARK  Name = 
REMARK  10 active torsions:
REMARK  status: ('A' for Active; 'I' for Inactive)
REMARK    1  A    between atoms: C_4  and  C_5
REMARK    2  A    between atoms: C_8  and  O_9
REMARK    3  A    between atoms: O_9  and  C_10
REMARK    4  A    between atoms: C_10  and  C_11
REMARK    5  A    between atoms: C_17  and  O_18
REMARK    6  A    between atoms: O_18  and  C_19
REMARK    7  A    between atoms: C_19  and  C_20
REMARK    8  A    between atoms: C_27  and  C_28
REMARK    9  A    between atoms: C_31  and  O_32
REMARK   10  A    between atoms: C_35  and  O_36
REMARK                            x       y       z     vdW  Elec       q    Type
REMARK                         _______ _______ _______ _____ _____    ______ ____
ROOT
ATOM      1  C   UNL     1       1.102   9.769  19.707  0.00  0.00    +0.000 A 
ATOM      2  C   UNL     1       0.720   9.261  20.953  0.00  0.00    +0.000 A 
ATOM      3  C   UNL     1       0.988   7.941  21.294  0.00  0.00    +0.000 A 
ATOM      4  C   UNL     1       1.681   7.090  20.422  0.00  0.00    +0.000 A 
ATOM      5  C   UNL     1       2.035   7.568  19.150  0.00  0.00    +0.000 A 
ATOM      6  C   UNL     1       1.759   8.905  18.814  0.00  0.00    +0.000 A 
ENDROOT
BRANCH   1  10
ATOM      7  O   UNL     1       0.415  13.380  22.044  0.00  0.00    +0.000 OA
ATOM      8  C   UNL     1       0.324  12.701  21.039  0.00  0.00    +0.000 C 
ATOM      9  O   UNL     1       1.350  12.014  20.459  0.00  0.00    +0.000 OA
ATOM     10  C   UNL     1       0.849  11.224  19.367  0.00  0.00    +0.000 C 
ATOM     11  C   UNL     1      -0.585  11.617  19.274  0.00  0.00    +0.000 C 
ATOM     12  C   UNL     1      -0.902  12.473  20.246  0.00  0.00    +0.000 C 
BRANCH  11  13
ATOM     13  C   UNL     1      -1.493  11.119  18.249  0.00  0.00    +0.000 A 
ATOM     14  C   UNL     1      -1.655  11.824  17.051  0.00  0.00    +0.000 A 
ATOM     15  C   UNL     1      -2.573  11.385  16.092  0.00  0.00    +0.000 A 
ATOM     16  C   UNL     1      -3.328  10.243  16.339  0.00  0.00    +0.000 A 
ATOM     17  C   UNL     1      -3.183   9.537  17.527  0.00  0.00    +0.000 A 
ATOM     18  C   UNL     1      -2.269   9.978  18.485  0.00  0.00    +0.000 A 
BRANCH  16  19
ATOM     19  O   UNL     1      -4.237   9.780  15.437  0.00  0.00    +0.000 OA
ATOM     20  H   UNL     1      -4.757   9.069  15.848  0.00  0.00    +0.000 HD
ENDBRANCH  16  19
ENDBRANCH  11  13
BRANCH  12  21
ATOM     21  O   UNL     1      -2.113  13.043  20.518  0.00  0.00    +0.000 OA
ATOM     22  H   UNL     1      -1.961  13.959  20.811  0.00  0.00    +0.000 HD
ENDBRANCH  12  21
ENDBRANCH   1  10
BRANCH   4  23
ATOM     23  O   UNL     1       1.997   5.804  20.780  0.00  0.00    +0.000 OA
BRANCH  23  24
ATOM     24  C   UNL     1       1.161   4.789  20.222  0.00  0.00    +0.000 C 
BRANCH  24  25
ATOM     25  C   UNL     1       2.007   3.748  19.541  0.00  0.00    +0.000 A 
ATOM     26  C   UNL     1       3.190   3.288  20.133  0.00  0.00    +0.000 A 
ATOM     27  C   UNL     1       3.917   2.258  19.537  0.00  0.00    +0.000 A 
ATOM     28  C   UNL     1       3.470   1.681  18.350  0.00  0.00    +0.000 A 
ATOM     29  C   UNL     1       2.296   2.135  17.750  0.00  0.00    +0.000 A 
ATOM     30  C   UNL     1       1.569   3.166  18.342  0.00  0.00    +0.000 A 
ENDBRANCH  24  25
ENDBRANCH  23  24
ENDBRANCH   4  23
BRANCH   5  31
ATOM     31  O   UNL     1       2.684   6.891  18.148  0.00  0.00    +0.000 OA
BRANCH  31  32
ATOM     32  C   UNL     1       3.785   7.536  17.507  0.00  0.00    +0.000 C 
BRANCH  32  33
ATOM     33  C   UNL     1       4.810   6.481  17.161  0.00  0.00    +0.000 A 
ATOM     34  C   UNL     1       4.438   5.145  16.960  0.00  0.00    +0.000 A 
ATOM     35  C   UNL     1       5.402   4.180  16.657  0.00  0.00    +0.000 A 
ATOM     36  C   UNL     1       6.745   4.540  16.557  0.00  0.00    +0.000 A 
ATOM     37  C   UNL     1       7.126   5.865  16.757  0.00  0.00    +0.000 A 
ATOM     38  C   UNL     1       6.165   6.830  17.061  0.00  0.00    +0.000 A 
ENDBRANCH  32  33
ENDBRANCH  31  32
ENDBRANCH   5  31
TORSDOF 10
ENDMDL
MODEL 8
REMARK VINA RESULT:      -8.7      1.261      1.750
REMARK  Name = 
REMARK  10 active torsions:
REMARK  status: ('A' for Active; 'I' for Inactive)
REMARK    1  A    between atoms: C_4  and  C_5
REMARK    2  A    between atoms: C_8  and  O_9
REMARK    3  A    between atoms: O_9  and  C_10
REMARK    4  A    between atoms: C_10  and  C_11
REMARK    5  A    between atoms: C_17  and  O_18
REMARK    6  A    between atoms: O_18  and  C_19
REMARK    7  A    between atoms: C_19  and  C_20
REMARK    8  A    between atoms: C_27  and  C_28
REMARK    9  A    between atoms: C_31  and  O_32
REMARK   10  A    between atoms: C_35  and  O_36
REMARK                            x       y       z     vdW  Elec       q    Type
REMARK                         _______ _______ _______ _____ _____    ______ ____
ROOT
ATOM      1  C   UNL     1       1.057   9.691  19.514  0.00  0.00    +0.000 A 
ATOM      2  C   UNL     1       1.474   9.748  18.180  0.00  0.00    +0.000 A 
ATOM      3  C   UNL     1       2.164   8.687  17.606  0.00  0.00    +0.000 A 
ATOM      4  C   UNL     1       2.431   7.516  18.328  0.00  0.00    +0.000 A 
ATOM      5  C   UNL     1       2.058   7.456  19.681  0.00  0.00    +0.000 A 
ATOM      6  C   UNL     1       1.360   8.535  20.253  0.00  0.00    +0.000 A 
ENDROOT
BRANCH   1  10
ATOM      7  O   UNL     1      -2.830  11.473  18.684  0.00  0.00    +0.000 OA
ATOM      8  C   UNL     1      -1.691  11.497  19.112  0.00  0.00    +0.000 C 
ATOM      9  O   UNL     1      -1.132  10.540  19.908  0.00  0.00    +0.000 OA
ATOM     10  C   UNL     1       0.260  10.833  20.112  0.00  0.00    +0.000 C 
ATOM     11  C   UNL     1       0.445  12.155  19.451  0.00  0.00    +0.000 C 
ATOM     12  C   UNL     1      -0.684  12.548  18.862  0.00  0.00    +0.000 C 
BRANCH  11  13
ATOM     13  C   UNL     1       1.700  12.896  19.465  0.00  0.00    +0.000 A 
ATOM     14  C   UNL     1       2.236  13.350  20.675  0.00  0.00    +0.000 A 
ATOM     15  C   UNL     1       3.405  14.116  20.687  0.00  0.00    +0.000 A 
ATOM     16  C   UNL     1       4.032  14.426  19.484  0.00  0.00    +0.000 A 
ATOM     17  C   UNL     1       3.508  13.989  18.274  0.00  0.00    +0.000 A 
ATOM     18  C   UNL     1       2.338  13.227  18.263  0.00  0.00    +0.000 A 
BRANCH  16  19
ATOM     19  O   UNL     1       5.170  15.173  19.445  0.00  0.00    +0.000 OA
ATOM     20  H   UNL     1       5.872  14.657  19.015  0.00  0.00    +0.000 HD
ENDBRANCH  16  19
ENDBRANCH  11  13
BRANCH  12  21
ATOM     21  O   UNL     1      -0.917  13.681  18.135  0.00  0.00    +0.000 OA
ATOM     22  H   UNL     1      -1.635  13.497  17.504  0.00  0.00    +0.000 HD
ENDBRANCH  12  21
ENDBRANCH   1  10
BRANCH   4  23
ATOM     23  O   UNL     1       3.061   6.446  17.746  0.00  0.00    +0.000 OA
BRANCH  23  24
ATOM     24  C   UNL     1       4.489   6.505  17.739  0.00  0.00    +0.000 C 
BRANCH  24  25
ATOM     25  C   UNL     1       5.032   5.596  16.669  0.00  0.00    +0.000 A 
ATOM     26  C   UNL     1       5.317   6.088  15.389  0.00  0.00    +0.000 A 
ATOM     27  C   UNL     1       5.905   5.259  14.435  0.00  0.00    +0.000 A 
ATOM     28  C   UNL     1       6.213   3.936  14.751  0.00  0.00    +0.000 A 
ATOM     29  C   UNL     1       5.928   3.436  16.021  0.00  0.00    +0.000 A 
ATOM     30  C   UNL     1       5.338   4.262  16.976  0.00  0.00    +0.000 A 
ENDBRANCH  24  25
ENDBRANCH  23  24
ENDBRANCH   4  23
BRANCH   5  31
ATOM     31  O   UNL     1       2.254   6.423  20.562  0.00  0.00    +0.000 OA
BRANCH  31  32
ATOM     32  C   UNL     1       1.300   5.361  20.572  0.00  0.00    +0.000 C 
BRANCH  32  33
ATOM     33  C   UNL     1       1.934   4.154  19.919  0.00  0.00    +0.000 A 
ATOM     34  C   UNL     1       3.146   3.629  20.387  0.00  0.00    +0.000 A 
ATOM     35  C   UNL     1       3.727   2.522  19.761  0.00  0.00    +0.000 A 
ATOM     36  C   UNL     1       3.105   1.936  18.660  0.00  0.00    +0.000 A 
ATOM     37  C   UNL     1       1.900   2.451  18.185  0.00  0.00    +0.000 A 
ATOM     38  C   UNL     1       1.321   3.557  18.808  0.00  0.00    +0.000 A 
ENDBRANCH  32  33
ENDBRANCH  31  32
ENDBRANCH   5  31
TORSDOF 10
ENDMDL
MODEL 9
REMARK VINA RESULT:      -8.6      2.084      4.814
REMARK  Name = 
REMARK  10 active torsions:
REMARK  status: ('A' for Active; 'I' for Inactive)
REMARK    1  A    between atoms: C_4  and  C_5
REMARK    2  A    between atoms: C_8  and  O_9
REMARK    3  A    between atoms: O_9  and  C_10
REMARK    4  A    between atoms: C_10  and  C_11
REMARK    5  A    between atoms: C_17  and  O_18
REMARK    6  A    between atoms: O_18  and  C_19
REMARK    7  A    between atoms: C_19  and  C_20
REMARK    8  A    between atoms: C_27  and  C_28
REMARK    9  A    between atoms: C_31  and  O_32
REMARK   10  A    between atoms: C_35  and  O_36
REMARK                            x       y       z     vdW  Elec       q    Type
REMARK                         _______ _______ _______ _____ _____    ______ ____
ROOT
ATOM      1  C   UNL     1       1.084  10.008  19.314  0.00  0.00    +0.000 A 
ATOM      2  C   UNL     1       0.796   9.567  20.610  0.00  0.00    +0.000 A 
ATOM      3  C   UNL     1       1.174   8.297  21.029  0.00  0.00    +0.000 A 
ATOM      4  C   UNL     1       1.885   7.434  20.185  0.00  0.00    +0.000 A 
ATOM      5  C   UNL     1       2.146   7.841  18.866  0.00  0.00    +0.000 A 
ATOM      6  C   UNL     1       1.760   9.128  18.452  0.00  0.00    +0.000 A 
ENDROOT
BRANCH   1  10
ATOM      7  O   UNL     1       3.311  13.693  18.653  0.00  0.00    +0.000 OA
ATOM      8  C   UNL     1       2.303  13.062  18.914  0.00  0.00    +0.000 C 
ATOM      9  O   UNL     1       1.854  11.977  18.220  0.00  0.00    +0.000 OA
ATOM     10  C   UNL     1       0.712  11.413  18.887  0.00  0.00    +0.000 C 
ATOM     11  C   UNL     1       0.445  12.368  19.999  0.00  0.00    +0.000 C 
ATOM     12  C   UNL     1       1.368  13.329  20.026  0.00  0.00    +0.000 C 
BRANCH  11  13
ATOM     13  C   UNL     1      -0.682  12.245  20.915  0.00  0.00    +0.000 A 
ATOM     14  C   UNL     1      -1.962  12.643  20.513  0.00  0.00    +0.000 A 
ATOM     15  C   UNL     1      -3.033  12.586  21.410  0.00  0.00    +0.000 A 
ATOM     16  C   UNL     1      -2.816  12.135  22.708  0.00  0.00    +0.000 A 
ATOM     17  C   UNL     1      -1.550  11.743  23.123  0.00  0.00    +0.000 A 
ATOM     18  C   UNL     1      -0.480  11.803  22.228  0.00  0.00    +0.000 A 
BRANCH  16  19
ATOM     19  O   UNL     1      -3.828  12.066  23.617  0.00  0.00    +0.000 OA
ATOM     20  H   UNL     1      -4.553  11.538  23.244  0.00  0.00    +0.000 HD
ENDBRANCH  16  19
ENDBRANCH  11  13
BRANCH  12  21
ATOM     21  O   UNL     1       1.490  14.370  20.902  0.00  0.00    +0.000 OA
ATOM     22  H   UNL     1       2.077  15.038  20.504  0.00  0.00    +0.000 HD
ENDBRANCH  12  21
ENDBRANCH   1  10
BRANCH   4  23
ATOM     23  O   UNL     1       2.309   6.203  20.616  0.00  0.00    +0.000 OA
BRANCH  23  24
ATOM     24  C   UNL     1       1.433   5.114  20.316  0.00  0.00    +0.000 C 
BRANCH  24  25
ATOM     25  C   UNL     1       2.136   4.123  19.428  0.00  0.00    +0.000 A 
ATOM     26  C   UNL     1       1.800   4.013  18.073  0.00  0.00    +0.000 A 
ATOM     27  C   UNL     1       2.520   3.159  17.240  0.00  0.00    +0.000 A 
ATOM     28  C   UNL     1       3.579   2.410  17.751  0.00  0.00    +0.000 A 
ATOM     29  C   UNL     1       3.917   2.508  19.100  0.00  0.00    +0.000 A 
ATOM     30  C   UNL     1       3.198   3.360  19.936  0.00  0.00    +0.000 A 
ENDBRANCH  24  25
ENDBRANCH  23  24
ENDBRANCH   4  23
BRANCH   5  31
ATOM     31  O   UNL     1       2.796   7.139  17.883  0.00  0.00    +0.000 OA
BRANCH  31  32
ATOM     32  C   UNL     1       4.083   7.597  17.470  0.00  0.00    +0.000 C 
BRANCH  32  33
ATOM     33  C   UNL     1       4.945   6.387  17.189  0.00  0.00    +0.000 A 
ATOM     34  C   UNL     1       5.747   5.819  18.188  0.00  0.00    +0.000 A 
ATOM     35  C   UNL     1       6.550   4.711  17.906  0.00  0.00    +0.000 A 
ATOM     36  C   UNL     1       6.562   4.165  16.624  0.00  0.00    +0.000 A 
ATOM     37  C   UNL     1       5.770   4.722  15.622  0.00  0.00    +0.000 A 
ATOM     38  C   UNL     1       4.969   5.830  15.902  0.00  0.00    +0.000 A 
ENDBRANCH  32  33
ENDBRANCH  31  32
ENDBRANCH   5  31
TORSDOF 10
ENDMDL
