MODEL 1
REMARK VINA RESULT:      -7.7      0.000      0.000
REMARK  Name = 
REMARK  7 active torsions:
REMARK  status: ('A' for Active; 'I' for Inactive)
REMARK    1  A    between atoms: C_1  and  C_2
REMARK    2  A    between atoms: N_10  and  C_11
REMARK    3  A    between atoms: C_11  and  C_12
REMARK    4  A    between atoms: C_12  and  O_13
REMARK    5  A    between atoms: C_12  and  C_14
REMARK    6  A    between atoms: C_14  and  N_15
REMARK    7  A    between atoms: C_20  and  C_21
REMARK                            x       y       z     vdW  Elec       q    Type
REMARK                         _______ _______ _______ _____ _____    ______ ____
ROOT
ATOM      1  C   UNL     1       6.354   4.465  14.215  0.00  0.00    +0.000 C 
ATOM      2  C   UNL     1       5.605   4.871  15.450  0.00  0.00    +0.000 A 
ATOM      3  C   UNL     1       5.772   6.136  16.014  0.00  0.00    +0.000 A 
ATOM      4  C   UNL     1       5.056   6.528  17.153  0.00  0.00    +0.000 A 
ATOM      5  C   UNL     1       4.151   5.617  17.725  0.00  0.00    +0.000 A 
ATOM      6  C   UNL     1       3.981   4.334  17.190  0.00  0.00    +0.000 A 
ATOM      7  C   UNL     1       4.720   3.962  16.048  0.00  0.00    +0.000 A 
ATOM      8  C   UNL     1       3.016   3.669  17.989  0.00  0.00    +0.000 A 
ATOM      9  C   UNL     1       2.570   4.564  18.944  0.00  0.00    +0.000 A 
ATOM     10  N   UNL     1       3.306   5.718  18.823  0.00  0.00    +0.000 N 
ATOM     11  C   UNL     1       1.507   4.284  19.953  0.00  0.00    +0.000 C 
ATOM     12  C   UNL     1       0.754   2.989  19.590  0.00  0.00    +0.000 C 
ATOM     13  C   UNL     1       1.707   1.875  19.126  0.00  0.00    +0.000 C 
ATOM     14  C   UNL     1       2.478   2.285  17.859  0.00  0.00    +0.000 C 
ENDROOT
BRANCH  10  15
ATOM     15  C   UNL     1       3.166   6.906  19.659  0.00  0.00    +0.000 C 
BRANCH  15  16
ATOM     16  C   UNL     1       1.794   7.584  19.532  0.00  0.00    +0.000 C 
BRANCH  16  17
ATOM     17  O   UNL     1       1.188   7.829  20.802  0.00  0.00    +0.000 OA
ATOM     18  H   UNL     1       1.739   8.474  21.275  0.00  0.00    +0.000 HD
ENDBRANCH  16  17
BRANCH  16  19
ATOM     19  C   UNL     1       1.797   8.891  18.693  0.00  0.00    +0.000 C 
BRANCH  19  20
ATOM     20  N   UNL     1       0.761   9.913  18.836  0.00  0.00    +0.000 NA
ATOM     21  C   UNL     1      -0.333   9.930  17.884  0.00  0.00    +0.000 C 
ATOM     22  C   UNL     1      -1.607  10.472  18.526  0.00  0.00    +0.000 C 
ATOM     23  C   UNL     1      -1.364  11.842  19.142  0.00  0.00    +0.000 C 
ATOM     24  C   UNL     1      -0.201  11.770  20.128  0.00  0.00    +0.000 C 
ATOM     25  C   UNL     1       1.083  11.179  19.502  0.00  0.00    +0.000 C 
ATOM     26  C   UNL     1       1.757  12.227  18.611  0.00  0.00    +0.000 C 
ENDBRANCH  19  20
ENDBRANCH  16  19
ENDBRANCH  15  16
ENDBRANCH  10  15
TORSDOF 5
ENDMDL
MODEL 2
REMARK VINA RESULT:      -7.6      1.387      1.805
REMARK  Name = 
REMARK  7 active torsions:
REMARK  status: ('A' for Active; 'I' for Inactive)
REMARK    1  A    between atoms: C_1  and  C_2
REMARK    2  A    between atoms: N_10  and  C_11
REMARK    3  A    between atoms: C_11  and  C_12
REMARK    4  A    between atoms: C_12  and  O_13
REMARK    5  A    between atoms: C_12  and  C_14
REMARK    6  A    between atoms: C_14  and  N_15
REMARK    7  A    between atoms: C_20  and  C_21
REMARK                            x       y       z     vdW  Elec       q    Type
REMARK                         _______ _______ _______ _____ _____    ______ ____
ROOT
ATOM      1  C   UNL     1       6.100   4.014  13.883  0.00  0.00    +0.000 C 
ATOM      2  C   UNL     1       5.485   4.501  15.162  0.00  0.00    +0.000 A 
ATOM      3  C   UNL     1       5.802   5.756  15.684  0.00  0.00    +0.000 A 
ATOM      4  C   UNL     1       5.212   6.224  16.866  0.00  0.00    +0.000 A 
ATOM      5  C   UNL     1       4.281   5.403  17.525  0.00  0.00    +0.000 A 
ATOM      6  C   UNL     1       3.964   4.131  17.033  0.00  0.00    +0.000 A 
ATOM      7  C   UNL     1       4.577   3.679  15.846  0.00  0.00    +0.000 A 
ATOM      8  C   UNL     1       3.011   3.562  17.918  0.00  0.00    +0.000 A 
ATOM      9  C   UNL     1       2.718   4.506  18.884  0.00  0.00    +0.000 A 
ATOM     10  N   UNL     1       3.536   5.591  18.682  0.00  0.00    +0.000 N 
ATOM     11  C   UNL     1       1.717   4.334  19.978  0.00  0.00    +0.000 C 
ATOM     12  C   UNL     1       0.833   3.102  19.702  0.00  0.00    +0.000 C 
ATOM     13  C   UNL     1       1.650   1.904  19.190  0.00  0.00    +0.000 C 
ATOM     14  C   UNL     1       2.352   2.227  17.859  0.00  0.00    +0.000 C 
ENDROOT
BRANCH  10  15
ATOM     15  C   UNL     1       3.562   6.800  19.500  0.00  0.00    +0.000 C 
BRANCH  15  16
ATOM     16  C   UNL     1       2.370   7.735  19.246  0.00  0.00    +0.000 C 
BRANCH  16  17
ATOM     17  O   UNL     1       1.774   7.522  17.967  0.00  0.00    +0.000 OA
ATOM     18  H   UNL     1       0.831   7.336  18.105  0.00  0.00    +0.000 HD
ENDBRANCH  16  17
BRANCH  16  19
ATOM     19  C   UNL     1       1.276   7.698  20.347  0.00  0.00    +0.000 C 
BRANCH  19  20
ATOM     20  N   UNL     1       0.677   8.915  20.893  0.00  0.00    +0.000 NA
ATOM     21  C   UNL     1      -0.325   8.788  21.934  0.00  0.00    +0.000 C 
ATOM     22  C   UNL     1      -0.302   9.997  22.865  0.00  0.00    +0.000 C 
ATOM     23  C   UNL     1      -0.456  11.291  22.079  0.00  0.00    +0.000 C 
ATOM     24  C   UNL     1       0.615  11.370  20.995  0.00  0.00    +0.000 C 
ATOM     25  C   UNL     1       0.632  10.129  20.073  0.00  0.00    +0.000 C 
ATOM     26  C   UNL     1      -0.534  10.200  19.083  0.00  0.00    +0.000 C 
ENDBRANCH  19  20
ENDBRANCH  16  19
ENDBRANCH  15  16
ENDBRANCH  10  15
TORSDOF 5
ENDMDL
MODEL 3
REMARK VINA RESULT:      -7.5      1.139      1.609
REMARK  Name = 
REMARK  7 active torsions:
REMARK  status: ('A' for Active; 'I' for Inactive)
REMARK    1  A    between atoms: C_1  and  C_2
REMARK    2  A    between atoms: N_10  and  C_11
REMARK    3  A    between atoms: C_11  and  C_12
REMARK    4  A    between atoms: C_12  and  O_13
REMARK    5  A    between atoms: C_12  and  C_14
REMARK    6  A    between atoms: C_14  and  N_15
REMARK    7  A    between atoms: C_20  and  C_21
REMARK                            x       y       z     vdW  Elec       q    Type
REMARK                         _______ _______ _______ _____ _____    ______ ____
ROOT
ATOM      1  C   UNL     1       6.208   4.032  14.511  0.00  0.00    +0.000 C 
ATOM      2  C   UNL     1       5.405   4.694  15.591  0.00  0.00    +0.000 A 
ATOM      3  C   UNL     1       5.366   6.084  15.716  0.00  0.00    +0.000 A 
ATOM      4  C   UNL     1       4.598   6.706  16.708  0.00  0.00    +0.000 A 
ATOM      5  C   UNL     1       3.853   5.901  17.587  0.00  0.00    +0.000 A 
ATOM      6  C   UNL     1       3.893   4.504  17.496  0.00  0.00    +0.000 A 
ATOM      7  C   UNL     1       4.680   3.902  16.493  0.00  0.00    +0.000 A 
ATOM      8  C   UNL     1       3.048   3.992  18.515  0.00  0.00    +0.000 A 
ATOM      9  C   UNL     1       2.466   5.067  19.159  0.00  0.00    +0.000 A 
ATOM     10  N   UNL     1       3.004   6.218  18.639  0.00  0.00    +0.000 N 
ATOM     11  C   UNL     1       1.463   4.968  20.260  0.00  0.00    +0.000 C 
ATOM     12  C   UNL     1       0.929   3.526  20.368  0.00  0.00    +0.000 C 
ATOM     13  C   UNL     1       2.049   2.480  20.230  0.00  0.00    +0.000 C 
ATOM     14  C   UNL     1       2.742   2.574  18.859  0.00  0.00    +0.000 C 
ENDROOT
BRANCH  10  15
ATOM     15  C   UNL     1       2.675   7.577  19.062  0.00  0.00    +0.000 C 
BRANCH  15  16
ATOM     16  C   UNL     1       2.096   8.443  17.935  0.00  0.00    +0.000 C 
BRANCH  16  17
ATOM     17  O   UNL     1       0.845   7.949  17.456  0.00  0.00    +0.000 OA
ATOM     18  H   UNL     1       0.256   8.709  17.322  0.00  0.00    +0.000 HD
ENDBRANCH  16  17
BRANCH  16  19
ATOM     19  C   UNL     1       1.963   9.950  18.286  0.00  0.00    +0.000 C 
BRANCH  19  20
ATOM     20  N   UNL     1       0.911  10.457  19.165  0.00  0.00    +0.000 NA
ATOM     21  C   UNL     1       0.695   9.799  20.440  0.00  0.00    +0.000 C 
ATOM     22  C   UNL     1       0.172  10.784  21.482  0.00  0.00    +0.000 C 
ATOM     23  C   UNL     1      -1.082  11.487  20.983  0.00  0.00    +0.000 C 
ATOM     24  C   UNL     1      -0.803  12.155  19.639  0.00  0.00    +0.000 C 
ATOM     25  C   UNL     1      -0.229  11.176  18.588  0.00  0.00    +0.000 C 
ATOM     26  C   UNL     1      -1.348  10.286  18.040  0.00  0.00    +0.000 C 
ENDBRANCH  19  20
ENDBRANCH  16  19
ENDBRANCH  15  16
ENDBRANCH  10  15
TORSDOF 5
ENDMDL
MODEL 4
REMARK VINA RESULT:      -7.4      0.920      1.533
REMARK  Name = 
REMARK  7 active torsions:
REMARK  status: ('A' for Active; 'I' for Inactive)
REMARK    1  A    between atoms: C_1  and  C_2
REMARK    2  A    between atoms: N_10  and  C_11
REMARK    3  A    between atoms: C_11  and  C_12
REMARK    4  A    between atoms: C_12  and  O_13
REMARK    5  A    between atoms: C_12  and  C_14
REMARK    6  A    between atoms: C_14  and  N_15
REMARK    7  A    between atoms: C_20  and  C_21
REMARK                            x       y       z     vdW  Elec       q    Type
REMARK                         _______ _______ _______ _____ _____    ______ ____
ROOT
ATOM      1  C   UNL     1       6.420   4.654  14.329  0.00  0.00    +0.000 C 
ATOM      2  C   UNL     1       5.623   5.011  15.549  0.00  0.00    +0.000 A 
ATOM      3  C   UNL     1       5.753   6.260  16.158  0.00  0.00    +0.000 A 
ATOM      4  C   UNL     1       4.993   6.605  17.284  0.00  0.00    +0.000 A 
ATOM      5  C   UNL     1       4.083   5.664  17.796  0.00  0.00    +0.000 A 
ATOM      6  C   UNL     1       3.951   4.396  17.216  0.00  0.00    +0.000 A 
ATOM      7  C   UNL     1       4.733   4.071  16.088  0.00  0.00    +0.000 A 
ATOM      8  C   UNL     1       2.969   3.693  17.960  0.00  0.00    +0.000 A 
ATOM      9  C   UNL     1       2.478   4.551  18.927  0.00  0.00    +0.000 A 
ATOM     10  N   UNL     1       3.200   5.718  18.866  0.00  0.00    +0.000 N 
ATOM     11  C   UNL     1       1.386   4.225  19.890  0.00  0.00    +0.000 C 
ATOM     12  C   UNL     1       0.665   2.931  19.462  0.00  0.00    +0.000 C 
ATOM     13  C   UNL     1       1.650   1.846  18.995  0.00  0.00    +0.000 C 
ATOM     14  C   UNL     1       2.457   2.306  17.769  0.00  0.00    +0.000 C 
ENDROOT
BRANCH  10  15
ATOM     15  C   UNL     1       3.014   6.877  19.735  0.00  0.00    +0.000 C 
BRANCH  15  16
ATOM     16  C   UNL     1       2.195   8.002  19.084  0.00  0.00    +0.000 C 
BRANCH  16  17
ATOM     17  O   UNL     1       1.576   7.590  17.865  0.00  0.00    +0.000 OA
ATOM     18  H   UNL     1       2.280   7.398  17.225  0.00  0.00    +0.000 HD
ENDBRANCH  16  17
BRANCH  16  19
ATOM     19  C   UNL     1       1.135   8.648  20.017  0.00  0.00    +0.000 C 
BRANCH  19  20
ATOM     20  N   UNL     1       0.780  10.064  19.931  0.00  0.00    +0.000 NA
ATOM     21  C   UNL     1       0.226  10.713  21.104  0.00  0.00    +0.000 C 
ATOM     22  C   UNL     1       0.590  12.195  21.131  0.00  0.00    +0.000 C 
ATOM     23  C   UNL     1       0.163  12.883  19.843  0.00  0.00    +0.000 C 
ATOM     24  C   UNL     1       0.766  12.158  18.642  0.00  0.00    +0.000 C 
ATOM     25  C   UNL     1       0.442  10.646  18.628  0.00  0.00    +0.000 C 
ATOM     26  C   UNL     1      -1.005  10.428  18.175  0.00  0.00    +0.000 C 
ENDBRANCH  19  20
ENDBRANCH  16  19
ENDBRANCH  15  16
ENDBRANCH  10  15
TORSDOF 5
ENDMDL
MODEL 5
REMARK VINA RESULT:      -7.2      1.228      1.633
REMARK  Name = 
REMARK  7 active torsions:
REMARK  status: ('A' for Active; 'I' for Inactive)
REMARK    1  A    between atoms: C_1  and  C_2
REMARK    2  A    between atoms: N_10  and  C_11
REMARK    3  A    between atoms: C_11  and  C_12
REMARK    4  A    between atoms: C_12  and  O_13
REMARK    5  A    between atoms: C_12  and  C_14
REMARK    6  A    between atoms: C_14  and  N_15
REMARK    7  A    between atoms: C_20  and  C_21
REMARK                            x       y       z     vdW  Elec       q    Type
REMARK                         _______ _______ _______ _____ _____    ______ ____
ROOT
ATOM      1  C   UNL     1       6.376   4.682  14.847  0.00  0.00    +0.000 C 
ATOM      2  C   UNL     1       5.452   5.237  15.890  0.00  0.00    +0.000 A 
ATOM      3  C   UNL     1       5.241   6.612  16.013  0.00  0.00    +0.000 A 
ATOM      4  C   UNL     1       4.361   7.133  16.970  0.00  0.00    +0.000 A 
ATOM      5  C   UNL     1       3.680   6.239  17.816  0.00  0.00    +0.000 A 
ATOM      6  C   UNL     1       3.892   4.858  17.727  0.00  0.00    +0.000 A 
ATOM      7  C   UNL     1       4.789   4.359  16.760  0.00  0.00    +0.000 A 
ATOM      8  C   UNL     1       3.072   4.242  18.708  0.00  0.00    +0.000 A 
ATOM      9  C   UNL     1       2.336   5.236  19.326  0.00  0.00    +0.000 A 
ATOM     10  N   UNL     1       2.754   6.447  18.829  0.00  0.00    +0.000 N 
ATOM     11  C   UNL     1       1.305   5.012  20.381  0.00  0.00    +0.000 C 
ATOM     12  C   UNL     1       0.945   3.516  20.466  0.00  0.00    +0.000 C 
ATOM     13  C   UNL     1       2.187   2.614  20.378  0.00  0.00    +0.000 C 
ATOM     14  C   UNL     1       2.923   2.797  19.039  0.00  0.00    +0.000 C 
ENDROOT
BRANCH  10  15
ATOM     15  C   UNL     1       2.246   7.754  19.237  0.00  0.00    +0.000 C 
BRANCH  15  16
ATOM     16  C   UNL     1       1.987   8.703  18.058  0.00  0.00    +0.000 C 
BRANCH  16  17
ATOM     17  O   UNL     1       0.723   8.468  17.438  0.00  0.00    +0.000 OA
ATOM     18  H   UNL     1       0.394   7.609  17.748  0.00  0.00    +0.000 HD
ENDBRANCH  16  17
BRANCH  16  19
ATOM     19  C   UNL     1       2.130  10.210  18.402  0.00  0.00    +0.000 C 
BRANCH  19  20
ATOM     20  N   UNL     1       0.983  11.038  18.774  0.00  0.00    +0.000 NA
ATOM     21  C   UNL     1       1.108  12.480  18.678  0.00  0.00    +0.000 C 
ATOM     22  C   UNL     1      -0.240  13.126  18.370  0.00  0.00    +0.000 C 
ATOM     23  C   UNL     1      -1.288  12.710  19.393  0.00  0.00    +0.000 C 
ATOM     24  C   UNL     1      -1.374  11.187  19.458  0.00  0.00    +0.000 C 
ATOM     25  C   UNL     1      -0.005  10.518  19.724  0.00  0.00    +0.000 C 
ATOM     26  C   UNL     1       0.371  10.672  21.201  0.00  0.00    +0.000 C 
ENDBRANCH  19  20
ENDBRANCH  16  19
ENDBRANCH  15  16
ENDBRANCH  10  15
TORSDOF 5
ENDMDL
MODEL 6
REMARK VINA RESULT:      -7.1      1.257      1.365
REMARK  Name = 
REMARK  7 active torsions:
REMARK  status: ('A' for Active; 'I' for Inactive)
REMARK    1  A    between atoms: C_1  and  C_2
REMARK    2  A    between atoms: N_10  and  C_11
REMARK    3  A    between atoms: C_11  and  C_12
REMARK    4  A    between atoms: C_12  and  O_13
REMARK    5  A    between atoms: C_12  and  C_14
REMARK    6  A    between atoms: C_14  and  N_15
REMARK    7  A    between atoms: C_20  and  C_21
REMARK                            x       y       z     vdW  Elec       q    Type
REMARK                         _______ _______ _______ _____ _____    ______ ____
ROOT
ATOM      1  C   UNL     1       6.404   4.545  14.925  0.00  0.00    +0.000 C 
ATOM      2  C   UNL     1       5.494   5.145  15.956  0.00  0.00    +0.000 A 
ATOM      3  C   UNL     1       5.300   6.524  16.035  0.00  0.00    +0.000 A 
ATOM      4  C   UNL     1       4.433   7.087  16.981  0.00  0.00    +0.000 A 
ATOM      5  C   UNL     1       3.747   6.229  17.859  0.00  0.00    +0.000 A 
ATOM      6  C   UNL     1       3.941   4.843  17.814  0.00  0.00    +0.000 A 
ATOM      7  C   UNL     1       4.826   4.303  16.858  0.00  0.00    +0.000 A 
ATOM      8  C   UNL     1       3.120   4.270  18.819  0.00  0.00    +0.000 A 
ATOM      9  C   UNL     1       2.401   5.292  19.409  0.00  0.00    +0.000 A 
ATOM     10  N   UNL     1       2.830   6.481  18.871  0.00  0.00    +0.000 N 
ATOM     11  C   UNL     1       1.374   5.115  20.478  0.00  0.00    +0.000 C 
ATOM     12  C   UNL     1       0.997   3.627  20.613  0.00  0.00    +0.000 C 
ATOM     13  C   UNL     1       2.227   2.707  20.547  0.00  0.00    +0.000 C 
ATOM     14  C   UNL     1       2.957   2.838  19.198  0.00  0.00    +0.000 C 
ENDROOT
BRANCH  10  15
ATOM     15  C   UNL     1       2.340   7.806  19.239  0.00  0.00    +0.000 C 
BRANCH  15  16
ATOM     16  C   UNL     1       1.967   8.677  18.031  0.00  0.00    +0.000 C 
BRANCH  16  17
ATOM     17  O   UNL     1       0.771   8.234  17.389  0.00  0.00    +0.000 OA
ATOM     18  H   UNL     1       0.152   8.982  17.364  0.00  0.00    +0.000 HD
ENDBRANCH  16  17
BRANCH  16  19
ATOM     19  C   UNL     1       1.865  10.195  18.338  0.00  0.00    +0.000 C 
BRANCH  19  20
ATOM     20  N   UNL     1       0.781  10.757  19.143  0.00  0.00    +0.000 NA
ATOM     21  C   UNL     1      -0.379  11.301  18.462  0.00  0.00    +0.000 C 
ATOM     22  C   UNL     1      -1.634  11.153  19.318  0.00  0.00    +0.000 C 
ATOM     23  C   UNL     1      -1.432  11.779  20.690  0.00  0.00    +0.000 C 
ATOM     24  C   UNL     1      -0.198  11.178  21.359  0.00  0.00    +0.000 C 
ATOM     25  C   UNL     1       1.072  11.281  20.481  0.00  0.00    +0.000 C 
ATOM     26  C   UNL     1       1.612  12.713  20.514  0.00  0.00    +0.000 C 
ENDBRANCH  19  20
ENDBRANCH  16  19
ENDBRANCH  15  16
ENDBRANCH  10  15
TORSDOF 5
ENDMDL
MODEL 7
REMARK VINA RESULT:      -7.1      2.972      7.164
REMARK  Name = 
REMARK  7 active torsions:
REMARK  status: ('A' for Active; 'I' for Inactive)
REMARK    1  A    between atoms: C_1  and  C_2
REMARK    2  A    between atoms: N_10  and  C_11
REMARK    3  A    between atoms: C_11  and  C_12
REMARK    4  A    between atoms: C_12  and  O_13
REMARK    5  A    between atoms: C_12  and  C_14
REMARK    6  A    between atoms: C_14  and  N_15
REMARK    7  A    between atoms: C_20  and  C_21
REMARK                            x       y       z     vdW  Elec       q    Type
REMARK                         _______ _______ _______ _____ _____    ______ ____
ROOT
ATOM      1  C   UNL     1       1.764   9.298  17.752  0.00  0.00    +0.000 C 
ATOM      2  C   UNL     1       2.579   8.041  17.835  0.00  0.00    +0.000 A 
ATOM      3  C   UNL     1       3.964   8.065  17.660  0.00  0.00    +0.000 A 
ATOM      4  C   UNL     1       4.732   6.897  17.760  0.00  0.00    +0.000 A 
ATOM      5  C   UNL     1       4.080   5.685  18.048  0.00  0.00    +0.000 A 
ATOM      6  C   UNL     1       2.689   5.632  18.205  0.00  0.00    +0.000 A 
ATOM      7  C   UNL     1       1.938   6.820  18.092  0.00  0.00    +0.000 A 
ATOM      8  C   UNL     1       2.347   4.282  18.477  0.00  0.00    +0.000 A 
ATOM      9  C   UNL     1       3.521   3.556  18.544  0.00  0.00    +0.000 A 
ATOM     10  N   UNL     1       4.560   4.394  18.220  0.00  0.00    +0.000 N 
ATOM     11  C   UNL     1       3.614   2.102  18.868  0.00  0.00    +0.000 C 
ATOM     12  C   UNL     1       2.271   1.592  19.425  0.00  0.00    +0.000 C 
ATOM     13  C   UNL     1       1.070   2.146  18.640  0.00  0.00    +0.000 C 
ATOM     14  C   UNL     1       1.005   3.681  18.718  0.00  0.00    +0.000 C 
ENDROOT
BRANCH  10  15
ATOM     15  C   UNL     1       5.968   4.013  18.149  0.00  0.00    +0.000 C 
BRANCH  15  16
ATOM     16  C   UNL     1       6.642   4.409  16.827  0.00  0.00    +0.000 C 
BRANCH  16  17
ATOM     17  O   UNL     1       8.043   4.133  16.825  0.00  0.00    +0.000 OA
ATOM     18  H   UNL     1       8.313   3.959  17.741  0.00  0.00    +0.000 HD
ENDBRANCH  16  17
BRANCH  16  19
ATOM     19  C   UNL     1       5.985   3.794  15.561  0.00  0.00    +0.000 C 
BRANCH  19  20
ATOM     20  N   UNL     1       6.464   4.092  14.212  0.00  0.00    +0.000 NA
ATOM     21  C   UNL     1       6.895   5.444  13.912  0.00  0.00    +0.000 C 
ATOM     22  C   UNL     1       7.981   5.446  12.840  0.00  0.00    +0.000 C 
ATOM     23  C   UNL     1       7.517   4.705  11.595  0.00  0.00    +0.000 C 
ATOM     24  C   UNL     1       7.069   3.294  11.966  0.00  0.00    +0.000 C 
ATOM     25  C   UNL     1       6.001   3.277  13.085  0.00  0.00    +0.000 C 
ATOM     26  C   UNL     1       4.639   3.679  12.509  0.00  0.00    +0.000 C 
ENDBRANCH  19  20
ENDBRANCH  16  19
ENDBRANCH  15  16
ENDBRANCH  10  15
TORSDOF 5
ENDMDL
MODEL 8
REMARK VINA RESULT:      -7.1      0.991      1.609
REMARK  Name = 
REMARK  7 active torsions:
REMARK  status: ('A' for Active; 'I' for Inactive)
REMARK    1  A    between atoms: C_1  and  C_2
REMARK    2  A    between atoms: N_10  and  C_11
REMARK    3  A    between atoms: C_11  and  C_12
REMARK    4  A    between atoms: C_12  and  O_13
REMARK    5  A    between atoms: C_12  and  C_14
REMARK    6  A    between atoms: C_14  and  N_15
REMARK    7  A    between atoms: C_20  and  C_21
REMARK                            x       y       z     vdW  Elec       q    Type
REMARK                         _______ _______ _______ _____ _____    ______ ____
ROOT
ATOM      1  C   UNL     1       6.012   4.098  14.280  0.00  0.00    +0.000 C 
ATOM      2  C   UNL     1       5.311   4.693  15.466  0.00  0.00    +0.000 A 
ATOM      3  C   UNL     1       5.487   6.033  15.812  0.00  0.00    +0.000 A 
ATOM      4  C   UNL     1       4.816   6.598  16.904  0.00  0.00    +0.000 A 
ATOM      5  C   UNL     1       3.948   5.786  17.655  0.00  0.00    +0.000 A 
ATOM      6  C   UNL     1       3.773   4.433  17.341  0.00  0.00    +0.000 A 
ATOM      7  C   UNL     1       4.465   3.886  16.241  0.00  0.00    +0.000 A 
ATOM      8  C   UNL     1       2.851   3.899  18.279  0.00  0.00    +0.000 A 
ATOM      9  C   UNL     1       2.436   4.933  19.097  0.00  0.00    +0.000 A 
ATOM     10  N   UNL     1       3.150   6.057  18.759  0.00  0.00    +0.000 N 
ATOM     11  C   UNL     1       1.421   4.813  20.185  0.00  0.00    +0.000 C 
ATOM     12  C   UNL     1       0.671   3.472  20.069  0.00  0.00    +0.000 C 
ATOM     13  C   UNL     1       1.617   2.303  19.746  0.00  0.00    +0.000 C 
ATOM     14  C   UNL     1       2.327   2.509  18.397  0.00  0.00    +0.000 C 
ENDROOT
BRANCH  10  15
ATOM     15  C   UNL     1       3.031   7.363  19.400  0.00  0.00    +0.000 C 
BRANCH  15  16
ATOM     16  C   UNL     1       2.114   8.334  18.642  0.00  0.00    +0.000 C 
BRANCH  16  17
ATOM     17  O   UNL     1       1.367   7.685  17.612  0.00  0.00    +0.000 OA
ATOM     18  H   UNL     1       0.580   8.223  17.432  0.00  0.00    +0.000 HD
ENDBRANCH  16  17
BRANCH  16  19
ATOM     19  C   UNL     1       1.155   9.153  19.548  0.00  0.00    +0.000 C 
BRANCH  19  20
ATOM     20  N   UNL     1       0.739  10.515  19.213  0.00  0.00    +0.000 NA
ATOM     21  C   UNL     1       1.718  11.581  19.308  0.00  0.00    +0.000 C 
ATOM     22  C   UNL     1       1.420  12.686  18.298  0.00  0.00    +0.000 C 
ATOM     23  C   UNL     1      -0.003  13.201  18.461  0.00  0.00    +0.000 C 
ATOM     24  C   UNL     1      -0.989  12.041  18.361  0.00  0.00    +0.000 C 
ATOM     25  C   UNL     1      -0.670  10.893  19.347  0.00  0.00    +0.000 C 
ATOM     26  C   UNL     1      -1.105  11.288  20.762  0.00  0.00    +0.000 C 
ENDBRANCH  19  20
ENDBRANCH  16  19
ENDBRANCH  15  16
ENDBRANCH  10  15
TORSDOF 5
ENDMDL
MODEL 9
REMARK VINA RESULT:      -7.1      1.525      1.954
REMARK  Name = 
REMARK  7 active torsions:
REMARK  status: ('A' for Active; 'I' for Inactive)
REMARK    1  A    between atoms: C_1  and  C_2
REMARK    2  A    between atoms: N_10  and  C_11
REMARK    3  A    between atoms: C_11  and  C_12
REMARK    4  A    between atoms: C_12  and  O_13
REMARK    5  A    between atoms: C_12  and  C_14
REMARK    6  A    between atoms: C_14  and  N_15
REMARK    7  A    between atoms: C_20  and  C_21
REMARK                            x       y       z     vdW  Elec       q    Type
REMARK                         _______ _______ _______ _____ _____    ______ ____
ROOT
ATOM      1  C   UNL     1       7.167   4.949  14.770  0.00  0.00    +0.000 C 
ATOM      2  C   UNL     1       5.963   5.234  15.618  0.00  0.00    +0.000 A 
ATOM      3  C   UNL     1       5.496   6.537  15.798  0.00  0.00    +0.000 A 
ATOM      4  C   UNL     1       4.358   6.804  16.570  0.00  0.00    +0.000 A 
ATOM      5  C   UNL     1       3.680   5.726  17.167  0.00  0.00    +0.000 A 
ATOM      6  C   UNL     1       4.142   4.413  17.020  0.00  0.00    +0.000 A 
ATOM      7  C   UNL     1       5.295   4.171  16.243  0.00  0.00    +0.000 A 
ATOM      8  C   UNL     1       3.254   3.571  17.738  0.00  0.00    +0.000 A 
ATOM      9  C   UNL     1       2.244   4.364  18.250  0.00  0.00    +0.000 A 
ATOM     10  N   UNL     1       2.541   5.673  17.958  0.00  0.00    +0.000 N 
ATOM     11  C   UNL     1       1.069   3.866  19.024  0.00  0.00    +0.000 C 
ATOM     12  C   UNL     1       0.964   2.333  18.907  0.00  0.00    +0.000 C 
ATOM     13  C   UNL     1       2.335   1.646  19.031  0.00  0.00    +0.000 C 
ATOM     14  C   UNL     1       3.292   2.091  17.911  0.00  0.00    +0.000 C 
ENDROOT
BRANCH  10  15
ATOM     15  C   UNL     1       1.739   6.832  18.342  0.00  0.00    +0.000 C 
BRANCH  15  16
ATOM     16  C   UNL     1       1.917   7.236  19.813  0.00  0.00    +0.000 C 
BRANCH  16  17
ATOM     17  O   UNL     1       3.056   6.619  20.414  0.00  0.00    +0.000 OA
ATOM     18  H   UNL     1       2.737   5.933  21.021  0.00  0.00    +0.000 HD
ENDBRANCH  16  17
BRANCH  16  19
ATOM     19  C   UNL     1       1.962   8.769  20.058  0.00  0.00    +0.000 C 
BRANCH  19  20
ATOM     20  N   UNL     1       0.977   9.454  20.894  0.00  0.00    +0.000 NA
ATOM     21  C   UNL     1       0.284   8.692  21.915  0.00  0.00    +0.000 C 
ATOM     22  C   UNL     1      -0.091   9.580  23.099  0.00  0.00    +0.000 C 
ATOM     23  C   UNL     1      -0.898  10.785  22.639  0.00  0.00    +0.000 C 
ATOM     24  C   UNL     1      -0.129  11.546  21.562  0.00  0.00    +0.000 C 
ATOM     25  C   UNL     1       0.297  10.646  20.378  0.00  0.00    +0.000 C 
ATOM     26  C   UNL     1      -0.910  10.367  19.478  0.00  0.00    +0.000 C 
ENDBRANCH  19  20
ENDBRANCH  16  19
ENDBRANCH  15  16
ENDBRANCH  10  15
TORSDOF 5
ENDMDL
