MODEL 1
REMARK VINA RESULT:      -8.2      0.000      0.000
REMARK  Name = 
REMARK  6 active torsions:
REMARK  status: ('A' for Active; 'I' for Inactive)
REMARK    1  A    between atoms: C_1  and  C_2
REMARK    2  A    between atoms: C_2  and  C_3
REMARK    3  A    between atoms: N_5  and  C_6
REMARK    4  A    between atoms: C_6  and  C_7
REMARK    5  A    between atoms: C_15  and  C_17
REMARK    6  A    between atoms: C_17  and  C_18
REMARK                            x       y       z     vdW  Elec       q    Type
REMARK                         _______ _______ _______ _____ _____    ______ ____
ROOT
ATOM      1  C   UNL     1       4.544   2.869  20.342  0.00  0.00    +0.000 C 
ATOM      2  C   UNL     1       3.796   2.910  19.013  0.00  0.00    +0.000 C 
ATOM      3  C   UNL     1       3.333   1.466  18.638  0.00  0.00    +0.000 C 
ATOM      4  C   UNL     1       1.939   2.027  18.386  0.00  0.00    +0.000 C 
ATOM      5  N   UNL     1       2.360   3.206  19.129  0.00  0.00    +0.000 N 
ATOM      6  C   UNL     1       1.543   4.082  19.786  0.00  0.00    +0.000 C 
ATOM      7  O   UNL     1       0.323   3.887  19.804  0.00  0.00    +0.000 OA
ENDROOT
BRANCH   2   8
ATOM      8  C   UNL     1       4.612   3.641  17.874  0.00  0.00    +0.000 C 
ATOM      9  O   UNL     1       4.103   3.992  16.803  0.00  0.00    +0.000 OA
ATOM     10  N   UNL     1       5.957   3.856  18.115  0.00  0.00    +0.000 N 
ATOM     11  H   UNL     1       6.410   3.445  18.919  0.00  0.00    +0.000 HD
BRANCH  10  12
ATOM     12  C   UNL     1       6.801   4.419  17.085  0.00  0.00    +0.000 C 
BRANCH  12  13
ATOM     13  C   UNL     1       7.237   5.789  17.487  0.00  0.00    +0.000 A 
ATOM     14  C   UNL     1       7.173   6.959  16.755  0.00  0.00    +0.000 A 
ATOM     15  C   UNL     1       7.773   8.059  17.433  0.00  0.00    +0.000 A 
ATOM     16  C   UNL     1       8.268   7.695  18.665  0.00  0.00    +0.000 A 
ATOM     17  S   UNL     1       7.990   6.043  19.006  0.00  0.00    +0.000 S 
ENDBRANCH  12  13
ENDBRANCH  10  12
ENDBRANCH   2   8
BRANCH   6  18
ATOM     18  C   UNL     1       2.162   5.275  20.501  0.00  0.00    +0.000 C 
BRANCH  18  19
ATOM     19  C   UNL     1       2.168   6.602  19.748  0.00  0.00    +0.000 A 
ATOM     20  C   UNL     1       2.806   6.703  18.498  0.00  0.00    +0.000 A 
ATOM     21  C   UNL     1       2.839   7.902  17.795  0.00  0.00    +0.000 A 
ATOM     22  C   UNL     1       2.216   9.028  18.314  0.00  0.00    +0.000 A 
ATOM     23  C   UNL     1       1.521   8.962  19.528  0.00  0.00    +0.000 A 
ATOM     24  C   UNL     1       0.864  10.108  20.002  0.00  0.00    +0.000 A 
ATOM     25  C   UNL     1       0.131  10.077  21.184  0.00  0.00    +0.000 A 
ATOM     26  C   UNL     1       0.044   8.897  21.904  0.00  0.00    +0.000 A 
ATOM     27  C   UNL     1       0.702   7.748  21.450  0.00  0.00    +0.000 A 
ATOM     28  C   UNL     1       1.468   7.743  20.256  0.00  0.00    +0.000 A 
ENDBRANCH  18  19
ENDBRANCH   6  18
TORSDOF 5
ENDMDL
MODEL 2
REMARK VINA RESULT:      -8.1      2.170      4.854
REMARK  Name = 
REMARK  6 active torsions:
REMARK  status: ('A' for Active; 'I' for Inactive)
REMARK    1  A    between atoms: C_1  and  C_2
REMARK    2  A    between atoms: C_2  and  C_3
REMARK    3  A    between atoms: N_5  and  C_6
REMARK    4  A    between atoms: C_6  and  C_7
REMARK    5  A    between atoms: C_15  and  C_17
REMARK    6  A    between atoms: C_17  and  C_18
REMARK                            x       y       z     vdW  Elec       q    Type
REMARK                         _______ _______ _______ _____ _____    ______ ____
ROOT
ATOM      1  C   UNL     1       4.927   4.314  15.631  0.00  0.00    +0.000 C 
ATOM      2  C   UNL     1       5.673   4.499  16.950  0.00  0.00    +0.000 C 
ATOM      3  C   UNL     1       7.209   4.385  16.694  0.00  0.00    +0.000 C 
ATOM      4  C   UNL     1       7.390   5.683  17.472  0.00  0.00    +0.000 C 
ATOM      5  N   UNL     1       5.960   5.898  17.298  0.00  0.00    +0.000 N 
ATOM      6  C   UNL     1       5.316   7.104  17.321  0.00  0.00    +0.000 C 
ATOM      7  O   UNL     1       5.965   8.143  17.476  0.00  0.00    +0.000 OA
ENDROOT
BRANCH   2   8
ATOM      8  C   UNL     1       5.138   3.548  18.093  0.00  0.00    +0.000 C 
ATOM      9  O   UNL     1       5.520   3.627  19.267  0.00  0.00    +0.000 OA
ATOM     10  N   UNL     1       4.224   2.580  17.718  0.00  0.00    +0.000 N 
ATOM     11  H   UNL     1       4.017   2.414  16.743  0.00  0.00    +0.000 HD
BRANCH  10  12
ATOM     12  C   UNL     1       3.765   1.600  18.676  0.00  0.00    +0.000 C 
BRANCH  12  13
ATOM     13  C   UNL     1       2.605   2.147  19.439  0.00  0.00    +0.000 A 
ATOM     14  C   UNL     1       1.373   2.547  18.959  0.00  0.00    +0.000 A 
ATOM     15  C   UNL     1       0.548   3.108  19.975  0.00  0.00    +0.000 A 
ATOM     16  C   UNL     1       1.173   3.110  21.202  0.00  0.00    +0.000 A 
ATOM     17  S   UNL     1       2.736   2.420  21.127  0.00  0.00    +0.000 S 
ENDBRANCH  12  13
ENDBRANCH  10  12
ENDBRANCH   2   8
BRANCH   6  18
ATOM     18  C   UNL     1       3.805   7.136  17.135  0.00  0.00    +0.000 C 
BRANCH  18  19
ATOM     19  C   UNL     1       2.957   7.224  18.400  0.00  0.00    +0.000 A 
ATOM     20  C   UNL     1       2.983   6.180  19.343  0.00  0.00    +0.000 A 
ATOM     21  C   UNL     1       2.212   6.227  20.499  0.00  0.00    +0.000 A 
ATOM     22  C   UNL     1       1.408   7.329  20.753  0.00  0.00    +0.000 A 
ATOM     23  C   UNL     1       1.391   8.417  19.871  0.00  0.00    +0.000 A 
ATOM     24  C   UNL     1       0.601   9.535  20.181  0.00  0.00    +0.000 A 
ATOM     25  C   UNL     1       0.584  10.653  19.352  0.00  0.00    +0.000 A 
ATOM     26  C   UNL     1       1.361  10.666  18.205  0.00  0.00    +0.000 A 
ATOM     27  C   UNL     1       2.146   9.554  17.876  0.00  0.00    +0.000 A 
ATOM     28  C   UNL     1       2.181   8.392  18.690  0.00  0.00    +0.000 A 
ENDBRANCH  18  19
ENDBRANCH   6  18
TORSDOF 5
ENDMDL
MODEL 3
REMARK VINA RESULT:      -7.9      2.619      6.561
REMARK  Name = 
REMARK  6 active torsions:
REMARK  status: ('A' for Active; 'I' for Inactive)
REMARK    1  A    between atoms: C_1  and  C_2
REMARK    2  A    between atoms: C_2  and  C_3
REMARK    3  A    between atoms: N_5  and  C_6
REMARK    4  A    between atoms: C_6  and  C_7
REMARK    5  A    between atoms: C_15  and  C_17
REMARK    6  A    between atoms: C_17  and  C_18
REMARK                            x       y       z     vdW  Elec       q    Type
REMARK                         _______ _______ _______ _____ _____    ______ ____
ROOT
ATOM      1  C   UNL     1       1.161   4.003  18.285  0.00  0.00    +0.000 C 
ATOM      2  C   UNL     1       1.926   4.432  19.534  0.00  0.00    +0.000 C 
ATOM      3  C   UNL     1       1.146   3.963  20.803  0.00  0.00    +0.000 C 
ATOM      4  C   UNL     1       2.447   3.371  21.329  0.00  0.00    +0.000 C 
ATOM      5  N   UNL     1       2.961   3.483  19.971  0.00  0.00    +0.000 N 
ATOM      6  C   UNL     1       3.971   2.741  19.425  0.00  0.00    +0.000 C 
ATOM      7  O   UNL     1       4.517   1.861  20.097  0.00  0.00    +0.000 OA
ENDROOT
BRANCH   2   8
ATOM      8  C   UNL     1       2.287   5.970  19.532  0.00  0.00    +0.000 C 
ATOM      9  O   UNL     1       3.085   6.472  18.731  0.00  0.00    +0.000 OA
ATOM     10  N   UNL     1       1.680   6.751  20.499  0.00  0.00    +0.000 N 
ATOM     11  H   UNL     1       1.144   6.328  21.243  0.00  0.00    +0.000 HD
BRANCH  10  12
ATOM     12  C   UNL     1       2.035   8.146  20.638  0.00  0.00    +0.000 C 
BRANCH  12  13
ATOM     13  C   UNL     1       1.014   8.995  19.955  0.00  0.00    +0.000 A 
ATOM     14  C   UNL     1       0.960   9.371  18.627  0.00  0.00    +0.000 A 
ATOM     15  C   UNL     1      -0.114  10.268  18.359  0.00  0.00    +0.000 A 
ATOM     16  C   UNL     1      -0.851  10.539  19.490  0.00  0.00    +0.000 A 
ATOM     17  S   UNL     1      -0.261   9.700  20.858  0.00  0.00    +0.000 S 
ENDBRANCH  12  13
ENDBRANCH  10  12
ENDBRANCH   2   8
BRANCH   6  18
ATOM     18  C   UNL     1       4.386   3.009  17.985  0.00  0.00    +0.000 C 
BRANCH  18  19
ATOM     19  C   UNL     1       5.439   4.089  17.762  0.00  0.00    +0.000 A 
ATOM     20  C   UNL     1       5.951   4.815  18.853  0.00  0.00    +0.000 A 
ATOM     21  C   UNL     1       6.901   5.815  18.679  0.00  0.00    +0.000 A 
ATOM     22  C   UNL     1       7.382   6.101  17.409  0.00  0.00    +0.000 A 
ATOM     23  C   UNL     1       6.944   5.368  16.298  0.00  0.00    +0.000 A 
ATOM     24  C   UNL     1       7.484   5.654  15.035  0.00  0.00    +0.000 A 
ATOM     25  C   UNL     1       7.105   4.925  13.912  0.00  0.00    +0.000 A 
ATOM     26  C   UNL     1       6.184   3.898  14.041  0.00  0.00    +0.000 A 
ATOM     27  C   UNL     1       5.628   3.608  15.293  0.00  0.00    +0.000 A 
ATOM     28  C   UNL     1       5.981   4.336  16.459  0.00  0.00    +0.000 A 
ENDBRANCH  18  19
ENDBRANCH   6  18
TORSDOF 5
ENDMDL
MODEL 4
REMARK VINA RESULT:      -7.9      2.597      6.701
REMARK  Name = 
REMARK  6 active torsions:
REMARK  status: ('A' for Active; 'I' for Inactive)
REMARK    1  A    between atoms: C_1  and  C_2
REMARK    2  A    between atoms: C_2  and  C_3
REMARK    3  A    between atoms: N_5  and  C_6
REMARK    4  A    between atoms: C_6  and  C_7
REMARK    5  A    between atoms: C_15  and  C_17
REMARK    6  A    between atoms: C_17  and  C_18
REMARK                            x       y       z     vdW  Elec       q    Type
REMARK                         _______ _______ _______ _____ _____    ______ ____
ROOT
ATOM      1  C   UNL     1       1.286   3.951  18.164  0.00  0.00    +0.000 C 
ATOM      2  C   UNL     1       1.914   4.590  19.399  0.00  0.00    +0.000 C 
ATOM      3  C   UNL     1       1.020   4.293  20.645  0.00  0.00    +0.000 C 
ATOM      4  C   UNL     1       2.273   3.833  21.379  0.00  0.00    +0.000 C 
ATOM      5  N   UNL     1       2.918   3.756  20.075  0.00  0.00    +0.000 N 
ATOM      6  C   UNL     1       3.992   2.975  19.750  0.00  0.00    +0.000 C 
ATOM      7  O   UNL     1       4.486   2.226  20.600  0.00  0.00    +0.000 OA
ENDROOT
BRANCH   2   8
ATOM      8  C   UNL     1       2.243   6.122  19.194  0.00  0.00    +0.000 C 
ATOM      9  O   UNL     1       3.178   6.520  18.488  0.00  0.00    +0.000 OA
ATOM     10  N   UNL     1       1.442   7.025  19.870  0.00  0.00    +0.000 N 
ATOM     11  H   UNL     1       0.774   6.708  20.558  0.00  0.00    +0.000 HD
BRANCH  10  12
ATOM     12  C   UNL     1       1.740   8.439  19.826  0.00  0.00    +0.000 C 
BRANCH  12  13
ATOM     13  C   UNL     1       0.990   9.144  20.907  0.00  0.00    +0.000 A 
ATOM     14  C   UNL     1       0.878   8.798  22.240  0.00  0.00    +0.000 A 
ATOM     15  C   UNL     1      -0.002   9.660  22.954  0.00  0.00    +0.000 A 
ATOM     16  C   UNL     1      -0.526  10.644  22.146  0.00  0.00    +0.000 A 
ATOM     17  S   UNL     1       0.058  10.536  20.543  0.00  0.00    +0.000 S 
ENDBRANCH  12  13
ENDBRANCH  10  12
ENDBRANCH   2   8
BRANCH   6  18
ATOM     18  C   UNL     1       4.544   3.034  18.333  0.00  0.00    +0.000 C 
BRANCH  18  19
ATOM     19  C   UNL     1       5.556   4.136  18.034  0.00  0.00    +0.000 A 
ATOM     20  C   UNL     1       6.098   4.902  19.082  0.00  0.00    +0.000 A 
ATOM     21  C   UNL     1       7.013   5.920  18.839  0.00  0.00    +0.000 A 
ATOM     22  C   UNL     1       7.426   6.187  17.541  0.00  0.00    +0.000 A 
ATOM     23  C   UNL     1       6.956   5.415  16.471  0.00  0.00    +0.000 A 
ATOM     24  C   UNL     1       7.429   5.683  15.177  0.00  0.00    +0.000 A 
ATOM     25  C   UNL     1       7.018   4.916  14.091  0.00  0.00    +0.000 A 
ATOM     26  C   UNL     1       6.131   3.870  14.288  0.00  0.00    +0.000 A 
ATOM     27  C   UNL     1       5.643   3.597  15.571  0.00  0.00    +0.000 A 
ATOM     28  C   UNL     1       6.029   4.363  16.702  0.00  0.00    +0.000 A 
ENDBRANCH  18  19
ENDBRANCH   6  18
TORSDOF 5
ENDMDL
MODEL 5
REMARK VINA RESULT:      -7.8      2.302      6.036
REMARK  Name = 
REMARK  6 active torsions:
REMARK  status: ('A' for Active; 'I' for Inactive)
REMARK    1  A    between atoms: C_1  and  C_2
REMARK    2  A    between atoms: C_2  and  C_3
REMARK    3  A    between atoms: N_5  and  C_6
REMARK    4  A    between atoms: C_6  and  C_7
REMARK    5  A    between atoms: C_15  and  C_17
REMARK    6  A    between atoms: C_17  and  C_18
REMARK                            x       y       z     vdW  Elec       q    Type
REMARK                         _______ _______ _______ _____ _____    ______ ____
ROOT
ATOM      1  C   UNL     1       0.930   2.673  19.038  0.00  0.00    +0.000 C 
ATOM      2  C   UNL     1       1.612   3.257  20.272  0.00  0.00    +0.000 C 
ATOM      3  C   UNL     1       1.374   2.308  21.489  0.00  0.00    +0.000 C 
ATOM      4  C   UNL     1       2.870   2.366  21.770  0.00  0.00    +0.000 C 
ATOM      5  N   UNL     1       3.028   2.888  20.420  0.00  0.00    +0.000 N 
ATOM      6  C   UNL     1       4.155   2.811  19.650  0.00  0.00    +0.000 C 
ATOM      7  O   UNL     1       5.156   2.232  20.084  0.00  0.00    +0.000 OA
ENDROOT
BRANCH   2   8
ATOM      8  C   UNL     1       1.209   4.761  20.539  0.00  0.00    +0.000 C 
ATOM      9  O   UNL     1       0.036   5.156  20.518  0.00  0.00    +0.000 OA
ATOM     10  N   UNL     1       2.242   5.648  20.779  0.00  0.00    +0.000 N 
ATOM     11  H   UNL     1       3.205   5.365  20.655  0.00  0.00    +0.000 HD
BRANCH  10  12
ATOM     12  C   UNL     1       1.972   7.060  20.926  0.00  0.00    +0.000 C 
BRANCH  12  13
ATOM     13  C   UNL     1       2.079   7.732  19.597  0.00  0.00    +0.000 A 
ATOM     14  C   UNL     1       2.795   7.330  18.486  0.00  0.00    +0.000 A 
ATOM     15  C   UNL     1       2.735   8.279  17.426  0.00  0.00    +0.000 A 
ATOM     16  C   UNL     1       1.966   9.372  17.758  0.00  0.00    +0.000 A 
ATOM     17  S   UNL     1       1.308   9.240  19.330  0.00  0.00    +0.000 S 
ENDBRANCH  12  13
ENDBRANCH  10  12
ENDBRANCH   2   8
BRANCH   6  18
ATOM     18  C   UNL     1       4.141   3.429  18.259  0.00  0.00    +0.000 C 
BRANCH  18  19
ATOM     19  C   UNL     1       5.275   4.392  17.922  0.00  0.00    +0.000 A 
ATOM     20  C   UNL     1       5.877   5.158  18.937  0.00  0.00    +0.000 A 
ATOM     21  C   UNL     1       6.904   6.053  18.658  0.00  0.00    +0.000 A 
ATOM     22  C   UNL     1       7.372   6.190  17.359  0.00  0.00    +0.000 A 
ATOM     23  C   UNL     1       6.842   5.408  16.324  0.00  0.00    +0.000 A 
ATOM     24  C   UNL     1       7.368   5.540  15.031  0.00  0.00    +0.000 A 
ATOM     25  C   UNL     1       6.897   4.756  13.982  0.00  0.00    +0.000 A 
ATOM     26  C   UNL     1       5.896   3.828  14.217  0.00  0.00    +0.000 A 
ATOM     27  C   UNL     1       5.353   3.692  15.500  0.00  0.00    +0.000 A 
ATOM     28  C   UNL     1       5.799   4.481  16.592  0.00  0.00    +0.000 A 
ENDBRANCH  18  19
ENDBRANCH   6  18
TORSDOF 5
ENDMDL
MODEL 6
REMARK VINA RESULT:      -7.6      2.612      6.601
REMARK  Name = 
REMARK  6 active torsions:
REMARK  status: ('A' for Active; 'I' for Inactive)
REMARK    1  A    between atoms: C_1  and  C_2
REMARK    2  A    between atoms: C_2  and  C_3
REMARK    3  A    between atoms: N_5  and  C_6
REMARK    4  A    between atoms: C_6  and  C_7
REMARK    5  A    between atoms: C_15  and  C_17
REMARK    6  A    between atoms: C_17  and  C_18
REMARK                            x       y       z     vdW  Elec       q    Type
REMARK                         _______ _______ _______ _____ _____    ______ ____
ROOT
ATOM      1  C   UNL     1       1.252   4.271  17.722  0.00  0.00    +0.000 C 
ATOM      2  C   UNL     1       1.986   4.617  19.015  0.00  0.00    +0.000 C 
ATOM      3  C   UNL     1       1.082   4.250  20.234  0.00  0.00    +0.000 C 
ATOM      4  C   UNL     1       2.272   3.515  20.838  0.00  0.00    +0.000 C 
ATOM      5  N   UNL     1       2.875   3.557  19.514  0.00  0.00    +0.000 N 
ATOM      6  C   UNL     1       3.823   2.699  19.030  0.00  0.00    +0.000 C 
ATOM      7  O   UNL     1       4.222   1.766  19.734  0.00  0.00    +0.000 OA
ENDROOT
BRANCH   2   8
ATOM      8  C   UNL     1       2.523   6.102  19.034  0.00  0.00    +0.000 C 
ATOM      9  O   UNL     1       3.442   6.475  19.773  0.00  0.00    +0.000 OA
ATOM     10  N   UNL     1       1.893   7.001  18.192  0.00  0.00    +0.000 N 
ATOM     11  H   UNL     1       1.052   6.742  17.695  0.00  0.00    +0.000 HD
BRANCH  10  12
ATOM     12  C   UNL     1       2.247   8.402  18.225  0.00  0.00    +0.000 C 
BRANCH  12  13
ATOM     13  C   UNL     1       1.257   9.151  19.054  0.00  0.00    +0.000 A 
ATOM     14  C   UNL     1       1.090   9.124  20.425  0.00  0.00    +0.000 A 
ATOM     15  C   UNL     1      -0.024   9.901  20.853  0.00  0.00    +0.000 A 
ATOM     16  C   UNL     1      -0.668  10.503  19.796  0.00  0.00    +0.000 A 
ATOM     17  S   UNL     1       0.083  10.149  18.301  0.00  0.00    +0.000 S 
ENDBRANCH  12  13
ENDBRANCH  10  12
ENDBRANCH   2   8
BRANCH   6  18
ATOM     18  C   UNL     1       4.353   2.906  17.618  0.00  0.00    +0.000 C 
BRANCH  18  19
ATOM     19  C   UNL     1       5.418   3.982  17.433  0.00  0.00    +0.000 A 
ATOM     20  C   UNL     1       5.927   4.673  18.547  0.00  0.00    +0.000 A 
ATOM     21  C   UNL     1       6.889   5.667  18.408  0.00  0.00    +0.000 A 
ATOM     22  C   UNL     1       7.384   5.982  17.151  0.00  0.00    +0.000 A 
ATOM     23  C   UNL     1       6.949   5.283  16.017  0.00  0.00    +0.000 A 
ATOM     24  C   UNL     1       7.504   5.598  14.767  0.00  0.00    +0.000 A 
ATOM     25  C   UNL     1       7.128   4.903  13.622  0.00  0.00    +0.000 A 
ATOM     26  C   UNL     1       6.195   3.883  13.715  0.00  0.00    +0.000 A 
ATOM     27  C   UNL     1       5.625   3.564  14.953  0.00  0.00    +0.000 A 
ATOM     28  C   UNL     1       5.974   4.257  16.142  0.00  0.00    +0.000 A 
ENDBRANCH  18  19
ENDBRANCH   6  18
TORSDOF 5
ENDMDL
MODEL 7
REMARK VINA RESULT:      -7.5      2.372      2.899
REMARK  Name = 
REMARK  6 active torsions:
REMARK  status: ('A' for Active; 'I' for Inactive)
REMARK    1  A    between atoms: C_1  and  C_2
REMARK    2  A    between atoms: C_2  and  C_3
REMARK    3  A    between atoms: N_5  and  C_6
REMARK    4  A    between atoms: C_6  and  C_7
REMARK    5  A    between atoms: C_15  and  C_17
REMARK    6  A    between atoms: C_17  and  C_18
REMARK                            x       y       z     vdW  Elec       q    Type
REMARK                         _______ _______ _______ _____ _____    ______ ____
ROOT
ATOM      1  C   UNL     1       5.252   4.235  19.447  0.00  0.00    +0.000 C 
ATOM      2  C   UNL     1       4.467   4.305  18.140  0.00  0.00    +0.000 C 
ATOM      3  C   UNL     1       4.213   2.856  17.614  0.00  0.00    +0.000 C 
ATOM      4  C   UNL     1       2.744   3.223  17.444  0.00  0.00    +0.000 C 
ATOM      5  N   UNL     1       3.007   4.366  18.307  0.00  0.00    +0.000 N 
ATOM      6  C   UNL     1       2.088   5.033  19.069  0.00  0.00    +0.000 C 
ATOM      7  O   UNL     1       0.912   4.655  19.081  0.00  0.00    +0.000 OA
ENDROOT
BRANCH   2   8
ATOM      8  C   UNL     1       5.131   5.268  17.079  0.00  0.00    +0.000 C 
ATOM      9  O   UNL     1       4.635   6.355  16.755  0.00  0.00    +0.000 OA
ATOM     10  N   UNL     1       6.304   4.830  16.491  0.00  0.00    +0.000 N 
ATOM     11  H   UNL     1       6.636   3.888  16.640  0.00  0.00    +0.000 HD
BRANCH  10  12
ATOM     12  C   UNL     1       6.920   5.598  15.433  0.00  0.00    +0.000 C 
BRANCH  12  13
ATOM     13  C   UNL     1       6.842   4.838  14.150  0.00  0.00    +0.000 A 
ATOM     14  C   UNL     1       7.648   4.953  13.034  0.00  0.00    +0.000 A 
ATOM     15  C   UNL     1       7.212   4.126  11.960  0.00  0.00    +0.000 A 
ATOM     16  C   UNL     1       6.092   3.398  12.293  0.00  0.00    +0.000 A 
ATOM     17  S   UNL     1       5.587   3.698  13.899  0.00  0.00    +0.000 S 
ENDBRANCH  12  13
ENDBRANCH  10  12
ENDBRANCH   2   8
BRANCH   6  18
ATOM     18  C   UNL     1       2.545   6.222  19.903  0.00  0.00    +0.000 C 
BRANCH  18  19
ATOM     19  C   UNL     1       2.083   7.602  19.445  0.00  0.00    +0.000 A 
ATOM     20  C   UNL     1       2.283   8.009  18.113  0.00  0.00    +0.000 A 
ATOM     21  C   UNL     1       1.885   9.265  17.670  0.00  0.00    +0.000 A 
ATOM     22  C   UNL     1       1.256  10.141  18.544  0.00  0.00    +0.000 A 
ATOM     23  C   UNL     1       0.986   9.760  19.864  0.00  0.00    +0.000 A 
ATOM     24  C   UNL     1       0.308  10.654  20.707  0.00  0.00    +0.000 A 
ATOM     25  C   UNL     1      -0.014  10.302  22.014  0.00  0.00    +0.000 A 
ATOM     26  C   UNL     1       0.334   9.049  22.491  0.00  0.00    +0.000 A 
ATOM     27  C   UNL     1       1.020   8.149  21.665  0.00  0.00    +0.000 A 
ATOM     28  C   UNL     1       1.376   8.476  20.331  0.00  0.00    +0.000 A 
ENDBRANCH  18  19
ENDBRANCH   6  18
TORSDOF 5
ENDMDL
MODEL 8
REMARK VINA RESULT:      -7.4      4.520      8.062
REMARK  Name = 
REMARK  6 active torsions:
REMARK  status: ('A' for Active; 'I' for Inactive)
REMARK    1  A    between atoms: C_1  and  C_2
REMARK    2  A    between atoms: C_2  and  C_3
REMARK    3  A    between atoms: N_5  and  C_6
REMARK    4  A    between atoms: C_6  and  C_7
REMARK    5  A    between atoms: C_15  and  C_17
REMARK    6  A    between atoms: C_17  and  C_18
REMARK                            x       y       z     vdW  Elec       q    Type
REMARK                         _______ _______ _______ _____ _____    ______ ____
ROOT
ATOM      1  C   UNL     1      -0.174   9.810  17.943  0.00  0.00    +0.000 C 
ATOM      2  C   UNL     1       0.643  10.206  19.170  0.00  0.00    +0.000 C 
ATOM      3  C   UNL     1      -0.311  10.361  20.396  0.00  0.00    +0.000 C 
ATOM      4  C   UNL     1       0.640   9.475  21.191  0.00  0.00    +0.000 C 
ATOM      5  N   UNL     1       1.215   9.075  19.914  0.00  0.00    +0.000 N 
ATOM      6  C   UNL     1       1.886   7.912  19.659  0.00  0.00    +0.000 C 
ATOM      7  O   UNL     1       2.024   7.074  20.556  0.00  0.00    +0.000 OA
ENDROOT
BRANCH   2   8
ATOM      8  C   UNL     1       1.565  11.462  18.909  0.00  0.00    +0.000 C 
ATOM      9  O   UNL     1       2.438  11.485  18.033  0.00  0.00    +0.000 OA
ATOM     10  N   UNL     1       1.374  12.555  19.736  0.00  0.00    +0.000 N 
ATOM     11  H   UNL     1       0.769  12.493  20.543  0.00  0.00    +0.000 HD
BRANCH  10  12
ATOM     12  C   UNL     1       2.246  13.704  19.639  0.00  0.00    +0.000 C 
BRANCH  12  13
ATOM     13  C   UNL     1       1.481  14.872  19.110  0.00  0.00    +0.000 A 
ATOM     14  C   UNL     1       1.970  16.060  18.602  0.00  0.00    +0.000 A 
ATOM     15  C   UNL     1       0.934  16.982  18.280  0.00  0.00    +0.000 A 
ATOM     16  C   UNL     1      -0.315  16.465  18.545  0.00  0.00    +0.000 A 
ATOM     17  S   UNL     1      -0.233  14.871  19.157  0.00  0.00    +0.000 S 
ENDBRANCH  12  13
ENDBRANCH  10  12
ENDBRANCH   2   8
BRANCH   6  18
ATOM     18  C   UNL     1       2.434   7.668  18.260  0.00  0.00    +0.000 C 
BRANCH  18  19
ATOM     19  C   UNL     1       2.764   6.226  17.890  0.00  0.00    +0.000 A 
ATOM     20  C   UNL     1       1.766   5.235  17.946  0.00  0.00    +0.000 A 
ATOM     21  C   UNL     1       2.040   3.910  17.628  0.00  0.00    +0.000 A 
ATOM     22  C   UNL     1       3.316   3.543  17.225  0.00  0.00    +0.000 A 
ATOM     23  C   UNL     1       4.329   4.503  17.101  0.00  0.00    +0.000 A 
ATOM     24  C   UNL     1       5.595   4.104  16.648  0.00  0.00    +0.000 A 
ATOM     25  C   UNL     1       6.619   5.031  16.474  0.00  0.00    +0.000 A 
ATOM     26  C   UNL     1       6.384   6.369  16.748  0.00  0.00    +0.000 A 
ATOM     27  C   UNL     1       5.129   6.781  17.211  0.00  0.00    +0.000 A 
ATOM     28  C   UNL     1       4.064   5.864  17.412  0.00  0.00    +0.000 A 
ENDBRANCH  18  19
ENDBRANCH   6  18
TORSDOF 5
ENDMDL
MODEL 9
REMARK VINA RESULT:      -7.4      3.483      5.710
REMARK  Name = 
REMARK  6 active torsions:
REMARK  status: ('A' for Active; 'I' for Inactive)
REMARK    1  A    between atoms: C_1  and  C_2
REMARK    2  A    between atoms: C_2  and  C_3
REMARK    3  A    between atoms: N_5  and  C_6
REMARK    4  A    between atoms: C_6  and  C_7
REMARK    5  A    between atoms: C_15  and  C_17
REMARK    6  A    between atoms: C_17  and  C_18
REMARK                            x       y       z     vdW  Elec       q    Type
REMARK                         _______ _______ _______ _____ _____    ______ ____
ROOT
ATOM      1  C   UNL     1       5.114   6.554  15.967  0.00  0.00    +0.000 C 
ATOM      2  C   UNL     1       6.422   5.821  16.252  0.00  0.00    +0.000 C 
ATOM      3  C   UNL     1       7.375   6.761  17.057  0.00  0.00    +0.000 C 
ATOM      4  C   UNL     1       7.592   5.622  18.045  0.00  0.00    +0.000 C 
ATOM      5  N   UNL     1       6.408   4.998  17.471  0.00  0.00    +0.000 N 
ATOM      6  C   UNL     1       5.592   4.092  18.088  0.00  0.00    +0.000 C 
ATOM      7  O   UNL     1       5.822   3.754  19.254  0.00  0.00    +0.000 OA
ENDROOT
BRANCH   2   8
ATOM      8  C   UNL     1       7.074   5.205  14.952  0.00  0.00    +0.000 C 
ATOM      9  O   UNL     1       8.089   5.674  14.422  0.00  0.00    +0.000 OA
ATOM     10  N   UNL     1       6.437   4.109  14.398  0.00  0.00    +0.000 N 
ATOM     11  H   UNL     1       5.533   3.811  14.736  0.00  0.00    +0.000 HD
BRANCH  10  12
ATOM     12  C   UNL     1       6.902   3.550  13.148  0.00  0.00    +0.000 C 
BRANCH  12  13
ATOM     13  C   UNL     1       5.737   3.283  12.253  0.00  0.00    +0.000 A 
ATOM     14  C   UNL     1       4.593   4.039  12.083  0.00  0.00    +0.000 A 
ATOM     15  C   UNL     1       3.654   3.418  11.212  0.00  0.00    +0.000 A 
ATOM     16  C   UNL     1       4.114   2.210  10.737  0.00  0.00    +0.000 A 
ATOM     17  S   UNL     1       5.677   1.843  11.325  0.00  0.00    +0.000 S 
ENDBRANCH  12  13
ENDBRANCH  10  12
ENDBRANCH   2   8
BRANCH   6  18
ATOM     18  C   UNL     1       4.401   3.531  17.324  0.00  0.00    +0.000 C 
BRANCH  18  19
ATOM     19  C   UNL     1       3.114   3.317  18.114  0.00  0.00    +0.000 A 
ATOM     20  C   UNL     1       2.491   2.056  18.123  0.00  0.00    +0.000 A 
ATOM     21  C   UNL     1       1.311   1.834  18.824  0.00  0.00    +0.000 A 
ATOM     22  C   UNL     1       0.733   2.864  19.553  0.00  0.00    +0.000 A 
ATOM     23  C   UNL     1       1.346   4.122  19.619  0.00  0.00    +0.000 A 
ATOM     24  C   UNL     1       0.758   5.127  20.402  0.00  0.00    +0.000 A 
ATOM     25  C   UNL     1       1.354   6.379  20.526  0.00  0.00    +0.000 A 
ATOM     26  C   UNL     1       2.547   6.637  19.871  0.00  0.00    +0.000 A 
ATOM     27  C   UNL     1       3.140   5.648  19.078  0.00  0.00    +0.000 A 
ATOM     28  C   UNL     1       2.558   4.364  18.918  0.00  0.00    +0.000 A 
ENDBRANCH  18  19
ENDBRANCH   6  18
TORSDOF 5
ENDMDL
