MODEL 1
REMARK VINA RESULT:      -7.9      0.000      0.000
REMARK  Name = 
REMARK  10 active torsions:
REMARK  status: ('A' for Active; 'I' for Inactive)
REMARK    1  A    between atoms: C_1  and  C_2
REMARK    2  A    between atoms: C_2  and  N_3
REMARK    3  A    between atoms: N_3  and  C_8
REMARK    4  A    between atoms: C_4  and  C_6
REMARK    5  A    between atoms: C_6  and  O_7
REMARK    6  A    between atoms: N_12  and  C_13
REMARK    7  A    between atoms: N_15  and  C_16
REMARK    8  A    between atoms: C_20  and  O_21
REMARK    9  A    between atoms: O_21  and  C_22
REMARK   10  A    between atoms: C_27  and  C_28
REMARK                            x       y       z     vdW  Elec       q    Type
REMARK                         _______ _______ _______ _____ _____    ______ ____
ROOT
ATOM      1  C   UNL     1      -0.904  11.832  19.870  0.00  0.00    +0.000 C 
ATOM      2  C   UNL     1      -0.050  11.057  20.886  0.00  0.00    +0.000 C 
ATOM      3  N   UNL     1       0.377   9.846  20.196  0.00  0.00    +0.000 N 
ATOM      4  C   UNL     1       1.205   8.861  20.753  0.00  0.00    +0.000 C 
ATOM      5  N   UNL     1       1.470   8.580  21.996  0.00  0.00    +0.000 NA
ATOM      6  N   UNL     1       1.852   8.162  19.744  0.00  0.00    +0.000 N 
ATOM      7  N   UNL     1      -0.358   9.655  19.042  0.00  0.00    +0.000 NA
ATOM      8  C   UNL     1      -1.149  10.681  18.899  0.00  0.00    +0.000 C 
ATOM      9  H   UNL     1       1.567   8.469  18.820  0.00  0.00    +0.000 HD
ENDROOT
BRANCH   6  10
ATOM     10  C   UNL     1       2.233   6.804  19.807  0.00  0.00    +0.000 A 
ATOM     11  C   UNL     1       1.591   5.888  20.653  0.00  0.00    +0.000 A 
ATOM     12  C   UNL     1       2.000   4.556  20.714  0.00  0.00    +0.000 A 
ATOM     13  C   UNL     1       3.055   4.117  19.921  0.00  0.00    +0.000 A 
ATOM     14  C   UNL     1       3.689   5.000  19.045  0.00  0.00    +0.000 A 
ATOM     15  C   UNL     1       3.279   6.339  18.989  0.00  0.00    +0.000 A 
BRANCH  14  16
ATOM     16  O   UNL     1       4.718   4.445  18.338  0.00  0.00    +0.000 OA
BRANCH  16  17
ATOM     17  C   UNL     1       4.432   4.108  16.993  0.00  0.00    +0.000 C 
ATOM     18  F   UNL     1       3.119   3.792  16.888  0.00  0.00    +0.000 F 
ATOM     19  F   UNL     1       4.625   5.228  16.249  0.00  0.00    +0.000 F 
ENDBRANCH  16  17
ENDBRANCH  14  16
ENDBRANCH   6  10
BRANCH   8  20
ATOM     20  C   UNL     1      -2.190  10.752  17.838  0.00  0.00    +0.000 A 
ATOM     21  C   UNL     1      -3.340  11.540  17.976  0.00  0.00    +0.000 A 
ATOM     22  C   UNL     1      -4.272  11.603  16.933  0.00  0.00    +0.000 A 
ATOM     23  C   UNL     1      -4.057  10.885  15.758  0.00  0.00    +0.000 A 
ATOM     24  C   UNL     1      -2.913  10.103  15.617  0.00  0.00    +0.000 A 
ATOM     25  C   UNL     1      -1.984  10.031  16.656  0.00  0.00    +0.000 A 
ENDBRANCH   8  20
BRANCH   1  26
ATOM     26  N   UNL     1      -0.234  13.052  19.331  0.00  0.00    +0.000 N 
ATOM     27  C   UNL     1      -0.807  14.319  19.540  0.00  0.00    +0.000 C 
ATOM     28  O   UNL     1      -0.498  15.315  18.883  0.00  0.00    +0.000 OA
BRANCH  26  30
ATOM     29  C   UNL     1       2.201  12.801  18.476  0.00  0.00    +0.000 C 
ATOM     30  C   UNL     1       0.705  12.855  18.210  0.00  0.00    +0.000 C 
ENDBRANCH  26  30
BRANCH  27  31
ATOM     31  C   UNL     1      -1.834  14.489  20.684  0.00  0.00    +0.000 C 
BRANCH  31  32
ATOM     32  O   UNL     1      -3.018  15.165  20.293  0.00  0.00    +0.000 OA
ATOM     33  H   UNL     1      -3.757  14.688  20.715  0.00  0.00    +0.000 HD
ENDBRANCH  31  32
ENDBRANCH  27  31
ENDBRANCH   1  26
BRANCH   5  34
ATOM     34  C   UNL     1       0.846   9.190  23.004  0.00  0.00    +0.000 C 
ATOM     35  N   UNL     1       0.288   9.711  23.870  0.00  0.00    +0.000 NA
ENDBRANCH   5  34
TORSDOF 9
ENDMDL
MODEL 2
REMARK VINA RESULT:      -7.8      1.692      2.287
REMARK  Name = 
REMARK  10 active torsions:
REMARK  status: ('A' for Active; 'I' for Inactive)
REMARK    1  A    between atoms: C_1  and  C_2
REMARK    2  A    between atoms: C_2  and  N_3
REMARK    3  A    between atoms: N_3  and  C_8
REMARK    4  A    between atoms: C_4  and  C_6
REMARK    5  A    between atoms: C_6  and  O_7
REMARK    6  A    between atoms: N_12  and  C_13
REMARK    7  A    between atoms: N_15  and  C_16
REMARK    8  A    between atoms: C_20  and  O_21
REMARK    9  A    between atoms: O_21  and  C_22
REMARK   10  A    between atoms: C_27  and  C_28
REMARK                            x       y       z     vdW  Elec       q    Type
REMARK                         _______ _______ _______ _____ _____    ______ ____
ROOT
ATOM      1  C   UNL     1      -1.341  12.147  20.159  0.00  0.00    +0.000 C 
ATOM      2  C   UNL     1      -0.374  11.324  21.025  0.00  0.00    +0.000 C 
ATOM      3  N   UNL     1       0.110  10.254  20.162  0.00  0.00    +0.000 N 
ATOM      4  C   UNL     1       1.044   9.281  20.548  0.00  0.00    +0.000 C 
ATOM      5  N   UNL     1       1.398   8.865  21.730  0.00  0.00    +0.000 NA
ATOM      6  N   UNL     1       1.689   8.776  19.427  0.00  0.00    +0.000 N 
ATOM      7  N   UNL     1      -0.668  10.151  19.026  0.00  0.00    +0.000 NA
ATOM      8  C   UNL     1      -1.545  11.114  19.055  0.00  0.00    +0.000 C 
ATOM      9  H   UNL     1       1.332   9.174  18.565  0.00  0.00    +0.000 HD
ENDROOT
BRANCH   6  10
ATOM     10  C   UNL     1       2.181   7.460  19.293  0.00  0.00    +0.000 A 
ATOM     11  C   UNL     1       2.856   7.029  18.141  0.00  0.00    +0.000 A 
ATOM     12  C   UNL     1       3.313   5.718  18.023  0.00  0.00    +0.000 A 
ATOM     13  C   UNL     1       3.110   4.816  19.062  0.00  0.00    +0.000 A 
ATOM     14  C   UNL     1       2.473   5.227  20.233  0.00  0.00    +0.000 A 
ATOM     15  C   UNL     1       2.009   6.545  20.347  0.00  0.00    +0.000 A 
BRANCH  14  16
ATOM     16  O   UNL     1       2.323   4.239  21.166  0.00  0.00    +0.000 OA
BRANCH  16  17
ATOM     17  C   UNL     1       1.435   3.192  20.819  0.00  0.00    +0.000 C 
ATOM     18  F   UNL     1       1.038   2.559  21.949  0.00  0.00    +0.000 F 
ATOM     19  F   UNL     1       0.327   3.768  20.284  0.00  0.00    +0.000 F 
ENDBRANCH  16  17
ENDBRANCH  14  16
ENDBRANCH   6  10
BRANCH   8  20
ATOM     20  C   UNL     1      -2.644  11.232  18.059  0.00  0.00    +0.000 A 
ATOM     21  C   UNL     1      -2.465  10.897  16.710  0.00  0.00    +0.000 A 
ATOM     22  C   UNL     1      -3.540  10.989  15.819  0.00  0.00    +0.000 A 
ATOM     23  C   UNL     1      -4.790  11.411  16.271  0.00  0.00    +0.000 A 
ATOM     24  C   UNL     1      -4.971  11.742  17.612  0.00  0.00    +0.000 A 
ATOM     25  C   UNL     1      -3.901  11.659  18.503  0.00  0.00    +0.000 A 
ENDBRANCH   8  20
BRANCH   1  26
ATOM     26  N   UNL     1      -0.801  13.480  19.759  0.00  0.00    +0.000 N 
ATOM     27  C   UNL     1      -1.359  14.654  20.294  0.00  0.00    +0.000 C 
ATOM     28  O   UNL     1      -1.191  15.769  19.796  0.00  0.00    +0.000 OA
BRANCH  26  30
ATOM     29  C   UNL     1       1.457  13.496  18.486  0.00  0.00    +0.000 C 
ATOM     30  C   UNL     1      -0.062  13.542  18.483  0.00  0.00    +0.000 C 
ENDBRANCH  26  30
BRANCH  27  31
ATOM     31  C   UNL     1      -2.181  14.555  21.602  0.00  0.00    +0.000 C 
BRANCH  31  32
ATOM     32  O   UNL     1      -3.213  15.522  21.702  0.00  0.00    +0.000 OA
ATOM     33  H   UNL     1      -3.821  15.352  20.959  0.00  0.00    +0.000 HD
ENDBRANCH  31  32
ENDBRANCH  27  31
ENDBRANCH   1  26
BRANCH   5  34
ATOM     34  C   UNL     1       0.782   9.284  22.835  0.00  0.00    +0.000 C 
ATOM     35  N   UNL     1       0.242   9.627  23.797  0.00  0.00    +0.000 NA
ENDBRANCH   5  34
TORSDOF 9
ENDMDL
MODEL 3
REMARK VINA RESULT:      -7.7      1.759      2.242
REMARK  Name = 
REMARK  10 active torsions:
REMARK  status: ('A' for Active; 'I' for Inactive)
REMARK    1  A    between atoms: C_1  and  C_2
REMARK    2  A    between atoms: C_2  and  N_3
REMARK    3  A    between atoms: N_3  and  C_8
REMARK    4  A    between atoms: C_4  and  C_6
REMARK    5  A    between atoms: C_6  and  O_7
REMARK    6  A    between atoms: N_12  and  C_13
REMARK    7  A    between atoms: N_15  and  C_16
REMARK    8  A    between atoms: C_20  and  O_21
REMARK    9  A    between atoms: O_21  and  C_22
REMARK   10  A    between atoms: C_27  and  C_28
REMARK                            x       y       z     vdW  Elec       q    Type
REMARK                         _______ _______ _______ _____ _____    ______ ____
ROOT
ATOM      1  C   UNL     1      -0.934  11.890  19.969  0.00  0.00    +0.000 C 
ATOM      2  C   UNL     1      -0.029  11.078  20.909  0.00  0.00    +0.000 C 
ATOM      3  N   UNL     1       0.393   9.915  20.137  0.00  0.00    +0.000 N 
ATOM      4  C   UNL     1       1.259   8.918  20.608  0.00  0.00    +0.000 C 
ATOM      5  N   UNL     1       1.576   8.574  21.823  0.00  0.00    +0.000 NA
ATOM      6  N   UNL     1       1.880   8.288  19.538  0.00  0.00    +0.000 N 
ATOM      7  N   UNL     1      -0.381   9.774  19.002  0.00  0.00    +0.000 NA
ATOM      8  C   UNL     1      -1.194  10.790  18.946  0.00  0.00    +0.000 C 
ATOM      9  H   UNL     1       1.556   8.640  18.644  0.00  0.00    +0.000 HD
ENDROOT
BRANCH   6  10
ATOM     10  C   UNL     1       2.288   6.937  19.512  0.00  0.00    +0.000 A 
ATOM     11  C   UNL     1       3.496   6.533  18.926  0.00  0.00    +0.000 A 
ATOM     12  C   UNL     1       3.867   5.190  18.893  0.00  0.00    +0.000 A 
ATOM     13  C   UNL     1       3.036   4.227  19.456  0.00  0.00    +0.000 A 
ATOM     14  C   UNL     1       1.844   4.604  20.077  0.00  0.00    +0.000 A 
ATOM     15  C   UNL     1       1.471   5.955  20.104  0.00  0.00    +0.000 A 
BRANCH  14  16
ATOM     16  O   UNL     1       1.116   3.560  20.573  0.00  0.00    +0.000 OA
BRANCH  16  17
ATOM     17  C   UNL     1       1.739   2.803  21.595  0.00  0.00    +0.000 C 
ATOM     18  F   UNL     1       2.448   3.638  22.391  0.00  0.00    +0.000 F 
ATOM     19  F   UNL     1       0.750   2.277  22.363  0.00  0.00    +0.000 F 
ENDBRANCH  16  17
ENDBRANCH  14  16
ENDBRANCH   6  10
BRANCH   8  20
ATOM     20  C   UNL     1      -2.275  10.899  17.928  0.00  0.00    +0.000 A 
ATOM     21  C   UNL     1      -3.461  11.603  18.175  0.00  0.00    +0.000 A 
ATOM     22  C   UNL     1      -4.432  11.709  17.172  0.00  0.00    +0.000 A 
ATOM     23  C   UNL     1      -4.221  11.116  15.928  0.00  0.00    +0.000 A 
ATOM     24  C   UNL     1      -3.042  10.417  15.680  0.00  0.00    +0.000 A 
ATOM     25  C   UNL     1      -2.074  10.303  16.678  0.00  0.00    +0.000 A 
ENDBRANCH   8  20
BRANCH   1  26
ATOM     26  N   UNL     1      -0.307  13.151  19.475  0.00  0.00    +0.000 N 
ATOM     27  C   UNL     1      -0.942  14.386  19.695  0.00  0.00    +0.000 C 
ATOM     28  O   UNL     1      -0.662  15.410  19.068  0.00  0.00    +0.000 OA
BRANCH  26  30
ATOM     29  C   UNL     1       2.158  13.111  18.673  0.00  0.00    +0.000 C 
ATOM     30  C   UNL     1       0.671  13.022  18.376  0.00  0.00    +0.000 C 
ENDBRANCH  26  30
BRANCH  27  31
ATOM     31  C   UNL     1      -2.007  14.483  20.814  0.00  0.00    +0.000 C 
BRANCH  31  32
ATOM     32  O   UNL     1      -3.182  15.175  20.425  0.00  0.00    +0.000 OA
ATOM     33  H   UNL     1      -3.559  14.675  19.678  0.00  0.00    +0.000 HD
ENDBRANCH  31  32
ENDBRANCH  27  31
ENDBRANCH   1  26
BRANCH   5  34
ATOM     34  C   UNL     1       0.979   9.115  22.885  0.00  0.00    +0.000 C 
ATOM     35  N   UNL     1       0.445   9.574  23.801  0.00  0.00    +0.000 NA
ENDBRANCH   5  34
TORSDOF 9
ENDMDL
MODEL 4
REMARK VINA RESULT:      -7.7      1.603      2.184
REMARK  Name = 
REMARK  10 active torsions:
REMARK  status: ('A' for Active; 'I' for Inactive)
REMARK    1  A    between atoms: C_1  and  C_2
REMARK    2  A    between atoms: C_2  and  N_3
REMARK    3  A    between atoms: N_3  and  C_8
REMARK    4  A    between atoms: C_4  and  C_6
REMARK    5  A    between atoms: C_6  and  O_7
REMARK    6  A    between atoms: N_12  and  C_13
REMARK    7  A    between atoms: N_15  and  C_16
REMARK    8  A    between atoms: C_20  and  O_21
REMARK    9  A    between atoms: O_21  and  C_22
REMARK   10  A    between atoms: C_27  and  C_28
REMARK                            x       y       z     vdW  Elec       q    Type
REMARK                         _______ _______ _______ _____ _____    ______ ____
ROOT
ATOM      1  C   UNL     1      -1.439  12.104  20.215  0.00  0.00    +0.000 C 
ATOM      2  C   UNL     1      -0.424  11.291  21.036  0.00  0.00    +0.000 C 
ATOM      3  N   UNL     1       0.090  10.276  20.125  0.00  0.00    +0.000 N 
ATOM      4  C   UNL     1       1.070   9.330  20.460  0.00  0.00    +0.000 C 
ATOM      5  N   UNL     1       1.461   8.885  21.620  0.00  0.00    +0.000 NA
ATOM      6  N   UNL     1       1.717   8.895  19.311  0.00  0.00    +0.000 N 
ATOM      7  N   UNL     1      -0.702  10.182  18.998  0.00  0.00    +0.000 NA
ATOM      8  C   UNL     1      -1.617  11.106  19.077  0.00  0.00    +0.000 C 
ATOM      9  H   UNL     1       1.329   9.309  18.471  0.00  0.00    +0.000 HD
ENDROOT
BRANCH   6  10
ATOM     10  C   UNL     1       2.262   7.606  19.120  0.00  0.00    +0.000 A 
ATOM     11  C   UNL     1       3.055   7.290  18.008  0.00  0.00    +0.000 A 
ATOM     12  C   UNL     1       3.564   6.004  17.829  0.00  0.00    +0.000 A 
ATOM     13  C   UNL     1       3.293   5.014  18.768  0.00  0.00    +0.000 A 
ATOM     14  C   UNL     1       2.535   5.311  19.901  0.00  0.00    +0.000 A 
ATOM     15  C   UNL     1       2.021   6.603  20.076  0.00  0.00    +0.000 A 
BRANCH  14  16
ATOM     16  O   UNL     1       2.330   4.246  20.733  0.00  0.00    +0.000 OA
BRANCH  16  17
ATOM     17  C   UNL     1       1.052   3.642  20.659  0.00  0.00    +0.000 C 
ATOM     18  F   UNL     1       0.947   2.974  19.485  0.00  0.00    +0.000 F 
ATOM     19  F   UNL     1       0.991   2.710  21.646  0.00  0.00    +0.000 F 
ENDBRANCH  16  17
ENDBRANCH  14  16
ENDBRANCH   6  10
BRANCH   8  20
ATOM     20  C   UNL     1      -2.737  11.213  18.102  0.00  0.00    +0.000 A 
ATOM     21  C   UNL     1      -4.002  11.688  18.471  0.00  0.00    +0.000 A 
ATOM     22  C   UNL     1      -5.011  11.806  17.508  0.00  0.00    +0.000 A 
ATOM     23  C   UNL     1      -4.760  11.454  16.183  0.00  0.00    +0.000 A 
ATOM     24  C   UNL     1      -3.502  10.983  15.813  0.00  0.00    +0.000 A 
ATOM     25  C   UNL     1      -2.494  10.857  16.770  0.00  0.00    +0.000 A 
ENDBRANCH   8  20
BRANCH   1  26
ATOM     26  N   UNL     1      -0.962  13.472  19.859  0.00  0.00    +0.000 N 
ATOM     27  C   UNL     1      -1.544  14.600  20.465  0.00  0.00    +0.000 C 
ATOM     28  O   UNL     1      -1.433  15.741  20.012  0.00  0.00    +0.000 OA
BRANCH  26  30
ATOM     29  C   UNL     1       1.242  13.479  18.493  0.00  0.00    +0.000 C 
ATOM     30  C   UNL     1      -0.270  13.619  18.563  0.00  0.00    +0.000 C 
ENDBRANCH  26  30
BRANCH  27  31
ATOM     31  C   UNL     1      -2.316  14.413  21.793  0.00  0.00    +0.000 C 
BRANCH  31  32
ATOM     32  O   UNL     1      -1.486  14.429  22.942  0.00  0.00    +0.000 OA
ATOM     33  H   UNL     1      -0.598  14.160  22.642  0.00  0.00    +0.000 HD
ENDBRANCH  31  32
ENDBRANCH  27  31
ENDBRANCH   1  26
BRANCH   5  34
ATOM     34  C   UNL     1       0.846   9.236  22.749  0.00  0.00    +0.000 C 
ATOM     35  N   UNL     1       0.326   9.555  23.730  0.00  0.00    +0.000 NA
ENDBRANCH   5  34
TORSDOF 9
ENDMDL
MODEL 5
REMARK VINA RESULT:      -7.6      0.635      1.137
REMARK  Name = 
REMARK  10 active torsions:
REMARK  status: ('A' for Active; 'I' for Inactive)
REMARK    1  A    between atoms: C_1  and  C_2
REMARK    2  A    between atoms: C_2  and  N_3
REMARK    3  A    between atoms: N_3  and  C_8
REMARK    4  A    between atoms: C_4  and  C_6
REMARK    5  A    between atoms: C_6  and  O_7
REMARK    6  A    between atoms: N_12  and  C_13
REMARK    7  A    between atoms: N_15  and  C_16
REMARK    8  A    between atoms: C_20  and  O_21
REMARK    9  A    between atoms: O_21  and  C_22
REMARK   10  A    between atoms: C_27  and  C_28
REMARK                            x       y       z     vdW  Elec       q    Type
REMARK                         _______ _______ _______ _____ _____    ______ ____
ROOT
ATOM      1  C   UNL     1      -0.975  11.978  19.950  0.00  0.00    +0.000 C 
ATOM      2  C   UNL     1      -0.099  11.166  20.917  0.00  0.00    +0.000 C 
ATOM      3  N   UNL     1       0.324   9.990  20.166  0.00  0.00    +0.000 N 
ATOM      4  C   UNL     1       1.169   8.988  20.666  0.00  0.00    +0.000 C 
ATOM      5  N   UNL     1       1.458   8.654  21.891  0.00  0.00    +0.000 NA
ATOM      6  N   UNL     1       1.803   8.339  19.616  0.00  0.00    +0.000 N 
ATOM      7  N   UNL     1      -0.429   9.845  19.018  0.00  0.00    +0.000 NA
ATOM      8  C   UNL     1      -1.229  10.870  18.934  0.00  0.00    +0.000 C 
ATOM      9  H   UNL     1       1.501   8.684  18.711  0.00  0.00    +0.000 HD
ENDROOT
BRANCH   6  10
ATOM     10  C   UNL     1       2.195   6.982  19.612  0.00  0.00    +0.000 A 
ATOM     11  C   UNL     1       1.784   6.085  20.609  0.00  0.00    +0.000 A 
ATOM     12  C   UNL     1       2.202   4.755  20.596  0.00  0.00    +0.000 A 
ATOM     13  C   UNL     1       3.033   4.298  19.578  0.00  0.00    +0.000 A 
ATOM     14  C   UNL     1       3.428   5.161  18.556  0.00  0.00    +0.000 A 
ATOM     15  C   UNL     1       3.011   6.499  18.573  0.00  0.00    +0.000 A 
BRANCH  14  16
ATOM     16  O   UNL     1       4.256   4.590  17.630  0.00  0.00    +0.000 OA
BRANCH  16  17
ATOM     17  C   UNL     1       4.861   5.481  16.710  0.00  0.00    +0.000 C 
ATOM     18  F   UNL     1       6.073   5.852  17.187  0.00  0.00    +0.000 F 
ATOM     19  F   UNL     1       5.087   4.784  15.567  0.00  0.00    +0.000 F 
ENDBRANCH  16  17
ENDBRANCH  14  16
ENDBRANCH   6  10
BRANCH   8  20
ATOM     20  C   UNL     1      -2.288  10.980  17.895  0.00  0.00    +0.000 A 
ATOM     21  C   UNL     1      -2.123  10.458  16.606  0.00  0.00    +0.000 A 
ATOM     22  C   UNL     1      -3.164  10.553  15.675  0.00  0.00    +0.000 A 
ATOM     23  C   UNL     1      -4.365  11.166  16.028  0.00  0.00    +0.000 A 
ATOM     24  C   UNL     1      -4.533  11.685  17.310  0.00  0.00    +0.000 A 
ATOM     25  C   UNL     1      -3.496  11.598  18.240  0.00  0.00    +0.000 A 
ENDBRANCH   8  20
BRANCH   1  26
ATOM     26  N   UNL     1      -0.323  13.226  19.455  0.00  0.00    +0.000 N 
ATOM     27  C   UNL     1      -0.924  14.475  19.691  0.00  0.00    +0.000 C 
ATOM     28  O   UNL     1      -0.627  15.495  19.066  0.00  0.00    +0.000 OA
BRANCH  26  30
ATOM     29  C   UNL     1       2.128  13.158  18.615  0.00  0.00    +0.000 C 
ATOM     30  C   UNL     1       0.635  13.079  18.342  0.00  0.00    +0.000 C 
ENDBRANCH  26  30
BRANCH  27  31
ATOM     31  C   UNL     1      -1.971  14.592  20.825  0.00  0.00    +0.000 C 
BRANCH  31  32
ATOM     32  O   UNL     1      -3.271  14.926  20.370  0.00  0.00    +0.000 OA
ATOM     33  H   UNL     1      -3.663  15.498  21.056  0.00  0.00    +0.000 HD
ENDBRANCH  31  32
ENDBRANCH  27  31
ENDBRANCH   1  26
BRANCH   5  34
ATOM     34  C   UNL     1       0.847   9.214  22.935  0.00  0.00    +0.000 C 
ATOM     35  N   UNL     1       0.305   9.683  23.840  0.00  0.00    +0.000 NA
ENDBRANCH   5  34
TORSDOF 9
ENDMDL
MODEL 6
REMARK VINA RESULT:      -7.3      0.955      1.009
REMARK  Name = 
REMARK  10 active torsions:
REMARK  status: ('A' for Active; 'I' for Inactive)
REMARK    1  A    between atoms: C_1  and  C_2
REMARK    2  A    between atoms: C_2  and  N_3
REMARK    3  A    between atoms: N_3  and  C_8
REMARK    4  A    between atoms: C_4  and  C_6
REMARK    5  A    between atoms: C_6  and  O_7
REMARK    6  A    between atoms: N_12  and  C_13
REMARK    7  A    between atoms: N_15  and  C_16
REMARK    8  A    between atoms: C_20  and  O_21
REMARK    9  A    between atoms: O_21  and  C_22
REMARK   10  A    between atoms: C_27  and  C_28
REMARK                            x       y       z     vdW  Elec       q    Type
REMARK                         _______ _______ _______ _____ _____    ______ ____
ROOT
ATOM      1  C   UNL     1      -1.163  11.990  20.047  0.00  0.00    +0.000 C 
ATOM      2  C   UNL     1      -0.252  11.185  20.988  0.00  0.00    +0.000 C 
ATOM      3  N   UNL     1       0.211  10.046  20.205  0.00  0.00    +0.000 N 
ATOM      4  C   UNL     1       1.095   9.064  20.675  0.00  0.00    +0.000 C 
ATOM      5  N   UNL     1       1.402   8.709  21.889  0.00  0.00    +0.000 NA
ATOM      6  N   UNL     1       1.747   8.467  19.605  0.00  0.00    +0.000 N 
ATOM      7  N   UNL     1      -0.542   9.903  19.057  0.00  0.00    +0.000 NA
ATOM      8  C   UNL     1      -1.380  10.900  19.003  0.00  0.00    +0.000 C 
ATOM      9  H   UNL     1       1.428   8.824  18.711  0.00  0.00    +0.000 HD
ENDROOT
BRANCH   6  10
ATOM     10  C   UNL     1       2.189   7.126  19.565  0.00  0.00    +0.000 A 
ATOM     11  C   UNL     1       1.826   6.191  20.544  0.00  0.00    +0.000 A 
ATOM     12  C   UNL     1       2.292   4.878  20.494  0.00  0.00    +0.000 A 
ATOM     13  C   UNL     1       3.126   4.477  19.456  0.00  0.00    +0.000 A 
ATOM     14  C   UNL     1       3.475   5.378  18.449  0.00  0.00    +0.000 A 
ATOM     15  C   UNL     1       3.009   6.699  18.504  0.00  0.00    +0.000 A 
BRANCH  14  16
ATOM     16  O   UNL     1       4.311   4.861  17.499  0.00  0.00    +0.000 OA
BRANCH  16  17
ATOM     17  C   UNL     1       5.679   5.204  17.628  0.00  0.00    +0.000 C 
ATOM     18  F   UNL     1       6.306   4.249  18.355  0.00  0.00    +0.000 F 
ATOM     19  F   UNL     1       6.221   5.167  16.383  0.00  0.00    +0.000 F 
ENDBRANCH  16  17
ENDBRANCH  14  16
ENDBRANCH   6  10
BRANCH   8  20
ATOM     20  C   UNL     1      -2.448  10.997  17.971  0.00  0.00    +0.000 A 
ATOM     21  C   UNL     1      -3.685  11.599  18.235  0.00  0.00    +0.000 A 
ATOM     22  C   UNL     1      -4.643  11.701  17.220  0.00  0.00    +0.000 A 
ATOM     23  C   UNL     1      -4.369  11.205  15.946  0.00  0.00    +0.000 A 
ATOM     24  C   UNL     1      -3.139  10.607  15.681  0.00  0.00    +0.000 A 
ATOM     25  C   UNL     1      -2.183  10.498  16.691  0.00  0.00    +0.000 A 
ENDBRANCH   8  20
BRANCH   1  26
ATOM     26  N   UNL     1      -0.561  13.274  19.583  0.00  0.00    +0.000 N 
ATOM     27  C   UNL     1      -1.099  14.500  20.012  0.00  0.00    +0.000 C 
ATOM     28  O   UNL     1      -0.870  15.571  19.447  0.00  0.00    +0.000 OA
BRANCH  26  30
ATOM     29  C   UNL     1       1.740  13.034  18.411  0.00  0.00    +0.000 C 
ATOM     30  C   UNL     1       0.234  13.224  18.339  0.00  0.00    +0.000 C 
ENDBRANCH  26  30
BRANCH  27  31
ATOM     31  C   UNL     1      -1.978  14.518  21.285  0.00  0.00    +0.000 C 
BRANCH  31  32
ATOM     32  O   UNL     1      -1.237  14.639  22.488  0.00  0.00    +0.000 OA
ATOM     33  H   UNL     1      -0.597  13.903  22.490  0.00  0.00    +0.000 HD
ENDBRANCH  31  32
ENDBRANCH  27  31
ENDBRANCH   1  26
BRANCH   5  34
ATOM     34  C   UNL     1       0.775   9.218  22.950  0.00  0.00    +0.000 C 
ATOM     35  N   UNL     1       0.215   9.652  23.862  0.00  0.00    +0.000 NA
ENDBRANCH   5  34
TORSDOF 9
ENDMDL
MODEL 7
REMARK VINA RESULT:      -7.1      3.847      8.702
REMARK  Name = 
REMARK  10 active torsions:
REMARK  status: ('A' for Active; 'I' for Inactive)
REMARK    1  A    between atoms: C_1  and  C_2
REMARK    2  A    between atoms: C_2  and  N_3
REMARK    3  A    between atoms: N_3  and  C_8
REMARK    4  A    between atoms: C_4  and  C_6
REMARK    5  A    between atoms: C_6  and  O_7
REMARK    6  A    between atoms: N_12  and  C_13
REMARK    7  A    between atoms: N_15  and  C_16
REMARK    8  A    between atoms: C_20  and  O_21
REMARK    9  A    between atoms: O_21  and  C_22
REMARK   10  A    between atoms: C_27  and  C_28
REMARK                            x       y       z     vdW  Elec       q    Type
REMARK                         _______ _______ _______ _____ _____    ______ ____
ROOT
ATOM      1  C   UNL     1       2.607   5.792  19.867  0.00  0.00    +0.000 C 
ATOM      2  C   UNL     1       1.835   6.906  20.592  0.00  0.00    +0.000 C 
ATOM      3  N   UNL     1       1.837   8.041  19.678  0.00  0.00    +0.000 N 
ATOM      4  C   UNL     1       1.211   9.270  19.934  0.00  0.00    +0.000 C 
ATOM      5  N   UNL     1       0.843   9.818  21.056  0.00  0.00    +0.000 NA
ATOM      6  N   UNL     1       0.921   9.910  18.736  0.00  0.00    +0.000 N 
ATOM      7  N   UNL     1       2.761   7.856  18.668  0.00  0.00    +0.000 NA
ATOM      8  C   UNL     1       3.278   6.669  18.815  0.00  0.00    +0.000 C 
ATOM      9  H   UNL     1       1.254   9.389  17.932  0.00  0.00    +0.000 HD
ENDROOT
BRANCH   6  10
ATOM     10  C   UNL     1       0.891  11.308  18.545  0.00  0.00    +0.000 A 
ATOM     11  C   UNL     1      -0.311  12.029  18.504  0.00  0.00    +0.000 A 
ATOM     12  C   UNL     1      -0.317  13.407  18.292  0.00  0.00    +0.000 A 
ATOM     13  C   UNL     1       0.884  14.089  18.126  0.00  0.00    +0.000 A 
ATOM     14  C   UNL     1       2.096  13.401  18.197  0.00  0.00    +0.000 A 
ATOM     15  C   UNL     1       2.099  12.015  18.405  0.00  0.00    +0.000 A 
BRANCH  14  16
ATOM     16  O   UNL     1       3.198  14.186  18.001  0.00  0.00    +0.000 OA
BRANCH  16  17
ATOM     17  C   UNL     1       2.958  15.579  17.927  0.00  0.00    +0.000 C 
ATOM     18  F   UNL     1       3.765  16.213  18.812  0.00  0.00    +0.000 F 
ATOM     19  F   UNL     1       3.340  15.986  16.689  0.00  0.00    +0.000 F 
ENDBRANCH  16  17
ENDBRANCH  14  16
ENDBRANCH   6  10
BRANCH   8  20
ATOM     20  C   UNL     1       4.414   6.179  17.987  0.00  0.00    +0.000 A 
ATOM     21  C   UNL     1       4.615   6.610  16.670  0.00  0.00    +0.000 A 
ATOM     22  C   UNL     1       5.720   6.149  15.946  0.00  0.00    +0.000 A 
ATOM     23  C   UNL     1       6.622   5.263  16.532  0.00  0.00    +0.000 A 
ATOM     24  C   UNL     1       6.425   4.833  17.843  0.00  0.00    +0.000 A 
ATOM     25  C   UNL     1       5.321   5.285  18.567  0.00  0.00    +0.000 A 
ENDBRANCH   8  20
BRANCH   1  26
ATOM     26  N   UNL     1       1.739   4.680  19.380  0.00  0.00    +0.000 N 
ATOM     27  C   UNL     1       1.589   3.515  20.153  0.00  0.00    +0.000 C 
ATOM     28  O   UNL     1       1.158   2.454  19.697  0.00  0.00    +0.000 OA
BRANCH  26  30
ATOM     29  C   UNL     1       2.248   3.655  17.054  0.00  0.00    +0.000 C 
ATOM     30  C   UNL     1       1.476   4.629  17.929  0.00  0.00    +0.000 C 
ENDBRANCH  26  30
BRANCH  27  31
ATOM     31  C   UNL     1       1.928   3.577  21.662  0.00  0.00    +0.000 C 
BRANCH  31  32
ATOM     32  O   UNL     1       2.763   2.519  22.103  0.00  0.00    +0.000 OA
ATOM     33  H   UNL     1       3.679   2.801  21.923  0.00  0.00    +0.000 HD
ENDBRANCH  31  32
ENDBRANCH  27  31
ENDBRANCH   1  26
BRANCH   5  34
ATOM     34  C   UNL     1       1.134   9.269  22.235  0.00  0.00    +0.000 C 
ATOM     35  N   UNL     1       1.373   8.805  23.266  0.00  0.00    +0.000 NA
ENDBRANCH   5  34
TORSDOF 9
ENDMDL
MODEL 8
REMARK VINA RESULT:      -7.1      1.627      1.985
REMARK  Name = 
REMARK  10 active torsions:
REMARK  status: ('A' for Active; 'I' for Inactive)
REMARK    1  A    between atoms: C_1  and  C_2
REMARK    2  A    between atoms: C_2  and  N_3
REMARK    3  A    between atoms: N_3  and  C_8
REMARK    4  A    between atoms: C_4  and  C_6
REMARK    5  A    between atoms: C_6  and  O_7
REMARK    6  A    between atoms: N_12  and  C_13
REMARK    7  A    between atoms: N_15  and  C_16
REMARK    8  A    between atoms: C_20  and  O_21
REMARK    9  A    between atoms: O_21  and  C_22
REMARK   10  A    between atoms: C_27  and  C_28
REMARK                            x       y       z     vdW  Elec       q    Type
REMARK                         _______ _______ _______ _____ _____    ______ ____
ROOT
ATOM      1  C   UNL     1      -1.077  11.777  19.795  0.00  0.00    +0.000 C 
ATOM      2  C   UNL     1      -0.020  10.905  20.493  0.00  0.00    +0.000 C 
ATOM      3  N   UNL     1       0.420   9.945  19.488  0.00  0.00    +0.000 N 
ATOM      4  C   UNL     1       1.408   8.972  19.696  0.00  0.00    +0.000 C 
ATOM      5  N   UNL     1       1.869   8.452  20.798  0.00  0.00    +0.000 NA
ATOM      6  N   UNL     1       1.973   8.605  18.482  0.00  0.00    +0.000 N 
ATOM      7  N   UNL     1      -0.446   9.930  18.413  0.00  0.00    +0.000 NA
ATOM      8  C   UNL     1      -1.343  10.854  18.610  0.00  0.00    +0.000 C 
ATOM      9  H   UNL     1       1.535   9.075  17.697  0.00  0.00    +0.000 HD
ENDROOT
BRANCH   6  10
ATOM     10  C   UNL     1       2.487   7.327  18.174  0.00  0.00    +0.000 A 
ATOM     11  C   UNL     1       3.858   7.102  17.981  0.00  0.00    +0.000 A 
ATOM     12  C   UNL     1       4.340   5.834  17.656  0.00  0.00    +0.000 A 
ATOM     13  C   UNL     1       3.456   4.768  17.528  0.00  0.00    +0.000 A 
ATOM     14  C   UNL     1       2.091   4.957  17.750  0.00  0.00    +0.000 A 
ATOM     15  C   UNL     1       1.609   6.233  18.071  0.00  0.00    +0.000 A 
BRANCH  14  16
ATOM     16  O   UNL     1       1.334   3.833  17.575  0.00  0.00    +0.000 OA
BRANCH  16  17
ATOM     17  C   UNL     1       1.514   2.812  18.540  0.00  0.00    +0.000 C 
ATOM     18  F   UNL     1       0.301   2.331  18.904  0.00  0.00    +0.000 F 
ATOM     19  F   UNL     1       2.170   1.793  17.928  0.00  0.00    +0.000 F 
ENDBRANCH  16  17
ENDBRANCH  14  16
ENDBRANCH   6  10
BRANCH   8  20
ATOM     20  C   UNL     1      -2.523  11.032  17.721  0.00  0.00    +0.000 A 
ATOM     21  C   UNL     1      -3.715  11.611  18.174  0.00  0.00    +0.000 A 
ATOM     22  C   UNL     1      -4.784  11.792  17.288  0.00  0.00    +0.000 A 
ATOM     23  C   UNL     1      -4.664  11.398  15.957  0.00  0.00    +0.000 A 
ATOM     24  C   UNL     1      -3.479  10.823  15.503  0.00  0.00    +0.000 A 
ATOM     25  C   UNL     1      -2.413  10.635  16.383  0.00  0.00    +0.000 A 
ENDBRANCH   8  20
BRANCH   1  26
ATOM     26  N   UNL     1      -0.608  13.161  19.494  0.00  0.00    +0.000 N 
ATOM     27  C   UNL     1      -1.265  14.266  20.063  0.00  0.00    +0.000 C 
ATOM     28  O   UNL     1      -1.147  15.416  19.634  0.00  0.00    +0.000 OA
BRANCH  26  30
ATOM     29  C   UNL     1       1.701  13.341  18.328  0.00  0.00    +0.000 C 
ATOM     30  C   UNL     1       0.183  13.342  18.260  0.00  0.00    +0.000 C 
ENDBRANCH  26  30
BRANCH  27  31
ATOM     31  C   UNL     1      -2.136  14.042  21.322  0.00  0.00    +0.000 C 
BRANCH  31  32
ATOM     32  O   UNL     1      -1.559  14.549  22.514  0.00  0.00    +0.000 OA
ATOM     33  H   UNL     1      -0.685  14.124  22.596  0.00  0.00    +0.000 HD
ENDBRANCH  31  32
ENDBRANCH  27  31
ENDBRANCH   1  26
BRANCH   5  34
ATOM     34  C   UNL     1       1.335   8.735  21.986  0.00  0.00    +0.000 C 
ATOM     35  N   UNL     1       0.873   8.961  23.020  0.00  0.00    +0.000 NA
ENDBRANCH   5  34
TORSDOF 9
ENDMDL
MODEL 9
REMARK VINA RESULT:      -7.0      1.279      1.611
REMARK  Name = 
REMARK  10 active torsions:
REMARK  status: ('A' for Active; 'I' for Inactive)
REMARK    1  A    between atoms: C_1  and  C_2
REMARK    2  A    between atoms: C_2  and  N_3
REMARK    3  A    between atoms: N_3  and  C_8
REMARK    4  A    between atoms: C_4  and  C_6
REMARK    5  A    between atoms: C_6  and  O_7
REMARK    6  A    between atoms: N_12  and  C_13
REMARK    7  A    between atoms: N_15  and  C_16
REMARK    8  A    between atoms: C_20  and  O_21
REMARK    9  A    between atoms: O_21  and  C_22
REMARK   10  A    between atoms: C_27  and  C_28
REMARK                            x       y       z     vdW  Elec       q    Type
REMARK                         _______ _______ _______ _____ _____    ______ ____
ROOT
ATOM      1  C   UNL     1      -0.906  11.902  19.769  0.00  0.00    +0.000 C 
ATOM      2  C   UNL     1       0.139  11.017  20.467  0.00  0.00    +0.000 C 
ATOM      3  N   UNL     1       0.523  10.014  19.482  0.00  0.00    +0.000 N 
ATOM      4  C   UNL     1       1.484   9.015  19.695  0.00  0.00    +0.000 C 
ATOM      5  N   UNL     1       1.956   8.514  20.800  0.00  0.00    +0.000 NA
ATOM      6  N   UNL     1       2.005   8.595  18.479  0.00  0.00    +0.000 N 
ATOM      7  N   UNL     1      -0.370   9.995  18.429  0.00  0.00    +0.000 NA
ATOM      8  C   UNL     1      -1.232  10.953  18.620  0.00  0.00    +0.000 C 
ATOM      9  H   UNL     1       1.563   9.055  17.691  0.00  0.00    +0.000 HD
ENDROOT
BRANCH   6  10
ATOM     10  C   UNL     1       2.471   7.292  18.198  0.00  0.00    +0.000 A 
ATOM     11  C   UNL     1       1.677   6.155  18.408  0.00  0.00    +0.000 A 
ATOM     12  C   UNL     1       2.167   4.877  18.143  0.00  0.00    +0.000 A 
ATOM     13  C   UNL     1       3.459   4.716  17.654  0.00  0.00    +0.000 A 
ATOM     14  C   UNL     1       4.257   5.833  17.403  0.00  0.00    +0.000 A 
ATOM     15  C   UNL     1       3.765   7.116  17.675  0.00  0.00    +0.000 A 
BRANCH  14  16
ATOM     16  O   UNL     1       5.508   5.534  16.940  0.00  0.00    +0.000 OA
BRANCH  16  17
ATOM     17  C   UNL     1       5.684   5.617  15.538  0.00  0.00    +0.000 C 
ATOM     18  F   UNL     1       5.180   4.498  14.964  0.00  0.00    +0.000 F 
ATOM     19  F   UNL     1       4.926   6.655  15.100  0.00  0.00    +0.000 F 
ENDBRANCH  16  17
ENDBRANCH  14  16
ENDBRANCH   6  10
BRANCH   8  20
ATOM     20  C   UNL     1      -2.428  11.144  17.755  0.00  0.00    +0.000 A 
ATOM     21  C   UNL     1      -2.427  10.800  16.397  0.00  0.00    +0.000 A 
ATOM     22  C   UNL     1      -3.589  10.963  15.635  0.00  0.00    +0.000 A 
ATOM     23  C   UNL     1      -4.748  11.466  16.223  0.00  0.00    +0.000 A 
ATOM     24  C   UNL     1      -4.753  11.807  17.574  0.00  0.00    +0.000 A 
ATOM     25  C   UNL     1      -3.595  11.653  18.337  0.00  0.00    +0.000 A 
ENDBRANCH   8  20
BRANCH   1  26
ATOM     26  N   UNL     1      -0.401  13.260  19.415  0.00  0.00    +0.000 N 
ATOM     27  C   UNL     1      -1.123  14.403  19.802  0.00  0.00    +0.000 C 
ATOM     28  O   UNL     1      -0.950  15.514  19.297  0.00  0.00    +0.000 OA
BRANCH  26  30
ATOM     29  C   UNL     1       2.034  13.422  18.540  0.00  0.00    +0.000 C 
ATOM     30  C   UNL     1       0.539  13.345  18.279  0.00  0.00    +0.000 C 
ENDBRANCH  26  30
BRANCH  27  31
ATOM     31  C   UNL     1      -2.147  14.277  20.956  0.00  0.00    +0.000 C 
BRANCH  31  32
ATOM     32  O   UNL     1      -3.474  14.604  20.580  0.00  0.00    +0.000 OA
ATOM     33  H   UNL     1      -3.492  14.596  19.605  0.00  0.00    +0.000 HD
ENDBRANCH  31  32
ENDBRANCH  27  31
ENDBRANCH   1  26
BRANCH   5  34
ATOM     34  C   UNL     1       1.462   8.849  21.992  0.00  0.00    +0.000 C 
ATOM     35  N   UNL     1       1.050   9.151  23.028  0.00  0.00    +0.000 NA
ENDBRANCH   5  34
TORSDOF 9
ENDMDL
