MODEL 1
REMARK VINA RESULT:      -8.4      0.000      0.000
REMARK  Name = 
REMARK  7 active torsions:
REMARK  status: ('A' for Active; 'I' for Inactive)
REMARK    1  A    between atoms: C_1  and  C_2
REMARK    2  A    between atoms: C_2  and  C_3
REMARK    3  A    between atoms: C_2  and  C_4
REMARK    4  A    between atoms: C_4  and  C_5
REMARK    5  A    between atoms: C_5  and  N_6
REMARK    6  A    between atoms: C_7  and  C_9
REMARK    7  A    between atoms: N_17  and  C_18
REMARK                            x       y       z     vdW  Elec       q    Type
REMARK                         _______ _______ _______ _____ _____    ______ ____
ROOT
ATOM      1  C   UNL     1       5.523   5.256  16.251  0.00  0.00    +0.000 A 
ATOM      2  C   UNL     1       5.092   4.091  16.903  0.00  0.00    +0.000 A 
ATOM      3  C   UNL     1       4.093   4.131  17.881  0.00  0.00    +0.000 A 
ATOM      4  C   UNL     1       3.537   5.384  18.170  0.00  0.00    +0.000 A 
ATOM      5  C   UNL     1       3.942   6.550  17.524  0.00  0.00    +0.000 A 
ATOM      6  C   UNL     1       4.941   6.496  16.543  0.00  0.00    +0.000 A 
ATOM      7  N   UNL     1       3.248   7.639  17.982  0.00  0.00    +0.000 NA
ATOM      8  C   UNL     1       2.430   7.164  18.891  0.00  0.00    +0.000 A 
ATOM      9  N   UNL     1       2.559   5.807  19.038  0.00  0.00    +0.000 N 
ENDROOT
BRANCH   9  10
ATOM     10  C   UNL     1       1.791   4.978  19.942  0.00  0.00    +0.000 C 
ATOM     11  C   UNL     1       1.171   3.749  19.281  0.00  0.00    +0.000 C 
ATOM     12  C   UNL     1       0.834   2.834  20.450  0.00  0.00    +0.000 C 
ATOM     13  C   UNL     1       1.827   3.171  21.559  0.00  0.00    +0.000 C 
ATOM     14  C   UNL     1       2.606   4.399  21.100  0.00  0.00    +0.000 C 
ENDBRANCH   9  10
BRANCH   1  16
ATOM     15  N   UNL     1       6.296   4.399  14.113  0.00  0.00    +0.000 N 
ATOM     16  C   UNL     1       6.602   5.135  15.237  0.00  0.00    +0.000 C 
ATOM     17  O   UNL     1       7.672   5.699  15.412  0.00  0.00    +0.000 OA
ATOM     18  H   UNL     1       5.365   4.025  13.988  0.00  0.00    +0.000 HD
BRANCH  15  19
ATOM     19  C   UNL     1       7.259   4.191  13.054  0.00  0.00    +0.000 C 
BRANCH  19  20
ATOM     20  C   UNL     1       6.598   3.778  11.735  0.00  0.00    +0.000 C 
BRANCH  20  22
ATOM     21  C   UNL     1       4.179   3.148  11.256  0.00  0.00    +0.000 C 
ATOM     22  C   UNL     1       5.500   2.705  11.887  0.00  0.00    +0.000 C 
ATOM     23  C   UNL     1       5.946   1.381  11.261  0.00  0.00    +0.000 C 
ENDBRANCH  20  22
ENDBRANCH  19  20
ENDBRANCH  15  19
ENDBRANCH   1  16
TORSDOF 5
ENDMDL
MODEL 2
REMARK VINA RESULT:      -7.8      0.918      1.303
REMARK  Name = 
REMARK  7 active torsions:
REMARK  status: ('A' for Active; 'I' for Inactive)
REMARK    1  A    between atoms: C_1  and  C_2
REMARK    2  A    between atoms: C_2  and  C_3
REMARK    3  A    between atoms: C_2  and  C_4
REMARK    4  A    between atoms: C_4  and  C_5
REMARK    5  A    between atoms: C_5  and  N_6
REMARK    6  A    between atoms: C_7  and  C_9
REMARK    7  A    between atoms: N_17  and  C_18
REMARK                            x       y       z     vdW  Elec       q    Type
REMARK                         _______ _______ _______ _____ _____    ______ ____
ROOT
ATOM      1  C   UNL     1       5.959   4.884  15.407  0.00  0.00    +0.000 A 
ATOM      2  C   UNL     1       5.633   3.632  15.949  0.00  0.00    +0.000 A 
ATOM      3  C   UNL     1       4.767   3.515  17.042  0.00  0.00    +0.000 A 
ATOM      4  C   UNL     1       4.235   4.704  17.560  0.00  0.00    +0.000 A 
ATOM      5  C   UNL     1       4.537   5.954  17.026  0.00  0.00    +0.000 A 
ATOM      6  C   UNL     1       5.402   6.058  15.930  0.00  0.00    +0.000 A 
ATOM      7  N   UNL     1       3.892   6.953  17.707  0.00  0.00    +0.000 NA
ATOM      8  C   UNL     1       3.204   6.341  18.641  0.00  0.00    +0.000 A 
ATOM      9  N   UNL     1       3.370   4.981  18.592  0.00  0.00    +0.000 N 
ENDROOT
BRANCH   9  10
ATOM     10  C   UNL     1       2.737   4.019  19.469  0.00  0.00    +0.000 C 
ATOM     11  C   UNL     1       2.311   4.595  20.817  0.00  0.00    +0.000 C 
ATOM     12  C   UNL     1       1.304   3.584  21.347  0.00  0.00    +0.000 C 
ATOM     13  C   UNL     1       0.676   2.922  20.122  0.00  0.00    +0.000 C 
ATOM     14  C   UNL     1       1.451   3.415  18.904  0.00  0.00    +0.000 C 
ENDBRANCH   9  10
BRANCH   1  16
ATOM     15  N   UNL     1       6.546   4.180  13.156  0.00  0.00    +0.000 N 
ATOM     16  C   UNL     1       6.901   4.927  14.258  0.00  0.00    +0.000 C 
ATOM     17  O   UNL     1       7.903   5.624  14.315  0.00  0.00    +0.000 OA
ATOM     18  H   UNL     1       5.662   3.689  13.138  0.00  0.00    +0.000 HD
BRANCH  15  19
ATOM     19  C   UNL     1       7.378   4.123  11.975  0.00  0.00    +0.000 C 
BRANCH  19  20
ATOM     20  C   UNL     1       7.155   2.843  11.163  0.00  0.00    +0.000 C 
BRANCH  20  22
ATOM     21  C   UNL     1       4.616   2.666  11.173  0.00  0.00    +0.000 C 
ATOM     22  C   UNL     1       5.931   2.017  11.610  0.00  0.00    +0.000 C 
ATOM     23  C   UNL     1       6.007   0.592  11.054  0.00  0.00    +0.000 C 
ENDBRANCH  20  22
ENDBRANCH  19  20
ENDBRANCH  15  19
ENDBRANCH   1  16
TORSDOF 5
ENDMDL
MODEL 3
REMARK VINA RESULT:      -7.5      1.389      2.882
REMARK  Name = 
REMARK  7 active torsions:
REMARK  status: ('A' for Active; 'I' for Inactive)
REMARK    1  A    between atoms: C_1  and  C_2
REMARK    2  A    between atoms: C_2  and  C_3
REMARK    3  A    between atoms: C_2  and  C_4
REMARK    4  A    between atoms: C_4  and  C_5
REMARK    5  A    between atoms: C_5  and  N_6
REMARK    6  A    between atoms: C_7  and  C_9
REMARK    7  A    between atoms: N_17  and  C_18
REMARK                            x       y       z     vdW  Elec       q    Type
REMARK                         _______ _______ _______ _____ _____    ______ ____
ROOT
ATOM      1  C   UNL     1       5.220   4.935  15.834  0.00  0.00    +0.000 A 
ATOM      2  C   UNL     1       5.296   6.296  16.168  0.00  0.00    +0.000 A 
ATOM      3  C   UNL     1       4.493   6.844  17.175  0.00  0.00    +0.000 A 
ATOM      4  C   UNL     1       3.620   5.971  17.837  0.00  0.00    +0.000 A 
ATOM      5  C   UNL     1       3.540   4.615  17.528  0.00  0.00    +0.000 A 
ATOM      6  C   UNL     1       4.352   4.077  16.521  0.00  0.00    +0.000 A 
ATOM      7  N   UNL     1       2.616   3.980  18.315  0.00  0.00    +0.000 NA
ATOM      8  C   UNL     1       2.132   4.916  19.096  0.00  0.00    +0.000 A 
ATOM      9  N   UNL     1       2.709   6.135  18.854  0.00  0.00    +0.000 N 
ENDROOT
BRANCH   9  10
ATOM     10  C   UNL     1       2.412   7.366  19.554  0.00  0.00    +0.000 C 
ATOM     11  C   UNL     1       1.598   8.365  18.735  0.00  0.00    +0.000 C 
ATOM     12  C   UNL     1       1.035   9.322  19.776  0.00  0.00    +0.000 C 
ATOM     13  C   UNL     1       0.918   8.524  21.074  0.00  0.00    +0.000 C 
ATOM     14  C   UNL     1       1.586   7.175  20.826  0.00  0.00    +0.000 C 
ENDBRANCH   9  10
BRANCH   1  16
ATOM     15  N   UNL     1       5.446   3.982  13.611  0.00  0.00    +0.000 N 
ATOM     16  C   UNL     1       6.092   4.432  14.741  0.00  0.00    +0.000 C 
ATOM     17  O   UNL     1       7.307   4.465  14.865  0.00  0.00    +0.000 OA
ATOM     18  H   UNL     1       4.440   4.057  13.536  0.00  0.00    +0.000 HD
BRANCH  15  19
ATOM     19  C   UNL     1       6.174   3.454  12.478  0.00  0.00    +0.000 C 
BRANCH  19  20
ATOM     20  C   UNL     1       5.427   2.310  11.784  0.00  0.00    +0.000 C 
BRANCH  20  22
ATOM     21  C   UNL     1       7.788   1.834  10.963  0.00  0.00    +0.000 C 
ATOM     22  C   UNL     1       6.313   1.438  10.872  0.00  0.00    +0.000 C 
ATOM     23  C   UNL     1       6.160  -0.044  11.225  0.00  0.00    +0.000 C 
ENDBRANCH  20  22
ENDBRANCH  19  20
ENDBRANCH  15  19
ENDBRANCH   1  16
TORSDOF 5
ENDMDL
MODEL 4
REMARK VINA RESULT:      -7.5      1.680      2.010
REMARK  Name = 
REMARK  7 active torsions:
REMARK  status: ('A' for Active; 'I' for Inactive)
REMARK    1  A    between atoms: C_1  and  C_2
REMARK    2  A    between atoms: C_2  and  C_3
REMARK    3  A    between atoms: C_2  and  C_4
REMARK    4  A    between atoms: C_4  and  C_5
REMARK    5  A    between atoms: C_5  and  N_6
REMARK    6  A    between atoms: C_7  and  C_9
REMARK    7  A    between atoms: N_17  and  C_18
REMARK                            x       y       z     vdW  Elec       q    Type
REMARK                         _______ _______ _______ _____ _____    ______ ____
ROOT
ATOM      1  C   UNL     1       6.225   4.529  15.689  0.00  0.00    +0.000 A 
ATOM      2  C   UNL     1       4.969   3.916  15.575  0.00  0.00    +0.000 A 
ATOM      3  C   UNL     1       4.189   3.637  16.704  0.00  0.00    +0.000 A 
ATOM      4  C   UNL     1       4.718   4.008  17.947  0.00  0.00    +0.000 A 
ATOM      5  C   UNL     1       5.957   4.630  18.079  0.00  0.00    +0.000 A 
ATOM      6  C   UNL     1       6.726   4.908  16.941  0.00  0.00    +0.000 A 
ATOM      7  N   UNL     1       6.245   4.892  19.392  0.00  0.00    +0.000 NA
ATOM      8  C   UNL     1       5.210   4.444  20.064  0.00  0.00    +0.000 A 
ATOM      9  N   UNL     1       4.256   3.907  19.239  0.00  0.00    +0.000 N 
ENDROOT
BRANCH   9  10
ATOM     10  C   UNL     1       2.991   3.346  19.660  0.00  0.00    +0.000 C 
ATOM     11  C   UNL     1       2.947   2.955  21.136  0.00  0.00    +0.000 C 
ATOM     12  C   UNL     1       1.460   2.841  21.441  0.00  0.00    +0.000 C 
ATOM     13  C   UNL     1       0.749   3.787  20.475  0.00  0.00    +0.000 C 
ATOM     14  C   UNL     1       1.804   4.296  19.497  0.00  0.00    +0.000 C 
ENDBRANCH   9  10
BRANCH   1  16
ATOM     15  N   UNL     1       6.515   4.181  13.302  0.00  0.00    +0.000 N 
ATOM     16  C   UNL     1       7.000   4.776  14.446  0.00  0.00    +0.000 C 
ATOM     17  O   UNL     1       7.986   5.498  14.473  0.00  0.00    +0.000 OA
ATOM     18  H   UNL     1       5.647   3.661  13.328  0.00  0.00    +0.000 HD
BRANCH  15  19
ATOM     19  C   UNL     1       7.180   4.328  12.026  0.00  0.00    +0.000 C 
BRANCH  19  20
ATOM     20  C   UNL     1       7.085   3.063  11.167  0.00  0.00    +0.000 C 
BRANCH  20  22
ATOM     21  C   UNL     1       4.586   2.593  11.064  0.00  0.00    +0.000 C 
ATOM     22  C   UNL     1       5.944   2.108  11.573  0.00  0.00    +0.000 C 
ATOM     23  C   UNL     1       6.209   0.693  11.051  0.00  0.00    +0.000 C 
ENDBRANCH  20  22
ENDBRANCH  19  20
ENDBRANCH  15  19
ENDBRANCH   1  16
TORSDOF 5
ENDMDL
MODEL 5
REMARK VINA RESULT:      -7.4      2.679      3.904
REMARK  Name = 
REMARK  7 active torsions:
REMARK  status: ('A' for Active; 'I' for Inactive)
REMARK    1  A    between atoms: C_1  and  C_2
REMARK    2  A    between atoms: C_2  and  C_3
REMARK    3  A    between atoms: C_2  and  C_4
REMARK    4  A    between atoms: C_4  and  C_5
REMARK    5  A    between atoms: C_5  and  N_6
REMARK    6  A    between atoms: C_7  and  C_9
REMARK    7  A    between atoms: N_17  and  C_18
REMARK                            x       y       z     vdW  Elec       q    Type
REMARK                         _______ _______ _______ _____ _____    ______ ____
ROOT
ATOM      1  C   UNL     1       3.941   5.963  18.131  0.00  0.00    +0.000 A 
ATOM      2  C   UNL     1       3.340   5.644  19.357  0.00  0.00    +0.000 A 
ATOM      3  C   UNL     1       2.433   6.514  19.972  0.00  0.00    +0.000 A 
ATOM      4  C   UNL     1       2.147   7.710  19.301  0.00  0.00    +0.000 A 
ATOM      5  C   UNL     1       2.723   8.039  18.077  0.00  0.00    +0.000 A 
ATOM      6  C   UNL     1       3.627   7.157  17.470  0.00  0.00    +0.000 A 
ATOM      7  N   UNL     1       2.281   9.256  17.630  0.00  0.00    +0.000 NA
ATOM      8  C   UNL     1       1.449   9.676  18.553  0.00  0.00    +0.000 A 
ATOM      9  N   UNL     1       1.326   8.778  19.581  0.00  0.00    +0.000 N 
ENDROOT
BRANCH   9  10
ATOM     10  C   UNL     1       0.476   8.930  20.741  0.00  0.00    +0.000 C 
ATOM     11  C   UNL     1       1.232   8.942  22.067  0.00  0.00    +0.000 C 
ATOM     12  C   UNL     1       0.244   9.555  23.049  0.00  0.00    +0.000 C 
ATOM     13  C   UNL     1      -0.665  10.468  22.230  0.00  0.00    +0.000 C 
ATOM     14  C   UNL     1      -0.321  10.236  20.762  0.00  0.00    +0.000 C 
ENDBRANCH   9  10
BRANCH   1  16
ATOM     15  N   UNL     1       4.861   4.840  16.183  0.00  0.00    +0.000 N 
ATOM     16  C   UNL     1       4.909   4.996  17.551  0.00  0.00    +0.000 C 
ATOM     17  O   UNL     1       5.706   4.420  18.275  0.00  0.00    +0.000 OA
ATOM     18  H   UNL     1       4.234   5.407  15.628  0.00  0.00    +0.000 HD
BRANCH  15  19
ATOM     19  C   UNL     1       5.738   3.921  15.491  0.00  0.00    +0.000 C 
BRANCH  19  20
ATOM     20  C   UNL     1       6.404   4.558  14.266  0.00  0.00    +0.000 C 
BRANCH  20  22
ATOM     21  C   UNL     1       4.953   3.522  12.450  0.00  0.00    +0.000 C 
ATOM     22  C   UNL     1       6.372   3.678  13.000  0.00  0.00    +0.000 C 
ATOM     23  C   UNL     1       7.280   4.260  11.913  0.00  0.00    +0.000 C 
ENDBRANCH  20  22
ENDBRANCH  19  20
ENDBRANCH  15  19
ENDBRANCH   1  16
TORSDOF 5
ENDMDL
MODEL 6
REMARK VINA RESULT:      -7.4      0.660      1.029
REMARK  Name = 
REMARK  7 active torsions:
REMARK  status: ('A' for Active; 'I' for Inactive)
REMARK    1  A    between atoms: C_1  and  C_2
REMARK    2  A    between atoms: C_2  and  C_3
REMARK    3  A    between atoms: C_2  and  C_4
REMARK    4  A    between atoms: C_4  and  C_5
REMARK    5  A    between atoms: C_5  and  N_6
REMARK    6  A    between atoms: C_7  and  C_9
REMARK    7  A    between atoms: N_17  and  C_18
REMARK                            x       y       z     vdW  Elec       q    Type
REMARK                         _______ _______ _______ _____ _____    ______ ____
ROOT
ATOM      1  C   UNL     1       5.197   5.084  16.025  0.00  0.00    +0.000 A 
ATOM      2  C   UNL     1       4.773   3.945  16.726  0.00  0.00    +0.000 A 
ATOM      3  C   UNL     1       3.890   4.042  17.807  0.00  0.00    +0.000 A 
ATOM      4  C   UNL     1       3.443   5.326  18.148  0.00  0.00    +0.000 A 
ATOM      5  C   UNL     1       3.843   6.466  17.456  0.00  0.00    +0.000 A 
ATOM      6  C   UNL     1       4.724   6.355  16.373  0.00  0.00    +0.000 A 
ATOM      7  N   UNL     1       3.268   7.593  17.981  0.00  0.00    +0.000 NA
ATOM      8  C   UNL     1       2.528   7.166  18.977  0.00  0.00    +0.000 A 
ATOM      9  N   UNL     1       2.592   5.804  19.116  0.00  0.00    +0.000 N 
ENDROOT
BRANCH   9  10
ATOM     10  C   UNL     1       1.880   5.020  20.102  0.00  0.00    +0.000 C 
ATOM     11  C   UNL     1       1.117   3.833  19.518  0.00  0.00    +0.000 C 
ATOM     12  C   UNL     1       0.857   2.937  20.720  0.00  0.00    +0.000 C 
ATOM     13  C   UNL     1       1.986   3.209  21.712  0.00  0.00    +0.000 C 
ATOM     14  C   UNL     1       2.782   4.390  21.165  0.00  0.00    +0.000 C 
ENDBRANCH   9  10
BRANCH   1  16
ATOM     15  N   UNL     1       5.743   4.053  13.893  0.00  0.00    +0.000 N 
ATOM     16  C   UNL     1       6.151   4.900  14.900  0.00  0.00    +0.000 C 
ATOM     17  O   UNL     1       7.209   5.511  14.890  0.00  0.00    +0.000 OA
ATOM     18  H   UNL     1       4.819   3.641  13.919  0.00  0.00    +0.000 HD
BRANCH  15  19
ATOM     19  C   UNL     1       6.578   3.776  12.746  0.00  0.00    +0.000 C 
BRANCH  19  20
ATOM     20  C   UNL     1       5.932   2.780  11.778  0.00  0.00    +0.000 C 
BRANCH  20  22
ATOM     21  C   UNL     1       5.973   0.329  11.093  0.00  0.00    +0.000 C 
ATOM     22  C   UNL     1       6.813   1.558  11.446  0.00  0.00    +0.000 C 
ATOM     23  C   UNL     1       7.765   1.875  10.290  0.00  0.00    +0.000 C 
ENDBRANCH  20  22
ENDBRANCH  19  20
ENDBRANCH  15  19
ENDBRANCH   1  16
TORSDOF 5
ENDMDL
MODEL 7
REMARK VINA RESULT:      -7.2      3.780      6.260
REMARK  Name = 
REMARK  7 active torsions:
REMARK  status: ('A' for Active; 'I' for Inactive)
REMARK    1  A    between atoms: C_1  and  C_2
REMARK    2  A    between atoms: C_2  and  C_3
REMARK    3  A    between atoms: C_2  and  C_4
REMARK    4  A    between atoms: C_4  and  C_5
REMARK    5  A    between atoms: C_5  and  N_6
REMARK    6  A    between atoms: C_7  and  C_9
REMARK    7  A    between atoms: N_17  and  C_18
REMARK                            x       y       z     vdW  Elec       q    Type
REMARK                         _______ _______ _______ _____ _____    ______ ____
ROOT
ATOM      1  C   UNL     1       2.911   7.176  18.312  0.00  0.00    +0.000 A 
ATOM      2  C   UNL     1       2.509   8.296  17.570  0.00  0.00    +0.000 A 
ATOM      3  C   UNL     1       1.655   9.262  18.114  0.00  0.00    +0.000 A 
ATOM      4  C   UNL     1       1.231   9.062  19.435  0.00  0.00    +0.000 A 
ATOM      5  C   UNL     1       1.630   7.963  20.192  0.00  0.00    +0.000 A 
ATOM      6  C   UNL     1       2.488   7.005  19.637  0.00  0.00    +0.000 A 
ATOM      7  N   UNL     1       1.082   7.998  21.447  0.00  0.00    +0.000 NA
ATOM      8  C   UNL     1       0.359   9.093  21.473  0.00  0.00    +0.000 A 
ATOM      9  N   UNL     1       0.420   9.776  20.286  0.00  0.00    +0.000 N 
ENDROOT
BRANCH   9  10
ATOM     10  C   UNL     1      -0.247  11.026  19.994  0.00  0.00    +0.000 C 
ATOM     11  C   UNL     1      -1.443  10.888  19.055  0.00  0.00    +0.000 C 
ATOM     12  C   UNL     1      -2.223  12.179  19.262  0.00  0.00    +0.000 C 
ATOM     13  C   UNL     1      -1.920  12.641  20.685  0.00  0.00    +0.000 C 
ATOM     14  C   UNL     1      -0.826  11.725  21.225  0.00  0.00    +0.000 C 
ENDBRANCH   9  10
BRANCH   1  16
ATOM     15  N   UNL     1       4.699   6.691  16.741  0.00  0.00    +0.000 N 
ATOM     16  C   UNL     1       3.805   6.185  17.658  0.00  0.00    +0.000 C 
ATOM     17  O   UNL     1       3.741   5.005  17.969  0.00  0.00    +0.000 OA
ATOM     18  H   UNL     1       4.760   7.689  16.586  0.00  0.00    +0.000 HD
BRANCH  15  19
ATOM     19  C   UNL     1       5.618   5.836  16.022  0.00  0.00    +0.000 C 
BRANCH  19  20
ATOM     20  C   UNL     1       7.020   5.833  16.639  0.00  0.00    +0.000 C 
BRANCH  20  22
ATOM     21  C   UNL     1       7.897   5.965  19.025  0.00  0.00    +0.000 C 
ATOM     22  C   UNL     1       7.153   6.700  17.908  0.00  0.00    +0.000 C 
ATOM     23  C   UNL     1       7.874   8.014  17.594  0.00  0.00    +0.000 C 
ENDBRANCH  20  22
ENDBRANCH  19  20
ENDBRANCH  15  19
ENDBRANCH   1  16
TORSDOF 5
ENDMDL
MODEL 8
REMARK VINA RESULT:      -7.2      1.663      2.032
REMARK  Name = 
REMARK  7 active torsions:
REMARK  status: ('A' for Active; 'I' for Inactive)
REMARK    1  A    between atoms: C_1  and  C_2
REMARK    2  A    between atoms: C_2  and  C_3
REMARK    3  A    between atoms: C_2  and  C_4
REMARK    4  A    between atoms: C_4  and  C_5
REMARK    5  A    between atoms: C_5  and  N_6
REMARK    6  A    between atoms: C_7  and  C_9
REMARK    7  A    between atoms: N_17  and  C_18
REMARK                            x       y       z     vdW  Elec       q    Type
REMARK                         _______ _______ _______ _____ _____    ______ ____
ROOT
ATOM      1  C   UNL     1       6.326   4.672  15.570  0.00  0.00    +0.000 A 
ATOM      2  C   UNL     1       5.027   4.144  15.549  0.00  0.00    +0.000 A 
ATOM      3  C   UNL     1       4.295   3.964  16.727  0.00  0.00    +0.000 A 
ATOM      4  C   UNL     1       4.915   4.346  17.924  0.00  0.00    +0.000 A 
ATOM      5  C   UNL     1       6.199   4.885  17.964  0.00  0.00    +0.000 A 
ATOM      6  C   UNL     1       6.920   5.064  16.776  0.00  0.00    +0.000 A 
ATOM      7  N   UNL     1       6.576   5.177  19.248  0.00  0.00    +0.000 NA
ATOM      8  C   UNL     1       5.553   4.829  19.991  0.00  0.00    +0.000 A 
ATOM      9  N   UNL     1       4.520   4.328  19.241  0.00  0.00    +0.000 N 
ENDROOT
BRANCH   9  10
ATOM     10  C   UNL     1       3.246   3.874  19.753  0.00  0.00    +0.000 C 
ATOM     11  C   UNL     1       2.056   4.711  19.288  0.00  0.00    +0.000 C 
ATOM     12  C   UNL     1       0.853   3.816  19.547  0.00  0.00    +0.000 C 
ATOM     13  C   UNL     1       1.360   2.378  19.457  0.00  0.00    +0.000 C 
ATOM     14  C   UNL     1       2.879   2.450  19.333  0.00  0.00    +0.000 C 
ENDBRANCH   9  10
BRANCH   1  16
ATOM     15  N   UNL     1       6.573   4.051  13.234  0.00  0.00    +0.000 N 
ATOM     16  C   UNL     1       7.046   4.815  14.278  0.00  0.00    +0.000 C 
ATOM     17  O   UNL     1       7.977   5.602  14.180  0.00  0.00    +0.000 OA
ATOM     18  H   UNL     1       5.747   3.480  13.355  0.00  0.00    +0.000 HD
BRANCH  15  19
ATOM     19  C   UNL     1       7.189   4.084  11.925  0.00  0.00    +0.000 C 
BRANCH  19  20
ATOM     20  C   UNL     1       7.047   2.755  11.178  0.00  0.00    +0.000 C 
BRANCH  20  22
ATOM     21  C   UNL     1       4.509   2.601  11.061  0.00  0.00    +0.000 C 
ATOM     22  C   UNL     1       5.794   1.942  11.566  0.00  0.00    +0.000 C 
ATOM     23  C   UNL     1       5.884   0.514  11.021  0.00  0.00    +0.000 C 
ENDBRANCH  20  22
ENDBRANCH  19  20
ENDBRANCH  15  19
ENDBRANCH   1  16
TORSDOF 5
ENDMDL
MODEL 9
REMARK VINA RESULT:      -7.1      1.878      3.384
REMARK  Name = 
REMARK  7 active torsions:
REMARK  status: ('A' for Active; 'I' for Inactive)
REMARK    1  A    between atoms: C_1  and  C_2
REMARK    2  A    between atoms: C_2  and  C_3
REMARK    3  A    between atoms: C_2  and  C_4
REMARK    4  A    between atoms: C_4  and  C_5
REMARK    5  A    between atoms: C_5  and  N_6
REMARK    6  A    between atoms: C_7  and  C_9
REMARK    7  A    between atoms: N_17  and  C_18
REMARK                            x       y       z     vdW  Elec       q    Type
REMARK                         _______ _______ _______ _____ _____    ______ ____
ROOT
ATOM      1  C   UNL     1       4.866   5.470  17.070  0.00  0.00    +0.000 A 
ATOM      2  C   UNL     1       4.628   6.794  16.672  0.00  0.00    +0.000 A 
ATOM      3  C   UNL     1       3.736   7.616  17.369  0.00  0.00    +0.000 A 
ATOM      4  C   UNL     1       3.101   7.057  18.487  0.00  0.00    +0.000 A 
ATOM      5  C   UNL     1       3.334   5.750  18.906  0.00  0.00    +0.000 A 
ATOM      6  C   UNL     1       4.233   4.939  18.201  0.00  0.00    +0.000 A 
ATOM      7  N   UNL     1       2.597   5.445  20.019  0.00  0.00    +0.000 NA
ATOM      8  C   UNL     1       1.920   6.537  20.289  0.00  0.00    +0.000 A 
ATOM      9  N   UNL     1       2.193   7.543  19.399  0.00  0.00    +0.000 N 
ENDROOT
BRANCH   9  10
ATOM     10  C   UNL     1       1.629   8.875  19.428  0.00  0.00    +0.000 C 
ATOM     11  C   UNL     1       0.845   9.244  18.171  0.00  0.00    +0.000 C 
ATOM     12  C   UNL     1      -0.002  10.433  18.603  0.00  0.00    +0.000 C 
ATOM     13  C   UNL     1      -0.234  10.272  20.104  0.00  0.00    +0.000 C 
ATOM     14  C   UNL     1       0.631   9.103  20.564  0.00  0.00    +0.000 C 
ENDBRANCH   9  10
BRANCH   1  16
ATOM     15  N   UNL     1       5.490   4.485  14.939  0.00  0.00    +0.000 N 
ATOM     16  C   UNL     1       5.813   4.655  16.267  0.00  0.00    +0.000 C 
ATOM     17  O   UNL     1       6.827   4.209  16.784  0.00  0.00    +0.000 OA
ATOM     18  H   UNL     1       4.679   4.949  14.550  0.00  0.00    +0.000 HD
BRANCH  15  19
ATOM     19  C   UNL     1       6.318   3.704  14.047  0.00  0.00    +0.000 C 
BRANCH  19  20
ATOM     20  C   UNL     1       5.936   3.895  12.575  0.00  0.00    +0.000 C 
BRANCH  20  22
ATOM     21  C   UNL     1       4.009   3.238  11.048  0.00  0.00    +0.000 C 
ATOM     22  C   UNL     1       5.112   2.734  11.981  0.00  0.00    +0.000 C 
ATOM     23  C   UNL     1       6.018   1.761  11.222  0.00  0.00    +0.000 C 
ENDBRANCH  20  22
ENDBRANCH  19  20
ENDBRANCH  15  19
ENDBRANCH   1  16
TORSDOF 5
ENDMDL
