MODEL 1
REMARK VINA RESULT:      -8.0      0.000      0.000
REMARK  Name = 
REMARK  11 active torsions:
REMARK  status: ('A' for Active; 'I' for Inactive)
REMARK    1  A    between atoms: C_1  and  C_2
REMARK    2  A    between atoms: C_2  and  C_3
REMARK    3  A    between atoms: C_3  and  C_4
REMARK    4  A    between atoms: C_6  and  C_7
REMARK    5  A    between atoms: C_7  and  O_8
REMARK    6  A    between atoms: O_8  and  C_9
REMARK    7  A    between atoms: C_9  and  C_10
REMARK    8  A    between atoms: C_10  and  C_11
REMARK    9  A    between atoms: C_10  and  C_12
REMARK   10  A    between atoms: N_16  and  N_17
REMARK   11  A    between atoms: C_20  and  C_21
REMARK                            x       y       z     vdW  Elec       q    Type
REMARK                         _______ _______ _______ _____ _____    ______ ____
ROOT
ATOM      1  C   UNL     1       3.976   1.604  18.450  0.00  0.00    +0.000 C 
ATOM      2  C   UNL     1       3.901   2.620  19.590  0.00  0.00    +0.000 C 
ATOM      3  N   UNL     1       4.811   3.523  19.787  0.00  0.00    +0.000 NA
ENDROOT
BRANCH   3   4
ATOM      4  N   UNL     1       5.851   3.565  18.887  0.00  0.00    +0.000 N 
ATOM      5  C   UNL     1       5.766   4.284  17.735  0.00  0.00    +0.000 A 
ATOM      6  N   UNL     1       6.385   3.971  16.615  0.00  0.00    +0.000 NA
ATOM      7  C   UNL     1       6.036   4.863  15.613  0.00  0.00    +0.000 A 
ATOM      8  C   UNL     1       5.259   5.922  16.027  0.00  0.00    +0.000 A 
ATOM      9  S   UNL     1       4.831   5.737  17.662  0.00  0.00    +0.000 S 
ATOM     10  H   UNL     1       6.441   2.743  18.804  0.00  0.00    +0.000 HD
BRANCH   7  11
ATOM     11  C   UNL     1       6.436   4.666  14.223  0.00  0.00    +0.000 A 
ATOM     12  C   UNL     1       5.825   3.670  13.442  0.00  0.00    +0.000 A 
ATOM     13  C   UNL     1       6.256   3.429  12.142  0.00  0.00    +0.000 A 
ATOM     14  C   UNL     1       7.299   4.182  11.610  0.00  0.00    +0.000 A 
ATOM     15  C   UNL     1       7.900   5.188  12.369  0.00  0.00    +0.000 A 
ATOM     16  C   UNL     1       7.469   5.428  13.672  0.00  0.00    +0.000 A 
ENDBRANCH   7  11
ENDBRANCH   3   4
BRANCH   2  17
ATOM     17  C   UNL     1       2.718   2.509  20.578  0.00  0.00    +0.000 C 
BRANCH  17  18
ATOM     18  C   UNL     1       1.533   3.480  20.414  0.00  0.00    +0.000 C 
ATOM     19  C   UNL     1       1.768   4.854  21.030  0.00  0.00    +0.000 C 
ATOM     20  C   UNL     1       1.450   5.856  19.938  0.00  0.00    +0.000 C 
ATOM     21  O   UNL     1       1.583   5.133  18.714  0.00  0.00    +0.000 OA
ATOM     22  C   UNL     1       1.292   3.821  18.947  0.00  0.00    +0.000 C 
ATOM     23  O   UNL     1       0.915   3.043  18.092  0.00  0.00    +0.000 OA
BRANCH  20  24
ATOM     24  C   UNL     1       2.365   7.085  19.975  0.00  0.00    +0.000 C 
BRANCH  24  25
ATOM     25  O   UNL     1       1.553   8.243  20.169  0.00  0.00    +0.000 OA
BRANCH  25  26
ATOM     26  C   UNL     1       1.372   8.570  21.544  0.00  0.00    +0.000 C 
BRANCH  26  27
ATOM     27  C   UNL     1      -0.069   9.056  21.746  0.00  0.00    +0.000 C 
ATOM     28  C   UNL     1      -0.277   9.613  23.157  0.00  0.00    +0.000 C 
ATOM     29  C   UNL     1      -0.425  10.108  20.699  0.00  0.00    +0.000 C 
ENDBRANCH  26  27
ENDBRANCH  25  26
ENDBRANCH  24  25
ENDBRANCH  20  24
ENDBRANCH  17  18
ENDBRANCH   2  17
TORSDOF 8
ENDMDL
MODEL 2
REMARK VINA RESULT:      -7.4      3.773     10.297
REMARK  Name = 
REMARK  11 active torsions:
REMARK  status: ('A' for Active; 'I' for Inactive)
REMARK    1  A    between atoms: C_1  and  C_2
REMARK    2  A    between atoms: C_2  and  C_3
REMARK    3  A    between atoms: C_3  and  C_4
REMARK    4  A    between atoms: C_6  and  C_7
REMARK    5  A    between atoms: C_7  and  O_8
REMARK    6  A    between atoms: O_8  and  C_9
REMARK    7  A    between atoms: C_9  and  C_10
REMARK    8  A    between atoms: C_10  and  C_11
REMARK    9  A    between atoms: C_10  and  C_12
REMARK   10  A    between atoms: N_16  and  N_17
REMARK   11  A    between atoms: C_20  and  C_21
REMARK                            x       y       z     vdW  Elec       q    Type
REMARK                         _______ _______ _______ _____ _____    ______ ____
ROOT
ATOM      1  C   UNL     1       3.137   5.950  19.394  0.00  0.00    +0.000 C 
ATOM      2  C   UNL     1       3.259   7.031  18.320  0.00  0.00    +0.000 C 
ATOM      3  N   UNL     1       2.578   8.133  18.352  0.00  0.00    +0.000 NA
ENDROOT
BRANCH   3   4
ATOM      4  N   UNL     1       1.753   8.324  19.438  0.00  0.00    +0.000 N 
ATOM      5  C   UNL     1       0.942   9.411  19.533  0.00  0.00    +0.000 A 
ATOM      6  N   UNL     1       0.578   9.971  20.669  0.00  0.00    +0.000 NA
ATOM      7  C   UNL     1      -0.190  11.098  20.420  0.00  0.00    +0.000 A 
ATOM      8  C   UNL     1      -0.511  11.297  19.096  0.00  0.00    +0.000 A 
ATOM      9  S   UNL     1       0.273  10.148  18.118  0.00  0.00    +0.000 S 
ATOM     10  H   UNL     1       2.067   7.978  20.339  0.00  0.00    +0.000 HD
BRANCH   7  11
ATOM     11  C   UNL     1      -0.593  12.014  21.482  0.00  0.00    +0.000 A 
ATOM     12  C   UNL     1      -1.368  11.556  22.561  0.00  0.00    +0.000 A 
ATOM     13  C   UNL     1      -1.817  12.442  23.533  0.00  0.00    +0.000 A 
ATOM     14  C   UNL     1      -1.494  13.792  23.440  0.00  0.00    +0.000 A 
ATOM     15  C   UNL     1      -0.707  14.256  22.384  0.00  0.00    +0.000 A 
ATOM     16  C   UNL     1      -0.258  13.369  21.408  0.00  0.00    +0.000 A 
ENDBRANCH   7  11
ENDBRANCH   3   4
BRANCH   2  17
ATOM     17  C   UNL     1       4.188   6.750  17.117  0.00  0.00    +0.000 C 
BRANCH  17  18
ATOM     18  C   UNL     1       5.417   5.847  17.336  0.00  0.00    +0.000 C 
ATOM     19  C   UNL     1       5.307   4.479  16.676  0.00  0.00    +0.000 C 
ATOM     20  C   UNL     1       6.572   4.311  15.860  0.00  0.00    +0.000 C 
ATOM     21  O   UNL     1       7.050   5.636  15.630  0.00  0.00    +0.000 OA
ATOM     22  C   UNL     1       6.660   6.428  16.669  0.00  0.00    +0.000 C 
ATOM     23  O   UNL     1       7.221   7.457  16.991  0.00  0.00    +0.000 OA
BRANCH  20  24
ATOM     24  C   UNL     1       6.335   3.555  14.547  0.00  0.00    +0.000 C 
BRANCH  24  25
ATOM     25  O   UNL     1       6.447   4.485  13.469  0.00  0.00    +0.000 OA
BRANCH  25  26
ATOM     26  C   UNL     1       6.629   3.851  12.206  0.00  0.00    +0.000 C 
BRANCH  26  27
ATOM     27  C   UNL     1       5.569   2.753  12.051  0.00  0.00    +0.000 C 
ATOM     28  C   UNL     1       4.319   3.280  11.342  0.00  0.00    +0.000 C 
ATOM     29  C   UNL     1       6.148   1.559  11.298  0.00  0.00    +0.000 C 
ENDBRANCH  26  27
ENDBRANCH  25  26
ENDBRANCH  24  25
ENDBRANCH  20  24
ENDBRANCH  17  18
ENDBRANCH   2  17
TORSDOF 8
ENDMDL
MODEL 3
REMARK VINA RESULT:      -7.4      4.337      8.926
REMARK  Name = 
REMARK  11 active torsions:
REMARK  status: ('A' for Active; 'I' for Inactive)
REMARK    1  A    between atoms: C_1  and  C_2
REMARK    2  A    between atoms: C_2  and  C_3
REMARK    3  A    between atoms: C_3  and  C_4
REMARK    4  A    between atoms: C_6  and  C_7
REMARK    5  A    between atoms: C_7  and  O_8
REMARK    6  A    between atoms: O_8  and  C_9
REMARK    7  A    between atoms: C_9  and  C_10
REMARK    8  A    between atoms: C_10  and  C_11
REMARK    9  A    between atoms: C_10  and  C_12
REMARK   10  A    between atoms: N_16  and  N_17
REMARK   11  A    between atoms: C_20  and  C_21
REMARK                            x       y       z     vdW  Elec       q    Type
REMARK                         _______ _______ _______ _____ _____    ______ ____
ROOT
ATOM      1  C   UNL     1       2.107   4.739  17.928  0.00  0.00    +0.000 C 
ATOM      2  C   UNL     1       3.447   5.385  18.278  0.00  0.00    +0.000 C 
ATOM      3  N   UNL     1       3.575   6.278  19.209  0.00  0.00    +0.000 NA
ENDROOT
BRANCH   3   4
ATOM      4  N   UNL     1       2.442   6.600  19.922  0.00  0.00    +0.000 N 
ATOM      5  C   UNL     1       1.858   7.824  19.814  0.00  0.00    +0.000 A 
ATOM      6  N   UNL     1       1.188   8.416  20.782  0.00  0.00    +0.000 NA
ATOM      7  C   UNL     1       0.781   9.677  20.376  0.00  0.00    +0.000 A 
ATOM      8  C   UNL     1       1.034   9.969  19.054  0.00  0.00    +0.000 A 
ATOM      9  S   UNL     1       1.923   8.712  18.332  0.00  0.00    +0.000 S 
ATOM     10  H   UNL     1       2.321   6.177  20.837  0.00  0.00    +0.000 HD
BRANCH   7  11
ATOM     11  C   UNL     1       0.166  10.629  21.296  0.00  0.00    +0.000 A 
ATOM     12  C   UNL     1      -0.646  10.176  22.350  0.00  0.00    +0.000 A 
ATOM     13  C   UNL     1      -1.294  11.082  23.181  0.00  0.00    +0.000 A 
ATOM     14  C   UNL     1      -1.137  12.449  22.968  0.00  0.00    +0.000 A 
ATOM     15  C   UNL     1      -0.318  12.911  21.937  0.00  0.00    +0.000 A 
ATOM     16  C   UNL     1       0.332  12.003  21.104  0.00  0.00    +0.000 A 
ENDBRANCH   7  11
ENDBRANCH   3   4
BRANCH   2  17
ATOM     17  C   UNL     1       4.678   4.995  17.429  0.00  0.00    +0.000 C 
BRANCH  17  18
ATOM     18  C   UNL     1       5.388   6.097  16.618  0.00  0.00    +0.000 C 
ATOM     19  C   UNL     1       5.898   7.257  17.463  0.00  0.00    +0.000 C 
ATOM     20  C   UNL     1       7.357   7.431  17.089  0.00  0.00    +0.000 C 
ATOM     21  O   UNL     1       7.756   6.174  16.545  0.00  0.00    +0.000 OA
ATOM     22  C   UNL     1       6.669   5.577  15.976  0.00  0.00    +0.000 C 
ATOM     23  O   UNL     1       6.732   4.738  15.099  0.00  0.00    +0.000 OA
BRANCH  20  24
ATOM     24  C   UNL     1       8.230   7.838  18.281  0.00  0.00    +0.000 C 
BRANCH  24  25
ATOM     25  O   UNL     1       8.550   9.223  18.149  0.00  0.00    +0.000 OA
BRANCH  25  26
ATOM     26  C   UNL     1       9.031   9.800  19.359  0.00  0.00    +0.000 C 
BRANCH  26  27
ATOM     27  C   UNL     1       9.565  11.206  19.055  0.00  0.00    +0.000 C 
ATOM     28  C   UNL     1      10.385  11.757  20.224  0.00  0.00    +0.000 C 
ATOM     29  C   UNL     1      10.399  11.191  17.777  0.00  0.00    +0.000 C 
ENDBRANCH  26  27
ENDBRANCH  25  26
ENDBRANCH  24  25
ENDBRANCH  20  24
ENDBRANCH  17  18
ENDBRANCH   2  17
TORSDOF 8
ENDMDL
MODEL 4
REMARK VINA RESULT:      -7.3      3.967      9.796
REMARK  Name = 
REMARK  11 active torsions:
REMARK  status: ('A' for Active; 'I' for Inactive)
REMARK    1  A    between atoms: C_1  and  C_2
REMARK    2  A    between atoms: C_2  and  C_3
REMARK    3  A    between atoms: C_3  and  C_4
REMARK    4  A    between atoms: C_6  and  C_7
REMARK    5  A    between atoms: C_7  and  O_8
REMARK    6  A    between atoms: O_8  and  C_9
REMARK    7  A    between atoms: C_9  and  C_10
REMARK    8  A    between atoms: C_10  and  C_11
REMARK    9  A    between atoms: C_10  and  C_12
REMARK   10  A    between atoms: N_16  and  N_17
REMARK   11  A    between atoms: C_20  and  C_21
REMARK                            x       y       z     vdW  Elec       q    Type
REMARK                         _______ _______ _______ _____ _____    ______ ____
ROOT
ATOM      1  C   UNL     1       2.709   9.245  17.685  0.00  0.00    +0.000 C 
ATOM      2  C   UNL     1       2.110   8.156  18.575  0.00  0.00    +0.000 C 
ATOM      3  N   UNL     1       1.357   8.419  19.598  0.00  0.00    +0.000 NA
ENDROOT
BRANCH   3   4
ATOM      4  N   UNL     1       1.070   9.745  19.835  0.00  0.00    +0.000 N 
ATOM      5  C   UNL     1       0.366  10.135  20.930  0.00  0.00    +0.000 A 
ATOM      6  N   UNL     1      -0.415  11.195  20.974  0.00  0.00    +0.000 NA
ATOM      7  C   UNL     1      -1.041  11.275  22.208  0.00  0.00    +0.000 A 
ATOM      8  C   UNL     1      -0.618  10.345  23.132  0.00  0.00    +0.000 A 
ATOM      9  S   UNL     1       0.474   9.256  22.416  0.00  0.00    +0.000 S 
ATOM     10  H   UNL     1       0.933  10.351  19.032  0.00  0.00    +0.000 HD
BRANCH   7  11
ATOM     11  C   UNL     1      -2.090  12.250  22.486  0.00  0.00    +0.000 A 
ATOM     12  C   UNL     1      -3.034  12.010  23.500  0.00  0.00    +0.000 A 
ATOM     13  C   UNL     1      -4.079  12.901  23.716  0.00  0.00    +0.000 A 
ATOM     14  C   UNL     1      -4.191  14.039  22.924  0.00  0.00    +0.000 A 
ATOM     15  C   UNL     1      -3.249  14.299  21.927  0.00  0.00    +0.000 A 
ATOM     16  C   UNL     1      -2.202  13.406  21.709  0.00  0.00    +0.000 A 
ENDBRANCH   7  11
ENDBRANCH   3   4
BRANCH   2  17
ATOM     17  C   UNL     1       2.484   6.689  18.269  0.00  0.00    +0.000 C 
BRANCH  17  18
ATOM     18  C   UNL     1       3.943   6.243  18.489  0.00  0.00    +0.000 C 
ATOM     19  C   UNL     1       4.125   5.267  19.644  0.00  0.00    +0.000 C 
ATOM     20  C   UNL     1       4.901   4.095  19.076  0.00  0.00    +0.000 C 
ATOM     21  O   UNL     1       4.676   4.143  17.668  0.00  0.00    +0.000 OA
ATOM     22  C   UNL     1       4.464   5.440  17.302  0.00  0.00    +0.000 C 
ATOM     23  O   UNL     1       4.650   5.871  16.181  0.00  0.00    +0.000 OA
BRANCH  20  24
ATOM     24  C   UNL     1       4.470   2.752  19.677  0.00  0.00    +0.000 C 
BRANCH  24  25
ATOM     25  O   UNL     1       3.222   2.939  20.343  0.00  0.00    +0.000 OA
BRANCH  25  26
ATOM     26  C   UNL     1       2.194   2.087  19.847  0.00  0.00    +0.000 C 
BRANCH  26  27
ATOM     27  C   UNL     1       1.007   2.954  19.408  0.00  0.00    +0.000 C 
ATOM     28  C   UNL     1       0.805   4.143  20.351  0.00  0.00    +0.000 C 
ATOM     29  C   UNL     1       1.206   3.438  17.974  0.00  0.00    +0.000 C 
ENDBRANCH  26  27
ENDBRANCH  25  26
ENDBRANCH  24  25
ENDBRANCH  20  24
ENDBRANCH  17  18
ENDBRANCH   2  17
TORSDOF 8
ENDMDL
MODEL 5
REMARK VINA RESULT:      -7.3      3.744      9.699
REMARK  Name = 
REMARK  11 active torsions:
REMARK  status: ('A' for Active; 'I' for Inactive)
REMARK    1  A    between atoms: C_1  and  C_2
REMARK    2  A    between atoms: C_2  and  C_3
REMARK    3  A    between atoms: C_3  and  C_4
REMARK    4  A    between atoms: C_6  and  C_7
REMARK    5  A    between atoms: C_7  and  O_8
REMARK    6  A    between atoms: O_8  and  C_9
REMARK    7  A    between atoms: C_9  and  C_10
REMARK    8  A    between atoms: C_10  and  C_11
REMARK    9  A    between atoms: C_10  and  C_12
REMARK   10  A    between atoms: N_16  and  N_17
REMARK   11  A    between atoms: C_20  and  C_21
REMARK                            x       y       z     vdW  Elec       q    Type
REMARK                         _______ _______ _______ _____ _____    ______ ____
ROOT
ATOM      1  C   UNL     1       1.329   5.437  20.746  0.00  0.00    +0.000 C 
ATOM      2  C   UNL     1       2.178   6.521  20.082  0.00  0.00    +0.000 C 
ATOM      3  N   UNL     1       1.950   7.788  20.241  0.00  0.00    +0.000 NA
ENDROOT
BRANCH   3   4
ATOM      4  N   UNL     1       0.919   8.133  21.085  0.00  0.00    +0.000 N 
ATOM      5  C   UNL     1       0.264   9.319  20.960  0.00  0.00    +0.000 A 
ATOM      6  N   UNL     1      -0.287   9.974  21.962  0.00  0.00    +0.000 NA
ATOM      7  C   UNL     1      -0.811  11.176  21.514  0.00  0.00    +0.000 A 
ATOM      8  C   UNL     1      -0.769  11.352  20.149  0.00  0.00    +0.000 A 
ATOM      9  S   UNL     1       0.067  10.066  19.413  0.00  0.00    +0.000 S 
ATOM     10  H   UNL     1       0.953   7.793  22.041  0.00  0.00    +0.000 HD
BRANCH   7  11
ATOM     11  C   UNL     1      -1.333  12.186  22.429  0.00  0.00    +0.000 A 
ATOM     12  C   UNL     1      -2.578  12.002  23.056  0.00  0.00    +0.000 A 
ATOM     13  C   UNL     1      -3.112  12.996  23.868  0.00  0.00    +0.000 A 
ATOM     14  C   UNL     1      -2.408  14.181  24.064  0.00  0.00    +0.000 A 
ATOM     15  C   UNL     1      -1.162  14.366  23.462  0.00  0.00    +0.000 A 
ATOM     16  C   UNL     1      -0.627  13.371  22.648  0.00  0.00    +0.000 A 
ENDBRANCH   7  11
ENDBRANCH   3   4
BRANCH   2  17
ATOM     17  C   UNL     1       3.310   6.070  19.132  0.00  0.00    +0.000 C 
BRANCH  17  18
ATOM     18  C   UNL     1       3.156   4.724  18.398  0.00  0.00    +0.000 C 
ATOM     19  C   UNL     1       3.612   4.756  16.944  0.00  0.00    +0.000 C 
ATOM     20  C   UNL     1       4.574   3.595  16.787  0.00  0.00    +0.000 C 
ATOM     21  O   UNL     1       5.039   3.312  18.106  0.00  0.00    +0.000 OA
ATOM     22  C   UNL     1       4.064   3.656  18.998  0.00  0.00    +0.000 C 
ATOM     23  O   UNL     1       3.962   3.184  20.113  0.00  0.00    +0.000 OA
BRANCH  20  24
ATOM     24  C   UNL     1       5.730   3.909  15.831  0.00  0.00    +0.000 C 
BRANCH  24  25
ATOM     25  O   UNL     1       6.147   5.255  16.058  0.00  0.00    +0.000 OA
BRANCH  25  26
ATOM     26  C   UNL     1       7.344   5.345  16.825  0.00  0.00    +0.000 C 
BRANCH  26  27
ATOM     27  C   UNL     1       7.115   6.327  17.981  0.00  0.00    +0.000 C 
ATOM     28  C   UNL     1       7.730   5.809  19.284  0.00  0.00    +0.000 C 
ATOM     29  C   UNL     1       7.682   7.699  17.631  0.00  0.00    +0.000 C 
ENDBRANCH  26  27
ENDBRANCH  25  26
ENDBRANCH  24  25
ENDBRANCH  20  24
ENDBRANCH  17  18
ENDBRANCH   2  17
TORSDOF 8
ENDMDL
MODEL 6
REMARK VINA RESULT:      -7.3      4.024      8.586
REMARK  Name = 
REMARK  11 active torsions:
REMARK  status: ('A' for Active; 'I' for Inactive)
REMARK    1  A    between atoms: C_1  and  C_2
REMARK    2  A    between atoms: C_2  and  C_3
REMARK    3  A    between atoms: C_3  and  C_4
REMARK    4  A    between atoms: C_6  and  C_7
REMARK    5  A    between atoms: C_7  and  O_8
REMARK    6  A    between atoms: O_8  and  C_9
REMARK    7  A    between atoms: C_9  and  C_10
REMARK    8  A    between atoms: C_10  and  C_11
REMARK    9  A    between atoms: C_10  and  C_12
REMARK   10  A    between atoms: N_16  and  N_17
REMARK   11  A    between atoms: C_20  and  C_21
REMARK                            x       y       z     vdW  Elec       q    Type
REMARK                         _______ _______ _______ _____ _____    ______ ____
ROOT
ATOM      1  C   UNL     1       2.576   4.111  18.010  0.00  0.00    +0.000 C 
ATOM      2  C   UNL     1       3.821   4.654  18.712  0.00  0.00    +0.000 C 
ATOM      3  N   UNL     1       3.761   5.480  19.710  0.00  0.00    +0.000 NA
ENDROOT
BRANCH   3   4
ATOM      4  N   UNL     1       2.505   5.826  20.157  0.00  0.00    +0.000 N 
ATOM      5  C   UNL     1       2.007   7.079  19.979  0.00  0.00    +0.000 A 
ATOM      6  N   UNL     1       1.152   7.662  20.793  0.00  0.00    +0.000 NA
ATOM      7  C   UNL     1       0.898   8.957  20.369  0.00  0.00    +0.000 A 
ATOM      8  C   UNL     1       1.462   9.290  19.158  0.00  0.00    +0.000 A 
ATOM      9  S   UNL     1       2.449   8.022  18.598  0.00  0.00    +0.000 S 
ATOM     10  H   UNL     1       2.159   5.372  20.996  0.00  0.00    +0.000 HD
BRANCH   7  11
ATOM     11  C   UNL     1       0.120   9.898  21.168  0.00  0.00    +0.000 A 
ATOM     12  C   UNL     1      -0.153  11.189  20.682  0.00  0.00    +0.000 A 
ATOM     13  C   UNL     1      -0.827  12.112  21.472  0.00  0.00    +0.000 A 
ATOM     14  C   UNL     1      -1.239  11.756  22.752  0.00  0.00    +0.000 A 
ATOM     15  C   UNL     1      -0.992  10.471  23.239  0.00  0.00    +0.000 A 
ATOM     16  C   UNL     1      -0.315   9.545  22.448  0.00  0.00    +0.000 A 
ENDBRANCH   7  11
ENDBRANCH   3   4
BRANCH   2  17
ATOM     17  C   UNL     1       5.201   4.242  18.152  0.00  0.00    +0.000 C 
BRANCH  17  18
ATOM     18  C   UNL     1       5.785   5.051  16.977  0.00  0.00    +0.000 C 
ATOM     19  C   UNL     1       5.484   6.543  17.042  0.00  0.00    +0.000 C 
ATOM     20  C   UNL     1       6.820   7.241  16.885  0.00  0.00    +0.000 C 
ATOM     21  O   UNL     1       7.796   6.272  17.266  0.00  0.00    +0.000 OA
ATOM     22  C   UNL     1       7.310   5.028  16.991  0.00  0.00    +0.000 C 
ATOM     23  O   UNL     1       8.005   4.049  16.806  0.00  0.00    +0.000 OA
BRANCH  20  24
ATOM     24  C   UNL     1       6.925   8.517  17.728  0.00  0.00    +0.000 C 
BRANCH  24  25
ATOM     25  O   UNL     1       8.245   9.041  17.585  0.00  0.00    +0.000 OA
BRANCH  25  26
ATOM     26  C   UNL     1       8.891   9.266  18.834  0.00  0.00    +0.000 C 
BRANCH  26  27
ATOM     27  C   UNL     1       9.118  10.773  19.005  0.00  0.00    +0.000 C 
ATOM     28  C   UNL     1       9.568  11.112  20.429  0.00  0.00    +0.000 C 
ATOM     29  C   UNL     1      10.140  11.274  17.988  0.00  0.00    +0.000 C 
ENDBRANCH  26  27
ENDBRANCH  25  26
ENDBRANCH  24  25
ENDBRANCH  20  24
ENDBRANCH  17  18
ENDBRANCH   2  17
TORSDOF 8
ENDMDL
MODEL 7
REMARK VINA RESULT:      -7.1      4.048      9.997
REMARK  Name = 
REMARK  11 active torsions:
REMARK  status: ('A' for Active; 'I' for Inactive)
REMARK    1  A    between atoms: C_1  and  C_2
REMARK    2  A    between atoms: C_2  and  C_3
REMARK    3  A    between atoms: C_3  and  C_4
REMARK    4  A    between atoms: C_6  and  C_7
REMARK    5  A    between atoms: C_7  and  O_8
REMARK    6  A    between atoms: O_8  and  C_9
REMARK    7  A    between atoms: C_9  and  C_10
REMARK    8  A    between atoms: C_10  and  C_11
REMARK    9  A    between atoms: C_10  and  C_12
REMARK   10  A    between atoms: N_16  and  N_17
REMARK   11  A    between atoms: C_20  and  C_21
REMARK                            x       y       z     vdW  Elec       q    Type
REMARK                         _______ _______ _______ _____ _____    ______ ____
ROOT
ATOM      1  C   UNL     1       2.344   8.595  18.198  0.00  0.00    +0.000 C 
ATOM      2  C   UNL     1       2.048   7.791  19.463  0.00  0.00    +0.000 C 
ATOM      3  N   UNL     1       1.461   8.302  20.500  0.00  0.00    +0.000 NA
ENDROOT
BRANCH   3   4
ATOM      4  N   UNL     1       1.063   9.617  20.404  0.00  0.00    +0.000 N 
ATOM      5  C   UNL     1       0.177  10.158  21.283  0.00  0.00    +0.000 A 
ATOM      6  N   UNL     1      -0.663  11.129  20.989  0.00  0.00    +0.000 NA
ATOM      7  C   UNL     1      -1.474  11.403  22.079  0.00  0.00    +0.000 A 
ATOM      8  C   UNL     1      -1.144  10.724  23.230  0.00  0.00    +0.000 A 
ATOM      9  S   UNL     1       0.108   9.614  22.923  0.00  0.00    +0.000 S 
ATOM     10  H   UNL     1       1.014  10.032  19.479  0.00  0.00    +0.000 HD
BRANCH   7  11
ATOM     11  C   UNL     1      -2.610  12.316  21.993  0.00  0.00    +0.000 A 
ATOM     12  C   UNL     1      -3.382  12.599  23.133  0.00  0.00    +0.000 A 
ATOM     13  C   UNL     1      -4.509  13.407  23.038  0.00  0.00    +0.000 A 
ATOM     14  C   UNL     1      -4.874  13.942  21.806  0.00  0.00    +0.000 A 
ATOM     15  C   UNL     1      -4.104  13.684  20.671  0.00  0.00    +0.000 A 
ATOM     16  C   UNL     1      -2.975  12.873  20.765  0.00  0.00    +0.000 A 
ENDBRANCH   7  11
ENDBRANCH   3   4
BRANCH   2  17
ATOM     17  C   UNL     1       2.535   6.325  19.516  0.00  0.00    +0.000 C 
BRANCH  17  18
ATOM     18  C   UNL     1       2.205   5.400  18.329  0.00  0.00    +0.000 C 
ATOM     19  C   UNL     1       3.353   5.224  17.343  0.00  0.00    +0.000 C 
ATOM     20  C   UNL     1       3.525   3.727  17.173  0.00  0.00    +0.000 C 
ATOM     21  O   UNL     1       2.946   3.148  18.341  0.00  0.00    +0.000 OA
ATOM     22  C   UNL     1       1.954   3.969  18.792  0.00  0.00    +0.000 C 
ATOM     23  O   UNL     1       1.023   3.600  19.480  0.00  0.00    +0.000 OA
BRANCH  20  24
ATOM     24  C   UNL     1       4.992   3.315  17.000  0.00  0.00    +0.000 C 
BRANCH  24  25
ATOM     25  O   UNL     1       5.795   4.165  17.819  0.00  0.00    +0.000 OA
BRANCH  25  26
ATOM     26  C   UNL     1       6.920   4.700  17.127  0.00  0.00    +0.000 C 
BRANCH  26  27
ATOM     27  C   UNL     1       7.593   5.748  18.023  0.00  0.00    +0.000 C 
ATOM     28  C   UNL     1       7.366   7.166  17.491  0.00  0.00    +0.000 C 
ATOM     29  C   UNL     1       7.083   5.627  19.456  0.00  0.00    +0.000 C 
ENDBRANCH  26  27
ENDBRANCH  25  26
ENDBRANCH  24  25
ENDBRANCH  20  24
ENDBRANCH  17  18
ENDBRANCH   2  17
TORSDOF 8
ENDMDL
MODEL 8
REMARK VINA RESULT:      -7.1      3.422      9.944
REMARK  Name = 
REMARK  11 active torsions:
REMARK  status: ('A' for Active; 'I' for Inactive)
REMARK    1  A    between atoms: C_1  and  C_2
REMARK    2  A    between atoms: C_2  and  C_3
REMARK    3  A    between atoms: C_3  and  C_4
REMARK    4  A    between atoms: C_6  and  C_7
REMARK    5  A    between atoms: C_7  and  O_8
REMARK    6  A    between atoms: O_8  and  C_9
REMARK    7  A    between atoms: C_9  and  C_10
REMARK    8  A    between atoms: C_10  and  C_11
REMARK    9  A    between atoms: C_10  and  C_12
REMARK   10  A    between atoms: N_16  and  N_17
REMARK   11  A    between atoms: C_20  and  C_21
REMARK                            x       y       z     vdW  Elec       q    Type
REMARK                         _______ _______ _______ _____ _____    ______ ____
ROOT
ATOM      1  C   UNL     1       2.374   5.599  17.940  0.00  0.00    +0.000 C 
ATOM      2  C   UNL     1       3.530   6.452  18.461  0.00  0.00    +0.000 C 
ATOM      3  N   UNL     1       3.384   7.336  19.398  0.00  0.00    +0.000 NA
ENDROOT
BRANCH   3   4
ATOM      4  N   UNL     1       2.130   7.454  19.953  0.00  0.00    +0.000 N 
ATOM      5  C   UNL     1       1.387   8.583  19.800  0.00  0.00    +0.000 A 
ATOM      6  N   UNL     1       0.510   9.021  20.679  0.00  0.00    +0.000 NA
ATOM      7  C   UNL     1      -0.025  10.228  20.258  0.00  0.00    +0.000 A 
ATOM      8  C   UNL     1       0.358  10.620  18.994  0.00  0.00    +0.000 A 
ATOM      9  S   UNL     1       1.516   9.544  18.368  0.00  0.00    +0.000 S 
ATOM     10  H   UNL     1       1.951   6.972  20.828  0.00  0.00    +0.000 HD
BRANCH   7  11
ATOM     11  C   UNL     1      -0.896  11.033  21.109  0.00  0.00    +0.000 A 
ATOM     12  C   UNL     1      -1.716  12.027  20.549  0.00  0.00    +0.000 A 
ATOM     13  C   UNL     1      -2.489  12.845  21.365  0.00  0.00    +0.000 A 
ATOM     14  C   UNL     1      -2.453  12.676  22.746  0.00  0.00    +0.000 A 
ATOM     15  C   UNL     1      -1.658  11.679  23.312  0.00  0.00    +0.000 A 
ATOM     16  C   UNL     1      -0.882  10.859  22.495  0.00  0.00    +0.000 A 
ENDBRANCH   7  11
ENDBRANCH   3   4
BRANCH   2  17
ATOM     17  C   UNL     1       4.910   6.286  17.785  0.00  0.00    +0.000 C 
BRANCH  17  18
ATOM     18  C   UNL     1       5.372   4.867  17.400  0.00  0.00    +0.000 C 
ATOM     19  C   UNL     1       5.212   4.544  15.920  0.00  0.00    +0.000 C 
ATOM     20  C   UNL     1       6.562   4.030  15.462  0.00  0.00    +0.000 C 
ATOM     21  O   UNL     1       7.500   4.544  16.407  0.00  0.00    +0.000 OA
ATOM     22  C   UNL     1       6.873   4.696  17.609  0.00  0.00    +0.000 C 
ATOM     23  O   UNL     1       7.445   4.710  18.681  0.00  0.00    +0.000 OA
BRANCH  20  24
ATOM     24  C   UNL     1       6.905   4.457  14.030  0.00  0.00    +0.000 C 
BRANCH  24  25
ATOM     25  O   UNL     1       6.401   3.466  13.134  0.00  0.00    +0.000 OA
BRANCH  25  26
ATOM     26  C   UNL     1       5.151   3.826  12.554  0.00  0.00    +0.000 C 
BRANCH  26  27
ATOM     27  C   UNL     1       4.993   3.077  11.225  0.00  0.00    +0.000 C 
ATOM     28  C   UNL     1       5.574   1.663  11.309  0.00  0.00    +0.000 C 
ATOM     29  C   UNL     1       3.524   3.028  10.815  0.00  0.00    +0.000 C 
ENDBRANCH  26  27
ENDBRANCH  25  26
ENDBRANCH  24  25
ENDBRANCH  20  24
ENDBRANCH  17  18
ENDBRANCH   2  17
TORSDOF 8
ENDMDL
MODEL 9
REMARK VINA RESULT:      -7.1      2.359      3.932
REMARK  Name = 
REMARK  11 active torsions:
REMARK  status: ('A' for Active; 'I' for Inactive)
REMARK    1  A    between atoms: C_1  and  C_2
REMARK    2  A    between atoms: C_2  and  C_3
REMARK    3  A    between atoms: C_3  and  C_4
REMARK    4  A    between atoms: C_6  and  C_7
REMARK    5  A    between atoms: C_7  and  O_8
REMARK    6  A    between atoms: O_8  and  C_9
REMARK    7  A    between atoms: C_9  and  C_10
REMARK    8  A    between atoms: C_10  and  C_11
REMARK    9  A    between atoms: C_10  and  C_12
REMARK   10  A    between atoms: N_16  and  N_17
REMARK   11  A    between atoms: C_20  and  C_21
REMARK                            x       y       z     vdW  Elec       q    Type
REMARK                         _______ _______ _______ _____ _____    ______ ____
ROOT
ATOM      1  C   UNL     1       1.315   3.948  19.733  0.00  0.00    +0.000 C 
ATOM      2  C   UNL     1       1.944   5.341  19.766  0.00  0.00    +0.000 C 
ATOM      3  N   UNL     1       2.972   5.666  19.046  0.00  0.00    +0.000 NA
ENDROOT
BRANCH   3   4
ATOM      4  N   UNL     1       3.464   4.702  18.195  0.00  0.00    +0.000 N 
ATOM      5  C   UNL     1       4.580   4.917  17.447  0.00  0.00    +0.000 A 
ATOM      6  N   UNL     1       4.803   4.370  16.270  0.00  0.00    +0.000 NA
ATOM      7  C   UNL     1       5.993   4.845  15.742  0.00  0.00    +0.000 A 
ATOM      8  C   UNL     1       6.724   5.645  16.592  0.00  0.00    +0.000 A 
ATOM      9  S   UNL     1       5.854   5.935  18.024  0.00  0.00    +0.000 S 
ATOM     10  H   UNL     1       2.800   4.075  17.753  0.00  0.00    +0.000 HD
BRANCH   7  11
ATOM     11  C   UNL     1       6.414   4.543  14.377  0.00  0.00    +0.000 A 
ATOM     12  C   UNL     1       7.457   5.270  13.778  0.00  0.00    +0.000 A 
ATOM     13  C   UNL     1       7.808   5.036  12.453  0.00  0.00    +0.000 A 
ATOM     14  C   UNL     1       7.124   4.074  11.716  0.00  0.00    +0.000 A 
ATOM     15  C   UNL     1       6.100   3.332  12.307  0.00  0.00    +0.000 A 
ATOM     16  C   UNL     1       5.747   3.566  13.634  0.00  0.00    +0.000 A 
ENDBRANCH   7  11
ENDBRANCH   3   4
BRANCH   2  17
ATOM     17  C   UNL     1       1.357   6.373  20.756  0.00  0.00    +0.000 C 
BRANCH  17  18
ATOM     18  C   UNL     1       1.809   7.841  20.637  0.00  0.00    +0.000 C 
ATOM     19  C   UNL     1       1.822   8.372  19.209  0.00  0.00    +0.000 C 
ATOM     20  C   UNL     1       1.026   9.661  19.241  0.00  0.00    +0.000 C 
ATOM     21  O   UNL     1       0.195   9.562  20.396  0.00  0.00    +0.000 OA
ATOM     22  C   UNL     1       0.826   8.784  21.323  0.00  0.00    +0.000 C 
ATOM     23  O   UNL     1       0.607   8.833  22.517  0.00  0.00    +0.000 OA
BRANCH  20  24
ATOM     24  C   UNL     1       0.204   9.881  17.966  0.00  0.00    +0.000 C 
BRANCH  24  25
ATOM     25  O   UNL     1      -1.148  10.142  18.344  0.00  0.00    +0.000 OA
BRANCH  25  26
ATOM     26  C   UNL     1      -2.075   9.905  17.289  0.00  0.00    +0.000 C 
BRANCH  26  27
ATOM     27  C   UNL     1      -2.893  11.182  17.058  0.00  0.00    +0.000 C 
ATOM     28  C   UNL     1      -3.742  11.080  15.788  0.00  0.00    +0.000 C 
ATOM     29  C   UNL     1      -3.775  11.473  18.269  0.00  0.00    +0.000 C 
ENDBRANCH  26  27
ENDBRANCH  25  26
ENDBRANCH  24  25
ENDBRANCH  20  24
ENDBRANCH  17  18
ENDBRANCH   2  17
TORSDOF 8
ENDMDL
