MODEL 1
REMARK VINA RESULT:      -7.5      0.000      0.000
REMARK  Name = 
REMARK  7 active torsions:
REMARK  status: ('A' for Active; 'I' for Inactive)
REMARK    1  A    between atoms: C_2  and  C_3
REMARK    2  A    between atoms: C_3  and  S_4
REMARK    3  A    between atoms: S_4  and  C_5
REMARK    4  A    between atoms: C_10  and  C_12
REMARK    5  A    between atoms: C_12  and  N_13
REMARK    6  A    between atoms: N_20  and  C_21
REMARK    7  A    between atoms: N_24  and  C_25
REMARK                            x       y       z     vdW  Elec       q    Type
REMARK                         _______ _______ _______ _____ _____    ______ ____
ROOT
ATOM      1  C   UNL     1       3.019   4.506  19.865  0.00  0.00    +0.000 C 
ENDROOT
BRANCH   1   2
ATOM      2  N   UNL     1       3.546   4.200  18.551  0.00  0.00    +0.000 N 
ATOM      3  C   UNL     1       2.884   3.533  17.552  0.00  0.00    +0.000 A 
ATOM      4  N   UNL     1       3.568   3.546  16.424  0.00  0.00    +0.000 NA
ATOM      5  C   UNL     1       4.697   4.248  16.716  0.00  0.00    +0.000 A 
ATOM      6  C   UNL     1       4.731   4.630  18.022  0.00  0.00    +0.000 A 
ATOM      7  C   UNL     1       5.814   5.339  18.596  0.00  0.00    +0.000 A 
ATOM      8  O   UNL     1       5.911   5.502  19.810  0.00  0.00    +0.000 OA
ATOM      9  N   UNL     1       6.728   5.785  17.642  0.00  0.00    +0.000 N 
ATOM     10  C   UNL     1       7.805   6.650  18.081  0.00  0.00    +0.000 C 
ATOM     11  C   UNL     1       6.758   5.381  16.289  0.00  0.00    +0.000 A 
ATOM     12  O   UNL     1       7.674   5.734  15.542  0.00  0.00    +0.000 OA
ATOM     13  N   UNL     1       5.713   4.565  15.848  0.00  0.00    +0.000 N 
ATOM     14  C   UNL     1       5.681   4.083  14.478  0.00  0.00    +0.000 C 
ENDBRANCH   1   2
BRANCH   1  20
ATOM     15  C   UNL     1       1.192  10.073  18.599  0.00  0.00    +0.000 A 
ATOM     16  N   UNL     1       1.995   9.924  17.567  0.00  0.00    +0.000 NA
ATOM     17  N   UNL     1       2.598   8.676  17.559  0.00  0.00    +0.000 NA
ATOM     18  C   UNL     1       2.252   7.952  18.602  0.00  0.00    +0.000 A 
ATOM     19  N   UNL     1       2.708   6.668  18.808  0.00  0.00    +0.000 N 
ATOM     20  C   UNL     1       2.538   5.935  19.963  0.00  0.00    +0.000 C 
ATOM     21  O   UNL     1       2.056   6.336  21.021  0.00  0.00    +0.000 OA
ATOM     22  S   UNL     1       1.119   8.710  19.629  0.00  0.00    +0.000 S 
ATOM     23  H   UNL     1       3.307   6.311  18.066  0.00  0.00    +0.000 HD
BRANCH  15  24
ATOM     24  S   UNL     1       0.280  11.531  18.912  0.00  0.00    +0.000 S 
BRANCH  24  25
ATOM     25  C   UNL     1      -1.406  10.871  19.004  0.00  0.00    +0.000 C 
BRANCH  25  27
ATOM     26  C   UNL     1      -2.310   9.881  16.871  0.00  0.00    +0.000 C 
ATOM     27  C   UNL     1      -2.034  10.942  17.641  0.00  0.00    +0.000 C 
ENDBRANCH  25  27
ENDBRANCH  24  25
ENDBRANCH  15  24
ENDBRANCH   1  20
TORSDOF 5
ENDMDL
MODEL 2
REMARK VINA RESULT:      -7.4      1.537      1.606
REMARK  Name = 
REMARK  7 active torsions:
REMARK  status: ('A' for Active; 'I' for Inactive)
REMARK    1  A    between atoms: C_2  and  C_3
REMARK    2  A    between atoms: C_3  and  S_4
REMARK    3  A    between atoms: S_4  and  C_5
REMARK    4  A    between atoms: C_10  and  C_12
REMARK    5  A    between atoms: C_12  and  N_13
REMARK    6  A    between atoms: N_20  and  C_21
REMARK    7  A    between atoms: N_24  and  C_25
REMARK                            x       y       z     vdW  Elec       q    Type
REMARK                         _______ _______ _______ _____ _____    ______ ____
ROOT
ATOM      1  C   UNL     1       3.008   4.774  19.733  0.00  0.00    +0.000 C 
ENDROOT
BRANCH   1   2
ATOM      2  N   UNL     1       3.596   4.306  18.494  0.00  0.00    +0.000 N 
ATOM      3  C   UNL     1       3.013   3.445  17.600  0.00  0.00    +0.000 A 
ATOM      4  N   UNL     1       3.730   3.332  16.498  0.00  0.00    +0.000 NA
ATOM      5  C   UNL     1       4.799   4.150  16.699  0.00  0.00    +0.000 A 
ATOM      6  C   UNL     1       4.765   4.733  17.929  0.00  0.00    +0.000 A 
ATOM      7  C   UNL     1       5.779   5.599  18.406  0.00  0.00    +0.000 A 
ATOM      8  O   UNL     1       5.826   5.956  19.580  0.00  0.00    +0.000 OA
ATOM      9  N   UNL     1       6.690   5.956  17.412  0.00  0.00    +0.000 N 
ATOM     10  C   UNL     1       7.690   6.955  17.731  0.00  0.00    +0.000 C 
ATOM     11  C   UNL     1       6.791   5.349  16.141  0.00  0.00    +0.000 A 
ATOM     12  O   UNL     1       7.704   5.646  15.366  0.00  0.00    +0.000 OA
ATOM     13  N   UNL     1       5.818   4.400  15.812  0.00  0.00    +0.000 N 
ATOM     14  C   UNL     1       5.863   3.710  14.536  0.00  0.00    +0.000 C 
ENDBRANCH   1   2
BRANCH   1  20
ATOM     15  C   UNL     1       0.725  10.252  20.576  0.00  0.00    +0.000 A 
ATOM     16  N   UNL     1       0.651   9.848  21.826  0.00  0.00    +0.000 NA
ATOM     17  N   UNL     1       1.134   8.558  21.980  0.00  0.00    +0.000 NA
ATOM     18  C   UNL     1       1.519   8.032  20.837  0.00  0.00    +0.000 A 
ATOM     19  N   UNL     1       2.051   6.766  20.734  0.00  0.00    +0.000 N 
ATOM     20  C   UNL     1       2.292   6.093  19.556  0.00  0.00    +0.000 C 
ATOM     21  O   UNL     1       1.976   6.458  18.426  0.00  0.00    +0.000 OA
ATOM     22  S   UNL     1       1.382   9.091  19.505  0.00  0.00    +0.000 S 
ATOM     23  H   UNL     1       2.158   6.283  21.624  0.00  0.00    +0.000 HD
BRANCH  15  24
ATOM     24  S   UNL     1       0.194  11.827  20.035  0.00  0.00    +0.000 S 
BRANCH  24  25
ATOM     25  C   UNL     1      -1.506  11.463  19.524  0.00  0.00    +0.000 C 
BRANCH  25  27
ATOM     26  C   UNL     1      -2.307  10.021  17.619  0.00  0.00    +0.000 C 
ATOM     27  C   UNL     1      -1.494  10.967  18.105  0.00  0.00    +0.000 C 
ENDBRANCH  25  27
ENDBRANCH  24  25
ENDBRANCH  15  24
ENDBRANCH   1  20
TORSDOF 5
ENDMDL
MODEL 3
REMARK VINA RESULT:      -7.4      3.118      4.909
REMARK  Name = 
REMARK  7 active torsions:
REMARK  status: ('A' for Active; 'I' for Inactive)
REMARK    1  A    between atoms: C_2  and  C_3
REMARK    2  A    between atoms: C_3  and  S_4
REMARK    3  A    between atoms: S_4  and  C_5
REMARK    4  A    between atoms: C_10  and  C_12
REMARK    5  A    between atoms: C_12  and  N_13
REMARK    6  A    between atoms: N_20  and  C_21
REMARK    7  A    between atoms: N_24  and  C_25
REMARK                            x       y       z     vdW  Elec       q    Type
REMARK                         _______ _______ _______ _____ _____    ______ ____
ROOT
ATOM      1  C   UNL     1       2.138   9.206  18.119  0.00  0.00    +0.000 C 
ENDROOT
BRANCH   1   2
ATOM      2  N   UNL     1       2.160   8.098  19.052  0.00  0.00    +0.000 N 
ATOM      3  C   UNL     1       1.487   8.035  20.245  0.00  0.00    +0.000 A 
ATOM      4  N   UNL     1       1.583   6.839  20.794  0.00  0.00    +0.000 NA
ATOM      5  C   UNL     1       2.337   6.119  19.918  0.00  0.00    +0.000 A 
ATOM      6  C   UNL     1       2.738   6.875  18.858  0.00  0.00    +0.000 A 
ATOM      7  C   UNL     1       3.567   6.380  17.822  0.00  0.00    +0.000 A 
ATOM      8  O   UNL     1       4.072   7.124  16.985  0.00  0.00    +0.000 OA
ATOM      9  N   UNL     1       3.744   4.998  17.891  0.00  0.00    +0.000 N 
ATOM     10  C   UNL     1       4.448   4.346  16.805  0.00  0.00    +0.000 C 
ATOM     11  C   UNL     1       3.385   4.184  18.987  0.00  0.00    +0.000 A 
ATOM     12  O   UNL     1       3.686   2.987  19.013  0.00  0.00    +0.000 OA
ATOM     13  N   UNL     1       2.685   4.796  20.030  0.00  0.00    +0.000 N 
ATOM     14  C   UNL     1       2.300   4.035  21.206  0.00  0.00    +0.000 C 
ENDBRANCH   1   2
BRANCH   1  20
ATOM     15  C   UNL     1      -3.519  11.189  18.059  0.00  0.00    +0.000 A 
ATOM     16  N   UNL     1      -3.601  10.423  16.992  0.00  0.00    +0.000 NA
ATOM     17  N   UNL     1      -2.401   9.781  16.725  0.00  0.00    +0.000 NA
ATOM     18  C   UNL     1      -1.459  10.117  17.579  0.00  0.00    +0.000 A 
ATOM     19  N   UNL     1      -0.183   9.598  17.531  0.00  0.00    +0.000 N 
ATOM     20  C   UNL     1       0.891  10.047  18.269  0.00  0.00    +0.000 C 
ATOM     21  O   UNL     1       0.917  11.036  18.997  0.00  0.00    +0.000 OA
ATOM     22  S   UNL     1      -1.980  11.184  18.805  0.00  0.00    +0.000 S 
ATOM     23  H   UNL     1      -0.041   8.903  16.800  0.00  0.00    +0.000 HD
BRANCH  15  24
ATOM     24  S   UNL     1      -4.849  12.143  18.669  0.00  0.00    +0.000 S 
BRANCH  24  25
ATOM     25  C   UNL     1      -6.266  11.178  18.082  0.00  0.00    +0.000 C 
BRANCH  25  27
ATOM     26  C   UNL     1      -7.375  11.003  20.338  0.00  0.00    +0.000 C 
ATOM     27  C   UNL     1      -6.863  10.430  19.241  0.00  0.00    +0.000 C 
ENDBRANCH  25  27
ENDBRANCH  24  25
ENDBRANCH  15  24
ENDBRANCH   1  20
TORSDOF 5
ENDMDL
MODEL 4
REMARK VINA RESULT:      -7.2      0.963      1.486
REMARK  Name = 
REMARK  7 active torsions:
REMARK  status: ('A' for Active; 'I' for Inactive)
REMARK    1  A    between atoms: C_2  and  C_3
REMARK    2  A    between atoms: C_3  and  S_4
REMARK    3  A    between atoms: S_4  and  C_5
REMARK    4  A    between atoms: C_10  and  C_12
REMARK    5  A    between atoms: C_12  and  N_13
REMARK    6  A    between atoms: N_20  and  C_21
REMARK    7  A    between atoms: N_24  and  C_25
REMARK                            x       y       z     vdW  Elec       q    Type
REMARK                         _______ _______ _______ _____ _____    ______ ____
ROOT
ATOM      1  C   UNL     1       2.951   4.550  19.795  0.00  0.00    +0.000 C 
ENDROOT
BRANCH   1   2
ATOM      2  N   UNL     1       3.480   4.269  18.476  0.00  0.00    +0.000 N 
ATOM      3  C   UNL     1       2.807   3.656  17.451  0.00  0.00    +0.000 A 
ATOM      4  N   UNL     1       3.502   3.683  16.329  0.00  0.00    +0.000 NA
ATOM      5  C   UNL     1       4.650   4.339  16.653  0.00  0.00    +0.000 A 
ATOM      6  C   UNL     1       4.684   4.678  17.971  0.00  0.00    +0.000 A 
ATOM      7  C   UNL     1       5.783   5.333  18.577  0.00  0.00    +0.000 A 
ATOM      8  O   UNL     1       5.874   5.454  19.796  0.00  0.00    +0.000 OA
ATOM      9  N   UNL     1       6.720   5.780  17.645  0.00  0.00    +0.000 N 
ATOM     10  C   UNL     1       7.819   6.596  18.121  0.00  0.00    +0.000 C 
ATOM     11  C   UNL     1       6.750   5.419  16.281  0.00  0.00    +0.000 A 
ATOM     12  O   UNL     1       7.683   5.766  15.552  0.00  0.00    +0.000 OA
ATOM     13  N   UNL     1       5.684   4.651  15.804  0.00  0.00    +0.000 N 
ATOM     14  C   UNL     1       5.649   4.215  14.419  0.00  0.00    +0.000 C 
ENDBRANCH   1   2
BRANCH   1  20
ATOM     15  C   UNL     1       1.203  10.171  18.667  0.00  0.00    +0.000 A 
ATOM     16  N   UNL     1       1.989  10.030  17.622  0.00  0.00    +0.000 NA
ATOM     17  N   UNL     1       2.572   8.772  17.581  0.00  0.00    +0.000 NA
ATOM     18  C   UNL     1       2.227   8.033  18.613  0.00  0.00    +0.000 A 
ATOM     19  N   UNL     1       2.663   6.737  18.787  0.00  0.00    +0.000 N 
ATOM     20  C   UNL     1       2.496   5.984  19.929  0.00  0.00    +0.000 C 
ATOM     21  O   UNL     1       2.036   6.370  21.001  0.00  0.00    +0.000 OA
ATOM     22  S   UNL     1       1.121   8.788  19.671  0.00  0.00    +0.000 S 
ATOM     23  H   UNL     1       3.246   6.386  18.029  0.00  0.00    +0.000 HD
BRANCH  15  24
ATOM     24  S   UNL     1       0.320  11.637  19.023  0.00  0.00    +0.000 S 
BRANCH  24  25
ATOM     25  C   UNL     1      -0.911  11.022  20.202  0.00  0.00    +0.000 C 
BRANCH  25  27
ATOM     26  C   UNL     1      -0.776  11.014  22.718  0.00  0.00    +0.000 C 
ATOM     27  C   UNL     1      -0.657  11.648  21.545  0.00  0.00    +0.000 C 
ENDBRANCH  25  27
ENDBRANCH  24  25
ENDBRANCH  15  24
ENDBRANCH   1  20
TORSDOF 5
ENDMDL
MODEL 5
REMARK VINA RESULT:      -7.1      1.978      2.372
REMARK  Name = 
REMARK  7 active torsions:
REMARK  status: ('A' for Active; 'I' for Inactive)
REMARK    1  A    between atoms: C_2  and  C_3
REMARK    2  A    between atoms: C_3  and  S_4
REMARK    3  A    between atoms: S_4  and  C_5
REMARK    4  A    between atoms: C_10  and  C_12
REMARK    5  A    between atoms: C_12  and  N_13
REMARK    6  A    between atoms: N_20  and  C_21
REMARK    7  A    between atoms: N_24  and  C_25
REMARK                            x       y       z     vdW  Elec       q    Type
REMARK                         _______ _______ _______ _____ _____    ______ ____
ROOT
ATOM      1  C   UNL     1       2.933   4.852  19.751  0.00  0.00    +0.000 C 
ENDROOT
BRANCH   1   2
ATOM      2  N   UNL     1       3.497   4.394  18.498  0.00  0.00    +0.000 N 
ATOM      3  C   UNL     1       2.869   3.601  17.572  0.00  0.00    +0.000 A 
ATOM      4  N   UNL     1       3.582   3.485  16.469  0.00  0.00    +0.000 NA
ATOM      5  C   UNL     1       4.696   4.231  16.700  0.00  0.00    +0.000 A 
ATOM      6  C   UNL     1       4.692   4.771  17.951  0.00  0.00    +0.000 A 
ATOM      7  C   UNL     1       5.752   5.559  18.460  0.00  0.00    +0.000 A 
ATOM      8  O   UNL     1       5.816   5.871  19.647  0.00  0.00    +0.000 OA
ATOM      9  N   UNL     1       6.687   5.897  17.482  0.00  0.00    +0.000 N 
ATOM     10  C   UNL     1       7.743   6.823  17.838  0.00  0.00    +0.000 C 
ATOM     11  C   UNL     1       6.757   5.330  16.190  0.00  0.00    +0.000 A 
ATOM     12  O   UNL     1       7.689   5.601  15.428  0.00  0.00    +0.000 OA
ATOM     13  N   UNL     1       5.732   4.453  15.826  0.00  0.00    +0.000 N 
ATOM     14  C   UNL     1       5.741   3.807  14.525  0.00  0.00    +0.000 C 
ENDBRANCH   1   2
BRANCH   1  20
ATOM     15  C   UNL     1       0.822  10.384  20.680  0.00  0.00    +0.000 A 
ATOM     16  N   UNL     1       0.810   9.990  21.935  0.00  0.00    +0.000 NA
ATOM     17  N   UNL     1       1.272   8.690  22.072  0.00  0.00    +0.000 NA
ATOM     18  C   UNL     1       1.580   8.149  20.913  0.00  0.00    +0.000 A 
ATOM     19  N   UNL     1       2.078   6.870  20.790  0.00  0.00    +0.000 N 
ATOM     20  C   UNL     1       2.237   6.185  19.605  0.00  0.00    +0.000 C 
ATOM     21  O   UNL     1       1.866   6.550  18.492  0.00  0.00    +0.000 OA
ATOM     22  S   UNL     1       1.392   9.202  19.582  0.00  0.00    +0.000 S 
ATOM     23  H   UNL     1       2.223   6.390  21.676  0.00  0.00    +0.000 HD
BRANCH  15  24
ATOM     24  S   UNL     1       0.297  11.967  20.158  0.00  0.00    +0.000 S 
BRANCH  24  25
ATOM     25  C   UNL     1       1.392  12.246  18.742  0.00  0.00    +0.000 C 
BRANCH  25  27
ATOM     26  C   UNL     1       2.753  14.347  18.450  0.00  0.00    +0.000 C 
ATOM     27  C   UNL     1       1.570  13.726  18.545  0.00  0.00    +0.000 C 
ENDBRANCH  25  27
ENDBRANCH  24  25
ENDBRANCH  15  24
ENDBRANCH   1  20
TORSDOF 5
ENDMDL
MODEL 6
REMARK VINA RESULT:      -7.0      1.864      2.166
REMARK  Name = 
REMARK  7 active torsions:
REMARK  status: ('A' for Active; 'I' for Inactive)
REMARK    1  A    between atoms: C_2  and  C_3
REMARK    2  A    between atoms: C_3  and  S_4
REMARK    3  A    between atoms: S_4  and  C_5
REMARK    4  A    between atoms: C_10  and  C_12
REMARK    5  A    between atoms: C_12  and  N_13
REMARK    6  A    between atoms: N_20  and  C_21
REMARK    7  A    between atoms: N_24  and  C_25
REMARK                            x       y       z     vdW  Elec       q    Type
REMARK                         _______ _______ _______ _____ _____    ______ ____
ROOT
ATOM      1  C   UNL     1       2.936   4.935  19.800  0.00  0.00    +0.000 C 
ENDROOT
BRANCH   1   2
ATOM      2  N   UNL     1       3.483   4.469  18.543  0.00  0.00    +0.000 N 
ATOM      3  C   UNL     1       2.832   3.694  17.618  0.00  0.00    +0.000 A 
ATOM      4  N   UNL     1       3.537   3.565  16.510  0.00  0.00    +0.000 NA
ATOM      5  C   UNL     1       4.669   4.286  16.738  0.00  0.00    +0.000 A 
ATOM      6  C   UNL     1       4.683   4.822  17.990  0.00  0.00    +0.000 A 
ATOM      7  C   UNL     1       5.764   5.584  18.496  0.00  0.00    +0.000 A 
ATOM      8  O   UNL     1       5.840   5.890  19.684  0.00  0.00    +0.000 OA
ATOM      9  N   UNL     1       6.700   5.904  17.514  0.00  0.00    +0.000 N 
ATOM     10  C   UNL     1       7.778   6.805  17.868  0.00  0.00    +0.000 C 
ATOM     11  C   UNL     1       6.751   5.340  16.220  0.00  0.00    +0.000 A 
ATOM     12  O   UNL     1       7.684   5.593  15.454  0.00  0.00    +0.000 OA
ATOM     13  N   UNL     1       5.704   4.487  15.858  0.00  0.00    +0.000 N 
ATOM     14  C   UNL     1       5.692   3.846  14.556  0.00  0.00    +0.000 C 
ENDBRANCH   1   2
BRANCH   1  20
ATOM     15  C   UNL     1       0.768  10.442  20.753  0.00  0.00    +0.000 A 
ATOM     16  N   UNL     1       0.721  10.028  22.001  0.00  0.00    +0.000 NA
ATOM     17  N   UNL     1       1.187   8.728  22.131  0.00  0.00    +0.000 NA
ATOM     18  C   UNL     1       1.531   8.207  20.973  0.00  0.00    +0.000 A 
ATOM     19  N   UNL     1       2.040   6.932  20.845  0.00  0.00    +0.000 N 
ATOM     20  C   UNL     1       2.237   6.267  19.654  0.00  0.00    +0.000 C 
ATOM     21  O   UNL     1       1.897   6.648  18.537  0.00  0.00    +0.000 OA
ATOM     22  S   UNL     1       1.376   9.280  19.655  0.00  0.00    +0.000 S 
ATOM     23  H   UNL     1       2.162   6.439  21.727  0.00  0.00    +0.000 HD
BRANCH  15  24
ATOM     24  S   UNL     1       0.250  12.030  20.241  0.00  0.00    +0.000 S 
BRANCH  24  25
ATOM     25  C   UNL     1      -1.547  11.803  20.173  0.00  0.00    +0.000 C 
BRANCH  25  27
ATOM     26  C   UNL     1      -3.001  12.648  22.049  0.00  0.00    +0.000 C 
ATOM     27  C   UNL     1      -2.207  12.874  20.994  0.00  0.00    +0.000 C 
ENDBRANCH  25  27
ENDBRANCH  24  25
ENDBRANCH  15  24
ENDBRANCH   1  20
TORSDOF 5
ENDMDL
MODEL 7
REMARK VINA RESULT:      -7.0      6.331      9.415
REMARK  Name = 
REMARK  7 active torsions:
REMARK  status: ('A' for Active; 'I' for Inactive)
REMARK    1  A    between atoms: C_2  and  C_3
REMARK    2  A    between atoms: C_3  and  S_4
REMARK    3  A    between atoms: S_4  and  C_5
REMARK    4  A    between atoms: C_10  and  C_12
REMARK    5  A    between atoms: C_12  and  N_13
REMARK    6  A    between atoms: N_20  and  C_21
REMARK    7  A    between atoms: N_24  and  C_25
REMARK                            x       y       z     vdW  Elec       q    Type
REMARK                         _______ _______ _______ _____ _____    ______ ____
ROOT
ATOM      1  C   UNL     1       9.498  10.351  19.526  0.00  0.00    +0.000 C 
ENDROOT
BRANCH   1   2
ATOM      2  N   UNL     1      10.022  11.499  18.816  0.00  0.00    +0.000 N 
ATOM      3  C   UNL     1      10.851  11.462  17.724  0.00  0.00    +0.000 A 
ATOM      4  N   UNL     1      11.029  12.664  17.209  0.00  0.00    +0.000 NA
ATOM      5  C   UNL     1      10.285  13.488  17.997  0.00  0.00    +0.000 A 
ATOM      6  C   UNL     1       9.686  12.809  19.014  0.00  0.00    +0.000 A 
ATOM      7  C   UNL     1       8.888  13.436  20.001  0.00  0.00    +0.000 A 
ATOM      8  O   UNL     1       8.520  12.841  21.011  0.00  0.00    +0.000 OA
ATOM      9  N   UNL     1       8.609  14.769  19.699  0.00  0.00    +0.000 N 
ATOM     10  C   UNL     1       7.679  15.481  20.552  0.00  0.00    +0.000 C 
ATOM     11  C   UNL     1       9.237  15.523  18.684  0.00  0.00    +0.000 A 
ATOM     12  O   UNL     1       9.015  16.731  18.562  0.00  0.00    +0.000 OA
ATOM     13  N   UNL     1      10.119  14.843  17.840  0.00  0.00    +0.000 N 
ATOM     14  C   UNL     1      10.826  15.549  16.787  0.00  0.00    +0.000 C 
ENDBRANCH   1   2
BRANCH   1  20
ATOM     15  C   UNL     1       6.409   5.748  17.246  0.00  0.00    +0.000 A 
ATOM     16  N   UNL     1       7.247   5.040  17.972  0.00  0.00    +0.000 NA
ATOM     17  N   UNL     1       8.135   5.847  18.668  0.00  0.00    +0.000 NA
ATOM     18  C   UNL     1       7.950   7.124  18.410  0.00  0.00    +0.000 A 
ATOM     19  N   UNL     1       8.698   8.124  18.994  0.00  0.00    +0.000 N 
ATOM     20  C   UNL     1       8.684   9.451  18.626  0.00  0.00    +0.000 C 
ATOM     21  O   UNL     1       8.096   9.939  17.663  0.00  0.00    +0.000 OA
ATOM     22  S   UNL     1       6.645   7.438  17.356  0.00  0.00    +0.000 S 
ATOM     23  H   UNL     1       9.382   7.793  19.672  0.00  0.00    +0.000 HD
BRANCH  15  24
ATOM     24  S   UNL     1       5.165   5.042  16.242  0.00  0.00    +0.000 S 
BRANCH  24  25
ATOM     25  C   UNL     1       6.149   3.933  15.199  0.00  0.00    +0.000 C 
BRANCH  25  27
ATOM     26  C   UNL     1       6.130   3.408  12.735  0.00  0.00    +0.000 C 
ATOM     27  C   UNL     1       5.854   4.230  13.756  0.00  0.00    +0.000 C 
ENDBRANCH  25  27
ENDBRANCH  24  25
ENDBRANCH  15  24
ENDBRANCH   1  20
TORSDOF 5
ENDMDL
MODEL 8
REMARK VINA RESULT:      -7.0      3.476      8.856
REMARK  Name = 
REMARK  7 active torsions:
REMARK  status: ('A' for Active; 'I' for Inactive)
REMARK    1  A    between atoms: C_2  and  C_3
REMARK    2  A    between atoms: C_3  and  S_4
REMARK    3  A    between atoms: S_4  and  C_5
REMARK    4  A    between atoms: C_10  and  C_12
REMARK    5  A    between atoms: C_12  and  N_13
REMARK    6  A    between atoms: N_20  and  C_21
REMARK    7  A    between atoms: N_24  and  C_25
REMARK                            x       y       z     vdW  Elec       q    Type
REMARK                         _______ _______ _______ _____ _____    ______ ____
ROOT
ATOM      1  C   UNL     1       1.644  10.287  18.257  0.00  0.00    +0.000 C 
ENDROOT
BRANCH   1   2
ATOM      2  N   UNL     1       0.754  10.938  19.197  0.00  0.00    +0.000 N 
ATOM      3  C   UNL     1       1.131  11.610  20.331  0.00  0.00    +0.000 A 
ATOM      4  N   UNL     1       0.107  12.223  20.894  0.00  0.00    +0.000 NA
ATOM      5  C   UNL     1      -0.951  11.935  20.088  0.00  0.00    +0.000 A 
ATOM      6  C   UNL     1      -0.594  11.117  19.059  0.00  0.00    +0.000 A 
ATOM      7  C   UNL     1      -1.514  10.633  18.097  0.00  0.00    +0.000 A 
ATOM      8  O   UNL     1      -1.212   9.749  17.299  0.00  0.00    +0.000 OA
ATOM      9  N   UNL     1      -2.761  11.250  18.190  0.00  0.00    +0.000 N 
ATOM     10  C   UNL     1      -3.746  10.953  17.170  0.00  0.00    +0.000 C 
ATOM     11  C   UNL     1      -3.189  12.068  19.259  0.00  0.00    +0.000 A 
ATOM     12  O   UNL     1      -4.351  12.477  19.319  0.00  0.00    +0.000 OA
ATOM     13  N   UNL     1      -2.242  12.380  20.238  0.00  0.00    +0.000 N 
ATOM     14  C   UNL     1      -2.605  13.195  21.384  0.00  0.00    +0.000 C 
ENDBRANCH   1   2
BRANCH   1  20
ATOM     15  C   UNL     1       3.896   4.751  18.715  0.00  0.00    +0.000 A 
ATOM     16  N   UNL     1       4.359   5.018  17.513  0.00  0.00    +0.000 NA
ATOM     17  N   UNL     1       4.004   6.292  17.096  0.00  0.00    +0.000 NA
ATOM     18  C   UNL     1       3.261   6.916  17.984  0.00  0.00    +0.000 A 
ATOM     19  N   UNL     1       2.797   8.201  17.805  0.00  0.00    +0.000 N 
ATOM     20  C   UNL     1       1.866   8.833  18.601  0.00  0.00    +0.000 C 
ATOM     21  O   UNL     1       1.225   8.329  19.521  0.00  0.00    +0.000 OA
ATOM     22  S   UNL     1       2.995   6.025  19.416  0.00  0.00    +0.000 S 
ATOM     23  H   UNL     1       3.109   8.643  16.943  0.00  0.00    +0.000 HD
BRANCH  15  24
ATOM     24  S   UNL     1       4.157   3.230  19.536  0.00  0.00    +0.000 S 
BRANCH  24  25
ATOM     25  C   UNL     1       2.593   2.380  19.196  0.00  0.00    +0.000 C 
BRANCH  25  27
ATOM     26  C   UNL     1       2.039   2.881  21.603  0.00  0.00    +0.000 C 
ATOM     27  C   UNL     1       1.656   2.599  20.351  0.00  0.00    +0.000 C 
ENDBRANCH  25  27
ENDBRANCH  24  25
ENDBRANCH  15  24
ENDBRANCH   1  20
TORSDOF 5
ENDMDL
MODEL 9
REMARK VINA RESULT:      -7.0      1.065      1.226
REMARK  Name = 
REMARK  7 active torsions:
REMARK  status: ('A' for Active; 'I' for Inactive)
REMARK    1  A    between atoms: C_2  and  C_3
REMARK    2  A    between atoms: C_3  and  S_4
REMARK    3  A    between atoms: S_4  and  C_5
REMARK    4  A    between atoms: C_10  and  C_12
REMARK    5  A    between atoms: C_12  and  N_13
REMARK    6  A    between atoms: N_20  and  C_21
REMARK    7  A    between atoms: N_24  and  C_25
REMARK                            x       y       z     vdW  Elec       q    Type
REMARK                         _______ _______ _______ _____ _____    ______ ____
ROOT
ATOM      1  C   UNL     1       3.285   3.712  19.903  0.00  0.00    +0.000 C 
ENDROOT
BRANCH   1   2
ATOM      2  N   UNL     1       3.763   3.710  18.536  0.00  0.00    +0.000 N 
ATOM      3  C   UNL     1       3.094   3.210  17.448  0.00  0.00    +0.000 A 
ATOM      4  N   UNL     1       3.719   3.494  16.321  0.00  0.00    +0.000 NA
ATOM      5  C   UNL     1       4.817   4.201  16.707  0.00  0.00    +0.000 A 
ATOM      6  C   UNL     1       4.892   4.318  18.061  0.00  0.00    +0.000 A 
ATOM      7  C   UNL     1       5.957   4.973  18.726  0.00  0.00    +0.000 A 
ATOM      8  O   UNL     1       6.105   4.899  19.943  0.00  0.00    +0.000 OA
ATOM      9  N   UNL     1       6.794   5.662  17.848  0.00  0.00    +0.000 N 
ATOM     10  C   UNL     1       7.836   6.496  18.412  0.00  0.00    +0.000 C 
ATOM     11  C   UNL     1       6.781   5.537  16.442  0.00  0.00    +0.000 A 
ATOM     12  O   UNL     1       7.635   6.094  15.747  0.00  0.00    +0.000 OA
ATOM     13  N   UNL     1       5.767   4.754  15.883  0.00  0.00    +0.000 N 
ATOM     14  C   UNL     1       5.696   4.553  14.447  0.00  0.00    +0.000 C 
ENDBRANCH   1   2
BRANCH   1  20
ATOM     15  C   UNL     1       1.033   9.268  19.892  0.00  0.00    +0.000 A 
ATOM     16  N   UNL     1       1.694   9.355  18.757  0.00  0.00    +0.000 NA
ATOM     17  N   UNL     1       2.351   8.173  18.451  0.00  0.00    +0.000 NA
ATOM     18  C   UNL     1       2.186   7.258  19.382  0.00  0.00    +0.000 A 
ATOM     19  N   UNL     1       2.728   5.994  19.297  0.00  0.00    +0.000 N 
ATOM     20  C   UNL     1       2.753   5.065  20.315  0.00  0.00    +0.000 C 
ATOM     21  O   UNL     1       2.402   5.244  21.479  0.00  0.00    +0.000 OA
ATOM     22  S   UNL     1       1.169   7.747  20.663  0.00  0.00    +0.000 S 
ATOM     23  H   UNL     1       3.236   5.814  18.433  0.00  0.00    +0.000 HD
BRANCH  15  24
ATOM     24  S   UNL     1       0.103  10.581  20.573  0.00  0.00    +0.000 S 
BRANCH  24  25
ATOM     25  C   UNL     1      -1.066  10.911  19.228  0.00  0.00    +0.000 C 
BRANCH  25  27
ATOM     26  C   UNL     1      -0.466  13.175  18.297  0.00  0.00    +0.000 C 
ATOM     27  C   UNL     1      -1.229  12.397  19.076  0.00  0.00    +0.000 C 
ENDBRANCH  25  27
ENDBRANCH  24  25
ENDBRANCH  15  24
ENDBRANCH   1  20
TORSDOF 5
ENDMDL
