MODEL 1
REMARK VINA RESULT:      -5.6      0.000      0.000
REMARK  Name = 
REMARK  22 active torsions:
REMARK  status: ('A' for Active; 'I' for Inactive)
REMARK    1  A    between atoms: C_1  and  C_2
REMARK    2  A    between atoms: C_2  and  C_3
REMARK    3  A    between atoms: C_3  and  C_4
REMARK    4  A    between atoms: C_4  and  C_5
REMARK    5  A    between atoms: C_5  and  C_6
REMARK    6  A    between atoms: C_6  and  C_7
REMARK    7  A    between atoms: C_7  and  C_8
REMARK    8  A    between atoms: C_8  and  C_9
REMARK    9  A    between atoms: C_9  and  C_10
REMARK   10  A    between atoms: C_10  and  C_11
REMARK   11  A    between atoms: C_11  and  C_12
REMARK   12  A    between atoms: C_12  and  C_13
REMARK   13  A    between atoms: C_13  and  C_14
REMARK   14  A    between atoms: C_14  and  S_15
REMARK   15  A    between atoms: S_15  and  N_18
REMARK   16  A    between atoms: N_18  and  C_19
REMARK   17  A    between atoms: C_19  and  C_20
REMARK   18  A    between atoms: C_20  and  C_21
REMARK   19  A    between atoms: C_21  and  N_22
REMARK   20  A    between atoms: N_22  and  C_23
REMARK   21  A    between atoms: N_22  and  C_24
REMARK   22  A    between atoms: N_22  and  C_25
REMARK                            x       y       z     vdW  Elec       q    Type
REMARK                         _______ _______ _______ _____ _____    ______ ____
ROOT
ATOM      1  C   UNL     1       4.825   5.115  18.290  0.00  0.00    +0.000 C 
ENDROOT
BRANCH   1   2
ATOM      2  C   UNL     1       5.338   5.730  16.999  0.00  0.00    +0.000 C 
BRANCH   2   3
ATOM      3  S   UNL     1       7.132   5.744  17.073  0.00  0.00    +0.000 S 
ATOM      4  O   UNL     1       7.588   4.532  17.714  0.00  0.00    +0.000 OA
ATOM      5  O   UNL     1       7.684   6.163  15.800  0.00  0.00    +0.000 OA
BRANCH   3   6
ATOM      6  N   UNL     1       7.459   7.001  18.159  0.00  0.00    +0.000 NA
ATOM      7  H   UNL     1       7.999   6.677  18.965  0.00  0.00    +0.000 HD
BRANCH   6   8
ATOM      8  C   UNL     1       8.059   8.220  17.562  0.00  0.00    +0.000 C 
BRANCH   8   9
ATOM      9  C   UNL     1       8.597   9.206  18.600  0.00  0.00    +0.000 C 
BRANCH   9  10
ATOM     10  C   UNL     1       8.768  10.607  18.020  0.00  0.00    +0.000 C 
BRANCH  10  11
ATOM     11  N   UNL     1       9.573  11.556  18.933  0.00  0.00    +0.000 N 
ATOM     12  C   UNL     1       8.914  12.921  19.048  0.00  0.00    +0.000 C 
ATOM     13  C   UNL     1       9.761  10.948  20.324  0.00  0.00    +0.000 C 
ATOM     14  C   UNL     1      10.959  11.730  18.310  0.00  0.00    +0.000 C 
ENDBRANCH  10  11
ENDBRANCH   9  10
ENDBRANCH   8   9
ENDBRANCH   6   8
ENDBRANCH   3   6
ENDBRANCH   2   3
ENDBRANCH   1   2
BRANCH   1  15
ATOM     15  C   UNL     1       4.350   3.676  18.137  0.00  0.00    +0.000 C 
BRANCH  15  16
ATOM     16  C   UNL     1       2.996   3.612  17.423  0.00  0.00    +0.000 C 
BRANCH  16  17
ATOM     17  C   UNL     1       2.252   2.309  17.712  0.00  0.00    +0.000 C 
BRANCH  17  18
ATOM     18  C   UNL     1       0.953   2.550  18.461  0.00  0.00    +0.000 C 
BRANCH  18  19
ATOM     19  C   UNL     1       1.245   2.726  19.948  0.00  0.00    +0.000 C 
BRANCH  19  20
ATOM     20  C   UNL     1       0.887   4.131  20.403  0.00  0.00    +0.000 C 
BRANCH  20  21
ATOM     21  C   UNL     1       2.140   4.901  20.800  0.00  0.00    +0.000 C 
BRANCH  21  22
ATOM     22  C   UNL     1       1.872   6.399  20.753  0.00  0.00    +0.000 C 
BRANCH  22  23
ATOM     23  C   UNL     1       2.138   6.956  19.360  0.00  0.00    +0.000 C 
BRANCH  23  24
ATOM     24  C   UNL     1       1.834   8.450  19.316  0.00  0.00    +0.000 C 
BRANCH  24  26
ATOM     25  C   UNL     1       1.936  10.518  17.902  0.00  0.00    +0.000 C 
ATOM     26  C   UNL     1       1.998   9.000  17.904  0.00  0.00    +0.000 C 
ENDBRANCH  24  26
ENDBRANCH  23  24
ENDBRANCH  22  23
ENDBRANCH  21  22
ENDBRANCH  20  21
ENDBRANCH  19  20
ENDBRANCH  18  19
ENDBRANCH  17  18
ENDBRANCH  16  17
ENDBRANCH  15  16
ENDBRANCH   1  15
TORSDOF 18
ENDMDL
MODEL 2
REMARK VINA RESULT:      -5.5      0.955      1.489
REMARK  Name = 
REMARK  22 active torsions:
REMARK  status: ('A' for Active; 'I' for Inactive)
REMARK    1  A    between atoms: C_1  and  C_2
REMARK    2  A    between atoms: C_2  and  C_3
REMARK    3  A    between atoms: C_3  and  C_4
REMARK    4  A    between atoms: C_4  and  C_5
REMARK    5  A    between atoms: C_5  and  C_6
REMARK    6  A    between atoms: C_6  and  C_7
REMARK    7  A    between atoms: C_7  and  C_8
REMARK    8  A    between atoms: C_8  and  C_9
REMARK    9  A    between atoms: C_9  and  C_10
REMARK   10  A    between atoms: C_10  and  C_11
REMARK   11  A    between atoms: C_11  and  C_12
REMARK   12  A    between atoms: C_12  and  C_13
REMARK   13  A    between atoms: C_13  and  C_14
REMARK   14  A    between atoms: C_14  and  S_15
REMARK   15  A    between atoms: S_15  and  N_18
REMARK   16  A    between atoms: N_18  and  C_19
REMARK   17  A    between atoms: C_19  and  C_20
REMARK   18  A    between atoms: C_20  and  C_21
REMARK   19  A    between atoms: C_21  and  N_22
REMARK   20  A    between atoms: N_22  and  C_23
REMARK   21  A    between atoms: N_22  and  C_24
REMARK   22  A    between atoms: N_22  and  C_25
REMARK                            x       y       z     vdW  Elec       q    Type
REMARK                         _______ _______ _______ _____ _____    ______ ____
ROOT
ATOM      1  C   UNL     1       5.088   5.359  18.347  0.00  0.00    +0.000 C 
ENDROOT
BRANCH   1   2
ATOM      2  C   UNL     1       6.588   5.438  18.116  0.00  0.00    +0.000 C 
BRANCH   2   3
ATOM      3  S   UNL     1       6.856   6.221  16.522  0.00  0.00    +0.000 S 
ATOM      4  O   UNL     1       7.488   5.275  15.632  0.00  0.00    +0.000 OA
ATOM      5  O   UNL     1       5.671   6.947  16.113  0.00  0.00    +0.000 OA
BRANCH   3   6
ATOM      6  N   UNL     1       8.026   7.395  16.867  0.00  0.00    +0.000 NA
ATOM      7  H   UNL     1       8.527   7.692  16.026  0.00  0.00    +0.000 HD
BRANCH   6   8
ATOM      8  C   UNL     1       7.548   8.561  17.651  0.00  0.00    +0.000 C 
BRANCH   8   9
ATOM      9  C   UNL     1       8.628   9.188  18.533  0.00  0.00    +0.000 C 
BRANCH   9  10
ATOM     10  C   UNL     1       8.999  10.593  18.067  0.00  0.00    +0.000 C 
BRANCH  10  11
ATOM     11  N   UNL     1       9.640  11.458  19.173  0.00  0.00    +0.000 N 
ATOM     12  C   UNL     1      11.149  11.546  19.017  0.00  0.00    +0.000 C 
ATOM     13  C   UNL     1       9.034  12.864  19.189  0.00  0.00    +0.000 C 
ATOM     14  C   UNL     1       9.321  10.800  20.517  0.00  0.00    +0.000 C 
ENDBRANCH  10  11
ENDBRANCH   9  10
ENDBRANCH   8   9
ENDBRANCH   6   8
ENDBRANCH   3   6
ENDBRANCH   2   3
ENDBRANCH   1   2
BRANCH   1  15
ATOM     15  C   UNL     1       4.655   4.144  19.156  0.00  0.00    +0.000 C 
BRANCH  15  16
ATOM     16  C   UNL     1       4.081   3.050  18.250  0.00  0.00    +0.000 C 
BRANCH  16  17
ATOM     17  C   UNL     1       3.017   3.592  17.296  0.00  0.00    +0.000 C 
BRANCH  17  18
ATOM     18  C   UNL     1       1.969   4.417  18.022  0.00  0.00    +0.000 C 
BRANCH  18  19
ATOM     19  C   UNL     1       1.224   3.535  19.019  0.00  0.00    +0.000 C 
BRANCH  19  20
ATOM     20  C   UNL     1       0.990   4.277  20.323  0.00  0.00    +0.000 C 
BRANCH  20  21
ATOM     21  C   UNL     1       1.952   5.451  20.454  0.00  0.00    +0.000 C 
BRANCH  21  22
ATOM     22  C   UNL     1       1.236   6.653  21.052  0.00  0.00    +0.000 C 
BRANCH  22  23
ATOM     23  C   UNL     1       1.695   7.945  20.387  0.00  0.00    +0.000 C 
BRANCH  23  24
ATOM     24  C   UNL     1       2.212   7.666  18.980  0.00  0.00    +0.000 C 
BRANCH  24  26
ATOM     25  C   UNL     1       0.881   9.482  17.876  0.00  0.00    +0.000 C 
ATOM     26  C   UNL     1       2.275   8.947  18.156  0.00  0.00    +0.000 C 
ENDBRANCH  24  26
ENDBRANCH  23  24
ENDBRANCH  22  23
ENDBRANCH  21  22
ENDBRANCH  20  21
ENDBRANCH  19  20
ENDBRANCH  18  19
ENDBRANCH  17  18
ENDBRANCH  16  17
ENDBRANCH  15  16
ENDBRANCH   1  15
TORSDOF 18
ENDMDL
MODEL 3
REMARK VINA RESULT:      -5.4      3.602      5.812
REMARK  Name = 
REMARK  22 active torsions:
REMARK  status: ('A' for Active; 'I' for Inactive)
REMARK    1  A    between atoms: C_1  and  C_2
REMARK    2  A    between atoms: C_2  and  C_3
REMARK    3  A    between atoms: C_3  and  C_4
REMARK    4  A    between atoms: C_4  and  C_5
REMARK    5  A    between atoms: C_5  and  C_6
REMARK    6  A    between atoms: C_6  and  C_7
REMARK    7  A    between atoms: C_7  and  C_8
REMARK    8  A    between atoms: C_8  and  C_9
REMARK    9  A    between atoms: C_9  and  C_10
REMARK   10  A    between atoms: C_10  and  C_11
REMARK   11  A    between atoms: C_11  and  C_12
REMARK   12  A    between atoms: C_12  and  C_13
REMARK   13  A    between atoms: C_13  and  C_14
REMARK   14  A    between atoms: C_14  and  S_15
REMARK   15  A    between atoms: S_15  and  N_18
REMARK   16  A    between atoms: N_18  and  C_19
REMARK   17  A    between atoms: C_19  and  C_20
REMARK   18  A    between atoms: C_20  and  C_21
REMARK   19  A    between atoms: C_21  and  N_22
REMARK   20  A    between atoms: N_22  and  C_23
REMARK   21  A    between atoms: N_22  and  C_24
REMARK   22  A    between atoms: N_22  and  C_25
REMARK                            x       y       z     vdW  Elec       q    Type
REMARK                         _______ _______ _______ _____ _____    ______ ____
ROOT
ATOM      1  C   UNL     1       1.623   2.631  20.440  0.00  0.00    +0.000 C 
ENDROOT
BRANCH   1   2
ATOM      2  C   UNL     1       3.035   2.784  20.979  0.00  0.00    +0.000 C 
BRANCH   2   3
ATOM      3  S   UNL     1       4.148   1.946  19.845  0.00  0.00    +0.000 S 
ATOM      4  O   UNL     1       5.330   1.531  20.565  0.00  0.00    +0.000 OA
ATOM      5  O   UNL     1       3.413   1.008  19.021  0.00  0.00    +0.000 OA
BRANCH   3   6
ATOM      6  N   UNL     1       4.642   3.190  18.808  0.00  0.00    +0.000 NA
ATOM      7  H   UNL     1       5.659   3.216  18.703  0.00  0.00    +0.000 HD
BRANCH   6   8
ATOM      8  C   UNL     1       3.961   3.229  17.490  0.00  0.00    +0.000 C 
BRANCH   8   9
ATOM      9  C   UNL     1       4.776   3.933  16.403  0.00  0.00    +0.000 C 
BRANCH   9  10
ATOM     10  C   UNL     1       5.301   5.286  16.873  0.00  0.00    +0.000 C 
BRANCH  10  11
ATOM     11  N   UNL     1       6.814   5.476  16.632  0.00  0.00    +0.000 N 
ATOM     12  C   UNL     1       7.646   4.600  17.555  0.00  0.00    +0.000 C 
ATOM     13  C   UNL     1       7.176   5.188  15.173  0.00  0.00    +0.000 C 
ATOM     14  C   UNL     1       7.146   6.942  16.913  0.00  0.00    +0.000 C 
ENDBRANCH  10  11
ENDBRANCH   9  10
ENDBRANCH   8   9
ENDBRANCH   6   8
ENDBRANCH   3   6
ENDBRANCH   2   3
ENDBRANCH   1   2
BRANCH   1  15
ATOM     15  C   UNL     1       1.079   3.891  19.778  0.00  0.00    +0.000 C 
BRANCH  15  16
ATOM     16  C   UNL     1       1.965   5.103  20.082  0.00  0.00    +0.000 C 
BRANCH  16  17
ATOM     17  C   UNL     1       2.287   5.912  18.825  0.00  0.00    +0.000 C 
BRANCH  17  18
ATOM     18  C   UNL     1       2.454   7.391  19.128  0.00  0.00    +0.000 C 
BRANCH  18  19
ATOM     19  C   UNL     1       2.531   8.175  17.822  0.00  0.00    +0.000 C 
BRANCH  19  20
ATOM     20  C   UNL     1       1.339   9.107  17.684  0.00  0.00    +0.000 C 
BRANCH  20  21
ATOM     21  C   UNL     1       1.393  10.206  18.738  0.00  0.00    +0.000 C 
BRANCH  21  22
ATOM     22  C   UNL     1       0.052  10.924  18.816  0.00  0.00    +0.000 C 
BRANCH  22  23
ATOM     23  C   UNL     1      -0.671  10.583  20.113  0.00  0.00    +0.000 C 
BRANCH  23  24
ATOM     24  C   UNL     1      -0.208  11.500  21.240  0.00  0.00    +0.000 C 
BRANCH  24  26
ATOM     25  C   UNL     1      -0.650  10.064  23.248  0.00  0.00    +0.000 C 
ATOM     26  C   UNL     1      -1.064  11.312  22.487  0.00  0.00    +0.000 C 
ENDBRANCH  24  26
ENDBRANCH  23  24
ENDBRANCH  22  23
ENDBRANCH  21  22
ENDBRANCH  20  21
ENDBRANCH  19  20
ENDBRANCH  18  19
ENDBRANCH  17  18
ENDBRANCH  16  17
ENDBRANCH  15  16
ENDBRANCH   1  15
TORSDOF 18
ENDMDL
MODEL 4
REMARK VINA RESULT:      -5.4      2.624      9.363
REMARK  Name = 
REMARK  22 active torsions:
REMARK  status: ('A' for Active; 'I' for Inactive)
REMARK    1  A    between atoms: C_1  and  C_2
REMARK    2  A    between atoms: C_2  and  C_3
REMARK    3  A    between atoms: C_3  and  C_4
REMARK    4  A    between atoms: C_4  and  C_5
REMARK    5  A    between atoms: C_5  and  C_6
REMARK    6  A    between atoms: C_6  and  C_7
REMARK    7  A    between atoms: C_7  and  C_8
REMARK    8  A    between atoms: C_8  and  C_9
REMARK    9  A    between atoms: C_9  and  C_10
REMARK   10  A    between atoms: C_10  and  C_11
REMARK   11  A    between atoms: C_11  and  C_12
REMARK   12  A    between atoms: C_12  and  C_13
REMARK   13  A    between atoms: C_13  and  C_14
REMARK   14  A    between atoms: C_14  and  S_15
REMARK   15  A    between atoms: S_15  and  N_18
REMARK   16  A    between atoms: N_18  and  C_19
REMARK   17  A    between atoms: C_19  and  C_20
REMARK   18  A    between atoms: C_20  and  C_21
REMARK   19  A    between atoms: C_21  and  N_22
REMARK   20  A    between atoms: N_22  and  C_23
REMARK   21  A    between atoms: N_22  and  C_24
REMARK   22  A    between atoms: N_22  and  C_25
REMARK                            x       y       z     vdW  Elec       q    Type
REMARK                         _______ _______ _______ _____ _____    ______ ____
ROOT
ATOM      1  C   UNL     1       8.220   7.901  18.403  0.00  0.00    +0.000 C 
ENDROOT
BRANCH   1   2
ATOM      2  C   UNL     1       7.415   6.990  17.491  0.00  0.00    +0.000 C 
BRANCH   2   3
ATOM      3  S   UNL     1       7.478   5.332  18.179  0.00  0.00    +0.000 S 
ATOM      4  O   UNL     1       8.054   4.438  17.202  0.00  0.00    +0.000 OA
ATOM      5  O   UNL     1       7.980   5.370  19.537  0.00  0.00    +0.000 OA
BRANCH   3   6
ATOM      6  N   UNL     1       5.843   4.908  18.298  0.00  0.00    +0.000 NA
ATOM      7  H   UNL     1       5.275   5.679  18.659  0.00  0.00    +0.000 HD
BRANCH   6   8
ATOM      8  C   UNL     1       5.245   4.325  17.071  0.00  0.00    +0.000 C 
BRANCH   8   9
ATOM      9  C   UNL     1       4.052   3.409  17.350  0.00  0.00    +0.000 C 
BRANCH   9  10
ATOM     10  C   UNL     1       3.704   3.366  18.836  0.00  0.00    +0.000 C 
BRANCH  10  11
ATOM     11  N   UNL     1       2.256   3.805  19.141  0.00  0.00    +0.000 N 
ATOM     12  C   UNL     1       1.437   2.673  19.740  0.00  0.00    +0.000 C 
ATOM     13  C   UNL     1       2.237   5.015  20.077  0.00  0.00    +0.000 C 
ATOM     14  C   UNL     1       1.615   4.231  17.819  0.00  0.00    +0.000 C 
ENDBRANCH  10  11
ENDBRANCH   9  10
ENDBRANCH   8   9
ENDBRANCH   6   8
ENDBRANCH   3   6
ENDBRANCH   2   3
ENDBRANCH   1   2
BRANCH   1  15
ATOM     15  C   UNL     1       8.366   9.323  17.877  0.00  0.00    +0.000 C 
BRANCH  15  16
ATOM     16  C   UNL     1       8.704  10.300  19.007  0.00  0.00    +0.000 C 
BRANCH  16  17
ATOM     17  C   UNL     1      10.175  10.716  18.989  0.00  0.00    +0.000 C 
BRANCH  17  18
ATOM     18  C   UNL     1      10.553  11.411  17.692  0.00  0.00    +0.000 C 
BRANCH  18  19
ATOM     19  C   UNL     1      10.879  12.875  17.974  0.00  0.00    +0.000 C 
BRANCH  19  20
ATOM     20  C   UNL     1      11.762  13.002  19.204  0.00  0.00    +0.000 C 
BRANCH  20  21
ATOM     21  C   UNL     1      11.830  14.451  19.668  0.00  0.00    +0.000 C 
BRANCH  21  22
ATOM     22  C   UNL     1      10.542  14.834  20.384  0.00  0.00    +0.000 C 
BRANCH  22  23
ATOM     23  C   UNL     1      10.121  13.745  21.364  0.00  0.00    +0.000 C 
BRANCH  23  24
ATOM     24  C   UNL     1       8.631  13.451  21.227  0.00  0.00    +0.000 C 
BRANCH  24  26
ATOM     25  C   UNL     1       6.803  15.038  20.573  0.00  0.00    +0.000 C 
ATOM     26  C   UNL     1       8.015  14.260  20.091  0.00  0.00    +0.000 C 
ENDBRANCH  24  26
ENDBRANCH  23  24
ENDBRANCH  22  23
ENDBRANCH  21  22
ENDBRANCH  20  21
ENDBRANCH  19  20
ENDBRANCH  18  19
ENDBRANCH  17  18
ENDBRANCH  16  17
ENDBRANCH  15  16
ENDBRANCH   1  15
TORSDOF 18
ENDMDL
MODEL 5
REMARK VINA RESULT:      -5.4      4.560      6.882
REMARK  Name = 
REMARK  22 active torsions:
REMARK  status: ('A' for Active; 'I' for Inactive)
REMARK    1  A    between atoms: C_1  and  C_2
REMARK    2  A    between atoms: C_2  and  C_3
REMARK    3  A    between atoms: C_3  and  C_4
REMARK    4  A    between atoms: C_4  and  C_5
REMARK    5  A    between atoms: C_5  and  C_6
REMARK    6  A    between atoms: C_6  and  C_7
REMARK    7  A    between atoms: C_7  and  C_8
REMARK    8  A    between atoms: C_8  and  C_9
REMARK    9  A    between atoms: C_9  and  C_10
REMARK   10  A    between atoms: C_10  and  C_11
REMARK   11  A    between atoms: C_11  and  C_12
REMARK   12  A    between atoms: C_12  and  C_13
REMARK   13  A    between atoms: C_13  and  C_14
REMARK   14  A    between atoms: C_14  and  S_15
REMARK   15  A    between atoms: S_15  and  N_18
REMARK   16  A    between atoms: N_18  and  C_19
REMARK   17  A    between atoms: C_19  and  C_20
REMARK   18  A    between atoms: C_20  and  C_21
REMARK   19  A    between atoms: C_21  and  N_22
REMARK   20  A    between atoms: N_22  and  C_23
REMARK   21  A    between atoms: N_22  and  C_24
REMARK   22  A    between atoms: N_22  and  C_25
REMARK                            x       y       z     vdW  Elec       q    Type
REMARK                         _______ _______ _______ _____ _____    ______ ____
ROOT
ATOM      1  C   UNL     1       2.251   6.444  18.016  0.00  0.00    +0.000 C 
ENDROOT
BRANCH   1   2
ATOM      2  C   UNL     1       2.208   5.527  19.226  0.00  0.00    +0.000 C 
BRANCH   2   3
ATOM      3  S   UNL     1       1.613   3.923  18.679  0.00  0.00    +0.000 S 
ATOM      4  O   UNL     1       0.752   3.367  19.697  0.00  0.00    +0.000 OA
ATOM      5  O   UNL     1       1.180   3.993  17.298  0.00  0.00    +0.000 OA
BRANCH   3   6
ATOM      6  N   UNL     1       3.016   2.976  18.681  0.00  0.00    +0.000 NA
ATOM      7  H   UNL     1       3.294   2.705  17.734  0.00  0.00    +0.000 HD
BRANCH   6   8
ATOM      8  C   UNL     1       4.162   3.535  19.441  0.00  0.00    +0.000 C 
BRANCH   8   9
ATOM      9  C   UNL     1       5.247   4.140  18.549  0.00  0.00    +0.000 C 
BRANCH   9  10
ATOM     10  C   UNL     1       5.030   3.800  17.078  0.00  0.00    +0.000 C 
BRANCH  10  11
ATOM     11  N   UNL     1       6.028   4.501  16.131  0.00  0.00    +0.000 N 
ATOM     12  C   UNL     1       7.413   4.603  16.748  0.00  0.00    +0.000 C 
ATOM     13  C   UNL     1       6.107   3.775  14.786  0.00  0.00    +0.000 C 
ATOM     14  C   UNL     1       5.500   5.912  15.867  0.00  0.00    +0.000 C 
ENDBRANCH  10  11
ENDBRANCH   9  10
ENDBRANCH   8   9
ENDBRANCH   6   8
ENDBRANCH   3   6
ENDBRANCH   2   3
ENDBRANCH   1   2
BRANCH   1  15
ATOM     15  C   UNL     1       2.675   7.870  18.341  0.00  0.00    +0.000 C 
BRANCH  15  16
ATOM     16  C   UNL     1       1.553   8.866  18.032  0.00  0.00    +0.000 C 
BRANCH  16  17
ATOM     17  C   UNL     1       1.936  10.299  18.402  0.00  0.00    +0.000 C 
BRANCH  17  18
ATOM     18  C   UNL     1       0.715  11.185  18.584  0.00  0.00    +0.000 C 
BRANCH  18  19
ATOM     19  C   UNL     1      -0.516  10.316  18.822  0.00  0.00    +0.000 C 
BRANCH  19  20
ATOM     20  C   UNL     1      -1.751  11.178  19.026  0.00  0.00    +0.000 C 
BRANCH  20  21
ATOM     21  C   UNL     1      -1.438  12.356  19.940  0.00  0.00    +0.000 C 
BRANCH  21  22
ATOM     22  C   UNL     1      -1.841  12.031  21.371  0.00  0.00    +0.000 C 
BRANCH  22  23
ATOM     23  C   UNL     1      -0.624  11.654  22.206  0.00  0.00    +0.000 C 
BRANCH  23  24
ATOM     24  C   UNL     1      -0.955  10.492  23.137  0.00  0.00    +0.000 C 
BRANCH  24  26
ATOM     25  C   UNL     1       1.011   9.402  22.026  0.00  0.00    +0.000 C 
ATOM     26  C   UNL     1      -0.374   9.185  22.610  0.00  0.00    +0.000 C 
ENDBRANCH  24  26
ENDBRANCH  23  24
ENDBRANCH  22  23
ENDBRANCH  21  22
ENDBRANCH  20  21
ENDBRANCH  19  20
ENDBRANCH  18  19
ENDBRANCH  17  18
ENDBRANCH  16  17
ENDBRANCH  15  16
ENDBRANCH   1  15
TORSDOF 18
ENDMDL
MODEL 6
REMARK VINA RESULT:      -5.3      4.185      6.716
REMARK  Name = 
REMARK  22 active torsions:
REMARK  status: ('A' for Active; 'I' for Inactive)
REMARK    1  A    between atoms: C_1  and  C_2
REMARK    2  A    between atoms: C_2  and  C_3
REMARK    3  A    between atoms: C_3  and  C_4
REMARK    4  A    between atoms: C_4  and  C_5
REMARK    5  A    between atoms: C_5  and  C_6
REMARK    6  A    between atoms: C_6  and  C_7
REMARK    7  A    between atoms: C_7  and  C_8
REMARK    8  A    between atoms: C_8  and  C_9
REMARK    9  A    between atoms: C_9  and  C_10
REMARK   10  A    between atoms: C_10  and  C_11
REMARK   11  A    between atoms: C_11  and  C_12
REMARK   12  A    between atoms: C_12  and  C_13
REMARK   13  A    between atoms: C_13  and  C_14
REMARK   14  A    between atoms: C_14  and  S_15
REMARK   15  A    between atoms: S_15  and  N_18
REMARK   16  A    between atoms: N_18  and  C_19
REMARK   17  A    between atoms: C_19  and  C_20
REMARK   18  A    between atoms: C_20  and  C_21
REMARK   19  A    between atoms: C_21  and  N_22
REMARK   20  A    between atoms: N_22  and  C_23
REMARK   21  A    between atoms: N_22  and  C_24
REMARK   22  A    between atoms: N_22  and  C_25
REMARK                            x       y       z     vdW  Elec       q    Type
REMARK                         _______ _______ _______ _____ _____    ______ ____
ROOT
ATOM      1  C   UNL     1       2.833   6.133  19.906  0.00  0.00    +0.000 C 
ENDROOT
BRANCH   1   2
ATOM      2  C   UNL     1       1.937   5.150  20.639  0.00  0.00    +0.000 C 
BRANCH   2   3
ATOM      3  S   UNL     1       2.088   3.557  19.824  0.00  0.00    +0.000 S 
ATOM      4  O   UNL     1       3.458   3.108  19.913  0.00  0.00    +0.000 OA
ATOM      5  O   UNL     1       0.996   2.688  20.213  0.00  0.00    +0.000 OA
BRANCH   3   6
ATOM      6  N   UNL     1       1.823   3.937  18.195  0.00  0.00    +0.000 NA
ATOM      7  H   UNL     1       1.668   4.939  18.059  0.00  0.00    +0.000 HD
BRANCH   6   8
ATOM      8  C   UNL     1       2.835   3.412  17.245  0.00  0.00    +0.000 C 
BRANCH   8   9
ATOM      9  C   UNL     1       3.870   4.455  16.819  0.00  0.00    +0.000 C 
BRANCH   9  10
ATOM     10  C   UNL     1       5.225   3.822  16.517  0.00  0.00    +0.000 C 
BRANCH  10  11
ATOM     11  N   UNL     1       6.367   4.851  16.380  0.00  0.00    +0.000 N 
ATOM     12  C   UNL     1       7.468   4.611  17.399  0.00  0.00    +0.000 C 
ATOM     13  C   UNL     1       6.952   4.833  14.965  0.00  0.00    +0.000 C 
ATOM     14  C   UNL     1       5.769   6.238  16.617  0.00  0.00    +0.000 C 
ENDBRANCH  10  11
ENDBRANCH   9  10
ENDBRANCH   8   9
ENDBRANCH   6   8
ENDBRANCH   3   6
ENDBRANCH   2   3
ENDBRANCH   1   2
BRANCH   1  15
ATOM     15  C   UNL     1       2.132   7.425  19.510  0.00  0.00    +0.000 C 
BRANCH  15  16
ATOM     16  C   UNL     1       2.481   7.828  18.074  0.00  0.00    +0.000 C 
BRANCH  16  17
ATOM     17  C   UNL     1       2.024   9.250  17.747  0.00  0.00    +0.000 C 
BRANCH  17  18
ATOM     18  C   UNL     1       1.123   9.821  18.828  0.00  0.00    +0.000 C 
BRANCH  18  19
ATOM     19  C   UNL     1      -0.312   9.887  18.316  0.00  0.00    +0.000 C 
BRANCH  19  20
ATOM     20  C   UNL     1      -0.942  11.228  18.654  0.00  0.00    +0.000 C 
BRANCH  20  21
ATOM     21  C   UNL     1       0.105  12.191  19.200  0.00  0.00    +0.000 C 
BRANCH  21  22
ATOM     22  C   UNL     1      -0.392  12.832  20.488  0.00  0.00    +0.000 C 
BRANCH  22  23
ATOM     23  C   UNL     1       0.085  12.047  21.704  0.00  0.00    +0.000 C 
BRANCH  23  24
ATOM     24  C   UNL     1      -1.103  11.608  22.554  0.00  0.00    +0.000 C 
BRANCH  24  26
ATOM     25  C   UNL     1       0.337   9.556  22.501  0.00  0.00    +0.000 C 
ATOM     26  C   UNL     1      -0.879  10.214  23.130  0.00  0.00    +0.000 C 
ENDBRANCH  24  26
ENDBRANCH  23  24
ENDBRANCH  22  23
ENDBRANCH  21  22
ENDBRANCH  20  21
ENDBRANCH  19  20
ENDBRANCH  18  19
ENDBRANCH  17  18
ENDBRANCH  16  17
ENDBRANCH  15  16
ENDBRANCH   1  15
TORSDOF 18
ENDMDL
MODEL 7
REMARK VINA RESULT:      -5.3      2.817      9.454
REMARK  Name = 
REMARK  22 active torsions:
REMARK  status: ('A' for Active; 'I' for Inactive)
REMARK    1  A    between atoms: C_1  and  C_2
REMARK    2  A    between atoms: C_2  and  C_3
REMARK    3  A    between atoms: C_3  and  C_4
REMARK    4  A    between atoms: C_4  and  C_5
REMARK    5  A    between atoms: C_5  and  C_6
REMARK    6  A    between atoms: C_6  and  C_7
REMARK    7  A    between atoms: C_7  and  C_8
REMARK    8  A    between atoms: C_8  and  C_9
REMARK    9  A    between atoms: C_9  and  C_10
REMARK   10  A    between atoms: C_10  and  C_11
REMARK   11  A    between atoms: C_11  and  C_12
REMARK   12  A    between atoms: C_12  and  C_13
REMARK   13  A    between atoms: C_13  and  C_14
REMARK   14  A    between atoms: C_14  and  S_15
REMARK   15  A    between atoms: S_15  and  N_18
REMARK   16  A    between atoms: N_18  and  C_19
REMARK   17  A    between atoms: C_19  and  C_20
REMARK   18  A    between atoms: C_20  and  C_21
REMARK   19  A    between atoms: C_21  and  N_22
REMARK   20  A    between atoms: N_22  and  C_23
REMARK   21  A    between atoms: N_22  and  C_24
REMARK   22  A    between atoms: N_22  and  C_25
REMARK                            x       y       z     vdW  Elec       q    Type
REMARK                         _______ _______ _______ _____ _____    ______ ____
ROOT
ATOM      1  C   UNL     1       7.462   7.356  17.270  0.00  0.00    +0.000 C 
ENDROOT
BRANCH   1   2
ATOM      2  C   UNL     1       6.240   6.458  17.361  0.00  0.00    +0.000 C 
BRANCH   2   3
ATOM      3  S   UNL     1       6.556   5.000  16.360  0.00  0.00    +0.000 S 
ATOM      4  O   UNL     1       5.981   5.194  15.049  0.00  0.00    +0.000 OA
ATOM      5  O   UNL     1       7.933   4.576  16.511  0.00  0.00    +0.000 OA
BRANCH   3   6
ATOM      6  N   UNL     1       5.617   3.810  17.113  0.00  0.00    +0.000 NA
ATOM      7  H   UNL     1       5.886   3.676  18.091  0.00  0.00    +0.000 HD
BRANCH   6   8
ATOM      8  C   UNL     1       4.148   3.975  16.976  0.00  0.00    +0.000 C 
BRANCH   8   9
ATOM      9  C   UNL     1       3.342   3.013  17.850  0.00  0.00    +0.000 C 
BRANCH   9  10
ATOM     10  C   UNL     1       3.626   3.221  19.335  0.00  0.00    +0.000 C 
BRANCH  10  11
ATOM     11  N   UNL     1       2.374   3.604  20.152  0.00  0.00    +0.000 N 
ATOM     12  C   UNL     1       2.353   5.086  20.489  0.00  0.00    +0.000 C 
ATOM     13  C   UNL     1       1.095   3.219  19.406  0.00  0.00    +0.000 C 
ATOM     14  C   UNL     1       2.411   2.803  21.455  0.00  0.00    +0.000 C 
ENDBRANCH  10  11
ENDBRANCH   9  10
ENDBRANCH   8   9
ENDBRANCH   6   8
ENDBRANCH   3   6
ENDBRANCH   2   3
ENDBRANCH   1   2
BRANCH   1  15
ATOM     15  C   UNL     1       8.276   7.416  18.556  0.00  0.00    +0.000 C 
BRANCH  15  16
ATOM     16  C   UNL     1       8.643   8.861  18.913  0.00  0.00    +0.000 C 
BRANCH  16  17
ATOM     17  C   UNL     1       8.351   9.830  17.767  0.00  0.00    +0.000 C 
BRANCH  17  18
ATOM     18  C   UNL     1       8.920  11.213  18.033  0.00  0.00    +0.000 C 
BRANCH  18  19
ATOM     19  C   UNL     1      10.249  11.086  18.770  0.00  0.00    +0.000 C 
BRANCH  19  20
ATOM     20  C   UNL     1      11.354  11.804  18.014  0.00  0.00    +0.000 C 
BRANCH  20  21
ATOM     21  C   UNL     1      10.809  13.045  17.318  0.00  0.00    +0.000 C 
BRANCH  21  22
ATOM     22  C   UNL     1      11.761  14.217  17.512  0.00  0.00    +0.000 C 
BRANCH  22  23
ATOM     23  C   UNL     1      11.250  15.458  16.791  0.00  0.00    +0.000 C 
BRANCH  23  24
ATOM     24  C   UNL     1      11.108  16.621  17.767  0.00  0.00    +0.000 C 
BRANCH  24  26
ATOM     25  C   UNL     1       8.650  16.190  18.000  0.00  0.00    +0.000 C 
ATOM     26  C   UNL     1       9.961  16.383  18.741  0.00  0.00    +0.000 C 
ENDBRANCH  24  26
ENDBRANCH  23  24
ENDBRANCH  22  23
ENDBRANCH  21  22
ENDBRANCH  20  21
ENDBRANCH  19  20
ENDBRANCH  18  19
ENDBRANCH  17  18
ENDBRANCH  16  17
ENDBRANCH  15  16
ENDBRANCH   1  15
TORSDOF 18
ENDMDL
MODEL 8
REMARK VINA RESULT:      -5.3      2.615      9.222
REMARK  Name = 
REMARK  22 active torsions:
REMARK  status: ('A' for Active; 'I' for Inactive)
REMARK    1  A    between atoms: C_1  and  C_2
REMARK    2  A    between atoms: C_2  and  C_3
REMARK    3  A    between atoms: C_3  and  C_4
REMARK    4  A    between atoms: C_4  and  C_5
REMARK    5  A    between atoms: C_5  and  C_6
REMARK    6  A    between atoms: C_6  and  C_7
REMARK    7  A    between atoms: C_7  and  C_8
REMARK    8  A    between atoms: C_8  and  C_9
REMARK    9  A    between atoms: C_9  and  C_10
REMARK   10  A    between atoms: C_10  and  C_11
REMARK   11  A    between atoms: C_11  and  C_12
REMARK   12  A    between atoms: C_12  and  C_13
REMARK   13  A    between atoms: C_13  and  C_14
REMARK   14  A    between atoms: C_14  and  S_15
REMARK   15  A    between atoms: S_15  and  N_18
REMARK   16  A    between atoms: N_18  and  C_19
REMARK   17  A    between atoms: C_19  and  C_20
REMARK   18  A    between atoms: C_20  and  C_21
REMARK   19  A    between atoms: C_21  and  N_22
REMARK   20  A    between atoms: N_22  and  C_23
REMARK   21  A    between atoms: N_22  and  C_24
REMARK   22  A    between atoms: N_22  and  C_25
REMARK                            x       y       z     vdW  Elec       q    Type
REMARK                         _______ _______ _______ _____ _____    ______ ____
ROOT
ATOM      1  C   UNL     1       7.341   8.258  18.014  0.00  0.00    +0.000 C 
ENDROOT
BRANCH   1   2
ATOM      2  C   UNL     1       7.507   7.088  17.060  0.00  0.00    +0.000 C 
BRANCH   2   3
ATOM      3  S   UNL     1       7.404   5.576  18.024  0.00  0.00    +0.000 S 
ATOM      4  O   UNL     1       7.845   4.467  17.211  0.00  0.00    +0.000 OA
ATOM      5  O   UNL     1       7.949   5.787  19.350  0.00  0.00    +0.000 OA
BRANCH   3   6
ATOM      6  N   UNL     1       5.736   5.371  18.234  0.00  0.00    +0.000 NA
ATOM      7  H   UNL     1       5.218   6.226  18.017  0.00  0.00    +0.000 HD
BRANCH   6   8
ATOM      8  C   UNL     1       5.147   4.193  17.549  0.00  0.00    +0.000 C 
BRANCH   8   9
ATOM      9  C   UNL     1       3.618   4.216  17.503  0.00  0.00    +0.000 C 
BRANCH   9  10
ATOM     10  C   UNL     1       3.015   4.607  18.849  0.00  0.00    +0.000 C 
BRANCH  10  11
ATOM     11  N   UNL     1       2.192   3.478  19.505  0.00  0.00    +0.000 N 
ATOM     12  C   UNL     1       1.025   4.024  20.310  0.00  0.00    +0.000 C 
ATOM     13  C   UNL     1       1.684   2.489  18.453  0.00  0.00    +0.000 C 
ATOM     14  C   UNL     1       3.126   2.714  20.447  0.00  0.00    +0.000 C 
ENDBRANCH  10  11
ENDBRANCH   9  10
ENDBRANCH   8   9
ENDBRANCH   6   8
ENDBRANCH   3   6
ENDBRANCH   2   3
ENDBRANCH   1   2
BRANCH   1  15
ATOM     15  C   UNL     1       8.290   9.416  17.734  0.00  0.00    +0.000 C 
BRANCH  15  16
ATOM     16  C   UNL     1       9.024   9.852  19.007  0.00  0.00    +0.000 C 
BRANCH  16  17
ATOM     17  C   UNL     1      10.164  10.826  18.710  0.00  0.00    +0.000 C 
BRANCH  17  18
ATOM     18  C   UNL     1      10.627  11.556  19.959  0.00  0.00    +0.000 C 
BRANCH  18  19
ATOM     19  C   UNL     1       9.576  11.411  21.055  0.00  0.00    +0.000 C 
BRANCH  19  20
ATOM     20  C   UNL     1       8.878  12.737  21.308  0.00  0.00    +0.000 C 
BRANCH  20  21
ATOM     21  C   UNL     1       9.897  13.847  21.528  0.00  0.00    +0.000 C 
BRANCH  21  22
ATOM     22  C   UNL     1       9.785  14.889  20.423  0.00  0.00    +0.000 C 
BRANCH  22  23
ATOM     23  C   UNL     1       8.561  14.629  19.554  0.00  0.00    +0.000 C 
BRANCH  23  24
ATOM     24  C   UNL     1       8.967  14.479  18.091  0.00  0.00    +0.000 C 
BRANCH  24  26
ATOM     25  C   UNL     1      11.040  13.763  16.876  0.00  0.00    +0.000 C 
ATOM     26  C   UNL     1      10.463  14.712  17.912  0.00  0.00    +0.000 C 
ENDBRANCH  24  26
ENDBRANCH  23  24
ENDBRANCH  22  23
ENDBRANCH  21  22
ENDBRANCH  20  21
ENDBRANCH  19  20
ENDBRANCH  18  19
ENDBRANCH  17  18
ENDBRANCH  16  17
ENDBRANCH  15  16
ENDBRANCH   1  15
TORSDOF 18
ENDMDL
MODEL 9
REMARK VINA RESULT:      -5.2      2.667      9.677
REMARK  Name = 
REMARK  22 active torsions:
REMARK  status: ('A' for Active; 'I' for Inactive)
REMARK    1  A    between atoms: C_1  and  C_2
REMARK    2  A    between atoms: C_2  and  C_3
REMARK    3  A    between atoms: C_3  and  C_4
REMARK    4  A    between atoms: C_4  and  C_5
REMARK    5  A    between atoms: C_5  and  C_6
REMARK    6  A    between atoms: C_6  and  C_7
REMARK    7  A    between atoms: C_7  and  C_8
REMARK    8  A    between atoms: C_8  and  C_9
REMARK    9  A    between atoms: C_9  and  C_10
REMARK   10  A    between atoms: C_10  and  C_11
REMARK   11  A    between atoms: C_11  and  C_12
REMARK   12  A    between atoms: C_12  and  C_13
REMARK   13  A    between atoms: C_13  and  C_14
REMARK   14  A    between atoms: C_14  and  S_15
REMARK   15  A    between atoms: S_15  and  N_18
REMARK   16  A    between atoms: N_18  and  C_19
REMARK   17  A    between atoms: C_19  and  C_20
REMARK   18  A    between atoms: C_20  and  C_21
REMARK   19  A    between atoms: C_21  and  N_22
REMARK   20  A    between atoms: N_22  and  C_23
REMARK   21  A    between atoms: N_22  and  C_24
REMARK   22  A    between atoms: N_22  and  C_25
REMARK                            x       y       z     vdW  Elec       q    Type
REMARK                         _______ _______ _______ _____ _____    ______ ____
ROOT
ATOM      1  C   UNL     1       7.718   7.384  17.632  0.00  0.00    +0.000 C 
ENDROOT
BRANCH   1   2
ATOM      2  C   UNL     1       6.314   6.985  17.210  0.00  0.00    +0.000 C 
BRANCH   2   3
ATOM      3  S   UNL     1       6.451   5.559  16.126  0.00  0.00    +0.000 S 
ATOM      4  O   UNL     1       5.200   5.375  15.429  0.00  0.00    +0.000 OA
ATOM      5  O   UNL     1       7.706   5.597  15.402  0.00  0.00    +0.000 OA
BRANCH   3   6
ATOM      6  N   UNL     1       6.579   4.267  17.213  0.00  0.00    +0.000 NA
ATOM      7  H   UNL     1       7.532   4.162  17.569  0.00  0.00    +0.000 HD
BRANCH   6   8
ATOM      8  C   UNL     1       5.586   4.260  18.316  0.00  0.00    +0.000 C 
BRANCH   8   9
ATOM      9  C   UNL     1       4.235   3.666  17.916  0.00  0.00    +0.000 C 
BRANCH   9  10
ATOM     10  C   UNL     1       3.413   3.250  19.133  0.00  0.00    +0.000 C 
BRANCH  10  11
ATOM     11  N   UNL     1       1.976   3.813  19.126  0.00  0.00    +0.000 N 
ATOM     12  C   UNL     1       1.638   4.479  17.803  0.00  0.00    +0.000 C 
ATOM     13  C   UNL     1       0.956   2.713  19.433  0.00  0.00    +0.000 C 
ATOM     14  C   UNL     1       1.884   4.856  20.241  0.00  0.00    +0.000 C 
ENDBRANCH  10  11
ENDBRANCH   9  10
ENDBRANCH   8   9
ENDBRANCH   6   8
ENDBRANCH   3   6
ENDBRANCH   2   3
ENDBRANCH   1   2
BRANCH   1  15
ATOM     15  C   UNL     1       7.929   8.889  17.716  0.00  0.00    +0.000 C 
BRANCH  15  16
ATOM     16  C   UNL     1       8.865   9.254  18.874  0.00  0.00    +0.000 C 
BRANCH  16  17
ATOM     17  C   UNL     1       9.566  10.593  18.648  0.00  0.00    +0.000 C 
BRANCH  17  18
ATOM     18  C   UNL     1       8.615  11.650  18.113  0.00  0.00    +0.000 C 
BRANCH  18  19
ATOM     19  C   UNL     1       9.208  13.036  18.345  0.00  0.00    +0.000 C 
BRANCH  19  20
ATOM     20  C   UNL     1      10.601  13.132  17.743  0.00  0.00    +0.000 C 
BRANCH  20  21
ATOM     21  C   UNL     1      11.553  13.832  18.704  0.00  0.00    +0.000 C 
BRANCH  21  22
ATOM     22  C   UNL     1      10.767  14.633  19.733  0.00  0.00    +0.000 C 
BRANCH  22  23
ATOM     23  C   UNL     1      10.923  16.129  19.491  0.00  0.00    +0.000 C 
BRANCH  23  24
ATOM     24  C   UNL     1       9.809  16.641  18.584  0.00  0.00    +0.000 C 
BRANCH  24  26
ATOM     25  C   UNL     1      11.878  17.256  17.308  0.00  0.00    +0.000 C 
ATOM     26  C   UNL     1      10.366  17.122  17.249  0.00  0.00    +0.000 C 
ENDBRANCH  24  26
ENDBRANCH  23  24
ENDBRANCH  22  23
ENDBRANCH  21  22
ENDBRANCH  20  21
ENDBRANCH  19  20
ENDBRANCH  18  19
ENDBRANCH  17  18
ENDBRANCH  16  17
ENDBRANCH  15  16
ENDBRANCH   1  15
TORSDOF 18
ENDMDL
