MODEL 1
REMARK VINA RESULT:      -8.7      0.000      0.000
REMARK  Name = 
REMARK  10 active torsions:
REMARK  status: ('A' for Active; 'I' for Inactive)
REMARK    1  A    between atoms: C_1  and  C_2
REMARK    2  A    between atoms: C_2  and  C_3
REMARK    3  A    between atoms: C_3  and  C_4
REMARK    4  A    between atoms: C_4  and  C_5
REMARK    5  A    between atoms: C_5  and  C_6
REMARK    6  A    between atoms: N_8  and  C_9
REMARK    7  A    between atoms: C_11  and  N_12
REMARK    8  A    between atoms: C_14  and  C_15
REMARK    9  A    between atoms: C_22  and  C_23
REMARK   10  A    between atoms: C_23  and  O_24
REMARK                            x       y       z     vdW  Elec       q    Type
REMARK                         _______ _______ _______ _____ _____    ______ ____
ROOT
ATOM      1  C   UNL     1       5.067   5.214  17.169  0.00  0.00    +0.000 C 
ATOM      2  C   UNL     1       3.713   4.536  17.134  0.00  0.00    +0.000 C 
ATOM      3  C   UNL     1       3.368   4.426  18.607  0.00  0.00    +0.000 C 
ATOM      4  O   UNL     1       4.630   4.238  19.297  0.00  0.00    +0.000 OA
ATOM      5  C   UNL     1       5.714   4.611  18.411  0.00  0.00    +0.000 C 
ENDROOT
BRANCH   3   6
ATOM      6  N   UNL     1       2.668   5.603  19.149  0.00  0.00    +0.000 N 
ATOM      7  C   UNL     1       2.570   6.765  18.407  0.00  0.00    +0.000 A 
ATOM      8  C   UNL     1       2.100   7.912  18.899  0.00  0.00    +0.000 A 
ATOM      9  C   UNL     1       2.054   9.188  18.128  0.00  0.00    +0.000 C 
ATOM     10  C   UNL     1       1.648   7.931  20.302  0.00  0.00    +0.000 A 
ATOM     11  O   UNL     1       1.314   8.968  20.863  0.00  0.00    +0.000 OA
ATOM     12  N   UNL     1       1.644   6.721  20.934  0.00  0.00    +0.000 N 
ATOM     13  C   UNL     1       2.251   5.580  20.478  0.00  0.00    +0.000 A 
ATOM     14  O   UNL     1       2.402   4.619  21.235  0.00  0.00    +0.000 OA
ATOM     15  H   UNL     1       1.364   6.729  21.904  0.00  0.00    +0.000 HD
ENDBRANCH   3   6
BRANCH   1  18
ATOM     16  C   UNL     1       6.572   4.408  14.046  0.00  0.00    +0.000 A 
ATOM     17  C   UNL     1       5.510   4.250  14.898  0.00  0.00    +0.000 A 
ATOM     18  N   UNL     1       5.819   5.045  15.957  0.00  0.00    +0.000 N 
ATOM     19  N   UNL     1       7.001   5.656  15.780  0.00  0.00    +0.000 NA
ATOM     20  N   UNL     1       7.474   5.274  14.604  0.00  0.00    +0.000 NA
BRANCH  16  21
ATOM     21  C   UNL     1       6.810   3.795  12.716  0.00  0.00    +0.000 C 
BRANCH  21  22
ATOM     22  C   UNL     1       5.582   3.049  12.198  0.00  0.00    +0.000 C 
BRANCH  22  23
ATOM     23  C   UNL     1       4.818   3.895  11.183  0.00  0.00    +0.000 C 
BRANCH  23  25
ATOM     24  C   UNL     1       2.838   3.974   9.641  0.00  0.00    +0.000 C 
ATOM     25  C   UNL     1       3.528   3.201  10.752  0.00  0.00    +0.000 C 
ENDBRANCH  23  25
ENDBRANCH  22  23
ENDBRANCH  21  22
ENDBRANCH  16  21
ENDBRANCH   1  18
BRANCH   5  26
ATOM     26  C   UNL     1       6.647   5.607  19.114  0.00  0.00    +0.000 C 
BRANCH  26  27
ATOM     27  O   UNL     1       7.939   5.627  18.513  0.00  0.00    +0.000 OA
ATOM     28  H   UNL     1       8.414   6.403  18.863  0.00  0.00    +0.000 HD
ENDBRANCH  26  27
ENDBRANCH   5  26
TORSDOF 8
ENDMDL
MODEL 2
REMARK VINA RESULT:      -8.7      1.317      1.687
REMARK  Name = 
REMARK  10 active torsions:
REMARK  status: ('A' for Active; 'I' for Inactive)
REMARK    1  A    between atoms: C_1  and  C_2
REMARK    2  A    between atoms: C_2  and  C_3
REMARK    3  A    between atoms: C_3  and  C_4
REMARK    4  A    between atoms: C_4  and  C_5
REMARK    5  A    between atoms: C_5  and  C_6
REMARK    6  A    between atoms: N_8  and  C_9
REMARK    7  A    between atoms: C_11  and  N_12
REMARK    8  A    between atoms: C_14  and  C_15
REMARK    9  A    between atoms: C_22  and  C_23
REMARK   10  A    between atoms: C_23  and  O_24
REMARK                            x       y       z     vdW  Elec       q    Type
REMARK                         _______ _______ _______ _____ _____    ______ ____
ROOT
ATOM      1  C   UNL     1       5.564   4.993  16.917  0.00  0.00    +0.000 C 
ATOM      2  C   UNL     1       4.378   4.052  16.965  0.00  0.00    +0.000 C 
ATOM      3  C   UNL     1       4.154   3.886  18.456  0.00  0.00    +0.000 C 
ATOM      4  O   UNL     1       5.468   3.967  19.065  0.00  0.00    +0.000 OA
ATOM      5  C   UNL     1       6.396   4.546  18.115  0.00  0.00    +0.000 C 
ENDROOT
BRANCH   3   6
ATOM      6  N   UNL     1       3.262   4.899  19.045  0.00  0.00    +0.000 N 
ATOM      7  C   UNL     1       3.100   6.130  18.437  0.00  0.00    +0.000 A 
ATOM      8  C   UNL     1       2.445   7.145  19.001  0.00  0.00    +0.000 A 
ATOM      9  C   UNL     1       2.322   8.498  18.384  0.00  0.00    +0.000 C 
ATOM     10  C   UNL     1       1.851   6.933  20.333  0.00  0.00    +0.000 A 
ATOM     11  O   UNL     1       1.335   7.846  20.968  0.00  0.00    +0.000 OA
ATOM     12  N   UNL     1       1.930   5.659  20.815  0.00  0.00    +0.000 N 
ATOM     13  C   UNL     1       2.716   4.659  20.304  0.00  0.00    +0.000 A 
ATOM     14  O   UNL     1       2.904   3.630  20.956  0.00  0.00    +0.000 OA
ATOM     15  H   UNL     1       1.552   5.510  21.739  0.00  0.00    +0.000 HD
ENDBRANCH   3   6
BRANCH   1  18
ATOM     16  C   UNL     1       6.910   4.577  13.649  0.00  0.00    +0.000 A 
ATOM     17  C   UNL     1       5.882   4.330  14.521  0.00  0.00    +0.000 A 
ATOM     18  N   UNL     1       6.258   4.970  15.661  0.00  0.00    +0.000 N 
ATOM     19  N   UNL     1       7.448   5.574  15.512  0.00  0.00    +0.000 NA
ATOM     20  N   UNL     1       7.859   5.341  14.274  0.00  0.00    +0.000 NA
BRANCH  16  21
ATOM     21  C   UNL     1       7.074   4.141  12.241  0.00  0.00    +0.000 C 
BRANCH  21  22
ATOM     22  C   UNL     1       6.114   3.012  11.872  0.00  0.00    +0.000 C 
BRANCH  22  23
ATOM     23  C   UNL     1       6.879   1.764  11.441  0.00  0.00    +0.000 C 
BRANCH  23  25
ATOM     24  C   UNL     1       6.165  -0.642  11.392  0.00  0.00    +0.000 C 
ATOM     25  C   UNL     1       5.944   0.740  10.803  0.00  0.00    +0.000 C 
ENDBRANCH  23  25
ENDBRANCH  22  23
ENDBRANCH  21  22
ENDBRANCH  16  21
ENDBRANCH   1  18
BRANCH   5  26
ATOM     26  C   UNL     1       7.146   5.718  18.762  0.00  0.00    +0.000 C 
BRANCH  26  27
ATOM     27  O   UNL     1       7.385   5.486  20.148  0.00  0.00    +0.000 OA
ATOM     28  H   UNL     1       8.118   4.848  20.216  0.00  0.00    +0.000 HD
ENDBRANCH  26  27
ENDBRANCH   5  26
TORSDOF 8
ENDMDL
MODEL 3
REMARK VINA RESULT:      -7.8      1.418      1.774
REMARK  Name = 
REMARK  10 active torsions:
REMARK  status: ('A' for Active; 'I' for Inactive)
REMARK    1  A    between atoms: C_1  and  C_2
REMARK    2  A    between atoms: C_2  and  C_3
REMARK    3  A    between atoms: C_3  and  C_4
REMARK    4  A    between atoms: C_4  and  C_5
REMARK    5  A    between atoms: C_5  and  C_6
REMARK    6  A    between atoms: N_8  and  C_9
REMARK    7  A    between atoms: C_11  and  N_12
REMARK    8  A    between atoms: C_14  and  C_15
REMARK    9  A    between atoms: C_22  and  C_23
REMARK   10  A    between atoms: C_23  and  O_24
REMARK                            x       y       z     vdW  Elec       q    Type
REMARK                         _______ _______ _______ _____ _____    ______ ____
ROOT
ATOM      1  C   UNL     1       5.680   5.070  16.550  0.00  0.00    +0.000 C 
ATOM      2  C   UNL     1       5.466   3.789  17.330  0.00  0.00    +0.000 C 
ATOM      3  C   UNL     1       5.432   4.284  18.764  0.00  0.00    +0.000 C 
ATOM      4  O   UNL     1       6.336   5.417  18.814  0.00  0.00    +0.000 OA
ATOM      5  C   UNL     1       6.603   5.870  17.464  0.00  0.00    +0.000 C 
ENDROOT
BRANCH   3   6
ATOM      6  N   UNL     1       4.093   4.687  19.227  0.00  0.00    +0.000 N 
ATOM      7  C   UNL     1       3.650   5.984  19.051  0.00  0.00    +0.000 A 
ATOM      8  C   UNL     1       2.526   6.454  19.592  0.00  0.00    +0.000 A 
ATOM      9  C   UNL     1       2.073   7.870  19.464  0.00  0.00    +0.000 C 
ATOM     10  C   UNL     1       1.709   5.535  20.405  0.00  0.00    +0.000 A 
ATOM     11  O   UNL     1       0.727   5.918  21.030  0.00  0.00    +0.000 OA
ATOM     12  N   UNL     1       2.132   4.237  20.426  0.00  0.00    +0.000 N 
ATOM     13  C   UNL     1       3.350   3.787  19.989  0.00  0.00    +0.000 A 
ATOM     14  O   UNL     1       3.727   2.650  20.280  0.00  0.00    +0.000 OA
ATOM     15  H   UNL     1       1.596   3.606  21.003  0.00  0.00    +0.000 HD
ENDBRANCH   3   6
BRANCH   1  18
ATOM     16  C   UNL     1       6.604   4.101  13.253  0.00  0.00    +0.000 A 
ATOM     17  C   UNL     1       5.755   3.936  14.317  0.00  0.00    +0.000 A 
ATOM     18  N   UNL     1       6.187   4.851  15.225  0.00  0.00    +0.000 N 
ATOM     19  N   UNL     1       7.242   5.540  14.761  0.00  0.00    +0.000 NA
ATOM     20  N   UNL     1       7.507   5.089  13.544  0.00  0.00    +0.000 NA
BRANCH  16  21
ATOM     21  C   UNL     1       6.632   3.387  11.953  0.00  0.00    +0.000 C 
BRANCH  21  22
ATOM     22  C   UNL     1       5.335   2.626  11.685  0.00  0.00    +0.000 C 
BRANCH  22  23
ATOM     23  C   UNL     1       4.158   3.587  11.544  0.00  0.00    +0.000 C 
BRANCH  23  25
ATOM     24  C   UNL     1       2.929   4.259   9.461  0.00  0.00    +0.000 C 
ATOM     25  C   UNL     1       3.208   3.132  10.440  0.00  0.00    +0.000 C 
ENDBRANCH  23  25
ENDBRANCH  22  23
ENDBRANCH  21  22
ENDBRANCH  16  21
ENDBRANCH   1  18
BRANCH   5  26
ATOM     26  C   UNL     1       6.348   7.380  17.358  0.00  0.00    +0.000 C 
BRANCH  26  27
ATOM     27  O   UNL     1       7.568   8.114  17.302  0.00  0.00    +0.000 OA
ATOM     28  H   UNL     1       7.789   8.245  16.362  0.00  0.00    +0.000 HD
ENDBRANCH  26  27
ENDBRANCH   5  26
TORSDOF 8
ENDMDL
MODEL 4
REMARK VINA RESULT:      -7.7      2.369      8.414
REMARK  Name = 
REMARK  10 active torsions:
REMARK  status: ('A' for Active; 'I' for Inactive)
REMARK    1  A    between atoms: C_1  and  C_2
REMARK    2  A    between atoms: C_2  and  C_3
REMARK    3  A    between atoms: C_3  and  C_4
REMARK    4  A    between atoms: C_4  and  C_5
REMARK    5  A    between atoms: C_5  and  C_6
REMARK    6  A    between atoms: N_8  and  C_9
REMARK    7  A    between atoms: C_11  and  N_12
REMARK    8  A    between atoms: C_14  and  C_15
REMARK    9  A    between atoms: C_22  and  C_23
REMARK   10  A    between atoms: C_23  and  O_24
REMARK                            x       y       z     vdW  Elec       q    Type
REMARK                         _______ _______ _______ _____ _____    ______ ____
ROOT
ATOM      1  C   UNL     1       3.464   5.557  18.674  0.00  0.00    +0.000 C 
ATOM      2  C   UNL     1       4.912   5.623  19.111  0.00  0.00    +0.000 C 
ATOM      3  C   UNL     1       5.531   4.458  18.362  0.00  0.00    +0.000 C 
ATOM      4  O   UNL     1       4.495   3.447  18.277  0.00  0.00    +0.000 OA
ATOM      5  C   UNL     1       3.213   4.057  18.567  0.00  0.00    +0.000 C 
ENDROOT
BRANCH   3   6
ATOM      6  N   UNL     1       6.013   4.800  17.013  0.00  0.00    +0.000 N 
ATOM      7  C   UNL     1       5.479   4.182  15.899  0.00  0.00    +0.000 A 
ATOM      8  C   UNL     1       5.981   4.321  14.672  0.00  0.00    +0.000 A 
ATOM      9  C   UNL     1       5.453   3.606  13.473  0.00  0.00    +0.000 C 
ATOM     10  C   UNL     1       7.157   5.193  14.498  0.00  0.00    +0.000 A 
ATOM     11  O   UNL     1       7.748   5.282  13.428  0.00  0.00    +0.000 OA
ATOM     12  N   UNL     1       7.550   5.878  15.612  0.00  0.00    +0.000 N 
ATOM     13  C   UNL     1       7.125   5.632  16.891  0.00  0.00    +0.000 A 
ATOM     14  O   UNL     1       7.722   6.133  17.846  0.00  0.00    +0.000 OA
ATOM     15  H   UNL     1       8.372   6.455  15.511  0.00  0.00    +0.000 HD
ENDBRANCH   3   6
BRANCH   1  18
ATOM     16  C   UNL     1       1.448   7.739  20.636  0.00  0.00    +0.000 A 
ATOM     17  C   UNL     1       2.310   7.590  19.580  0.00  0.00    +0.000 A 
ATOM     18  N   UNL     1       2.572   6.255  19.556  0.00  0.00    +0.000 N 
ATOM     19  N   UNL     1       1.920   5.612  20.539  0.00  0.00    +0.000 NA
ATOM     20  N   UNL     1       1.221   6.516  21.209  0.00  0.00    +0.000 NA
BRANCH  16  21
ATOM     21  C   UNL     1       0.806   8.969  21.159  0.00  0.00    +0.000 C 
BRANCH  21  22
ATOM     22  C   UNL     1      -0.319   8.657  22.144  0.00  0.00    +0.000 C 
BRANCH  22  23
ATOM     23  C   UNL     1      -0.541   9.823  23.104  0.00  0.00    +0.000 C 
BRANCH  23  25
ATOM     24  C   UNL     1      -1.695  12.053  23.102  0.00  0.00    +0.000 C 
ATOM     25  C   UNL     1      -0.762  11.127  22.342  0.00  0.00    +0.000 C 
ENDBRANCH  23  25
ENDBRANCH  22  23
ENDBRANCH  21  22
ENDBRANCH  16  21
ENDBRANCH   1  18
BRANCH   5  26
ATOM     26  C   UNL     1       2.209   3.721  17.455  0.00  0.00    +0.000 C 
BRANCH  26  27
ATOM     27  O   UNL     1       1.965   2.319  17.377  0.00  0.00    +0.000 OA
ATOM     28  H   UNL     1       2.302   2.011  16.515  0.00  0.00    +0.000 HD
ENDBRANCH  26  27
ENDBRANCH   5  26
TORSDOF 8
ENDMDL
MODEL 5
REMARK VINA RESULT:      -7.7      2.110      7.690
REMARK  Name = 
REMARK  10 active torsions:
REMARK  status: ('A' for Active; 'I' for Inactive)
REMARK    1  A    between atoms: C_1  and  C_2
REMARK    2  A    between atoms: C_2  and  C_3
REMARK    3  A    between atoms: C_3  and  C_4
REMARK    4  A    between atoms: C_4  and  C_5
REMARK    5  A    between atoms: C_5  and  C_6
REMARK    6  A    between atoms: N_8  and  C_9
REMARK    7  A    between atoms: C_11  and  N_12
REMARK    8  A    between atoms: C_14  and  C_15
REMARK    9  A    between atoms: C_22  and  C_23
REMARK   10  A    between atoms: C_23  and  O_24
REMARK                            x       y       z     vdW  Elec       q    Type
REMARK                         _______ _______ _______ _____ _____    ______ ____
ROOT
ATOM      1  C   UNL     1       3.534   5.343  18.514  0.00  0.00    +0.000 C 
ATOM      2  C   UNL     1       4.986   5.440  18.936  0.00  0.00    +0.000 C 
ATOM      3  C   UNL     1       5.627   4.307  18.157  0.00  0.00    +0.000 C 
ATOM      4  O   UNL     1       4.618   3.270  18.063  0.00  0.00    +0.000 OA
ATOM      5  C   UNL     1       3.323   3.839  18.379  0.00  0.00    +0.000 C 
ENDROOT
BRANCH   3   6
ATOM      6  N   UNL     1       6.084   4.689  16.810  0.00  0.00    +0.000 N 
ATOM      7  C   UNL     1       5.518   4.115  15.688  0.00  0.00    +0.000 A 
ATOM      8  C   UNL     1       5.995   4.290  14.455  0.00  0.00    +0.000 A 
ATOM      9  C   UNL     1       5.433   3.621  13.246  0.00  0.00    +0.000 C 
ATOM     10  C   UNL     1       7.178   5.153  14.285  0.00  0.00    +0.000 A 
ATOM     11  O   UNL     1       7.747   5.271  13.205  0.00  0.00    +0.000 OA
ATOM     12  N   UNL     1       7.603   5.795  15.412  0.00  0.00    +0.000 N 
ATOM     13  C   UNL     1       7.203   5.511  16.692  0.00  0.00    +0.000 A 
ATOM     14  O   UNL     1       7.827   5.973  17.649  0.00  0.00    +0.000 OA
ATOM     15  H   UNL     1       8.430   6.365  15.312  0.00  0.00    +0.000 HD
ENDBRANCH   3   6
BRANCH   1  18
ATOM     16  C   UNL     1       1.474   7.428  20.532  0.00  0.00    +0.000 A 
ATOM     17  C   UNL     1       2.317   7.320  19.456  0.00  0.00    +0.000 A 
ATOM     18  N   UNL     1       2.634   5.999  19.420  0.00  0.00    +0.000 N 
ATOM     19  N   UNL     1       2.032   5.324  20.413  0.00  0.00    +0.000 NA
ATOM     20  N   UNL     1       1.311   6.195  21.104  0.00  0.00    +0.000 NA
BRANCH  16  21
ATOM     21  C   UNL     1       0.793   8.628  21.076  0.00  0.00    +0.000 C 
BRANCH  21  22
ATOM     22  C   UNL     1       0.928   9.836  20.152  0.00  0.00    +0.000 C 
BRANCH  22  23
ATOM     23  C   UNL     1      -0.383  10.615  20.077  0.00  0.00    +0.000 C 
BRANCH  23  25
ATOM     24  C   UNL     1      -1.342  10.071  17.821  0.00  0.00    +0.000 C 
ATOM     25  C   UNL     1      -0.638  11.123  18.660  0.00  0.00    +0.000 C 
ENDBRANCH  23  25
ENDBRANCH  22  23
ENDBRANCH  21  22
ENDBRANCH  16  21
ENDBRANCH   1  18
BRANCH   5  26
ATOM     26  C   UNL     1       2.316   3.497  17.273  0.00  0.00    +0.000 C 
BRANCH  26  27
ATOM     27  O   UNL     1       1.118   4.259  17.403  0.00  0.00    +0.000 OA
ATOM     28  H   UNL     1       0.374   3.679  17.159  0.00  0.00    +0.000 HD
ENDBRANCH  26  27
ENDBRANCH   5  26
TORSDOF 8
ENDMDL
MODEL 6
REMARK VINA RESULT:      -7.5      0.994      1.262
REMARK  Name = 
REMARK  10 active torsions:
REMARK  status: ('A' for Active; 'I' for Inactive)
REMARK    1  A    between atoms: C_1  and  C_2
REMARK    2  A    between atoms: C_2  and  C_3
REMARK    3  A    between atoms: C_3  and  C_4
REMARK    4  A    between atoms: C_4  and  C_5
REMARK    5  A    between atoms: C_5  and  C_6
REMARK    6  A    between atoms: N_8  and  C_9
REMARK    7  A    between atoms: C_11  and  N_12
REMARK    8  A    between atoms: C_14  and  C_15
REMARK    9  A    between atoms: C_22  and  C_23
REMARK   10  A    between atoms: C_23  and  O_24
REMARK                            x       y       z     vdW  Elec       q    Type
REMARK                         _______ _______ _______ _____ _____    ______ ____
ROOT
ATOM      1  C   UNL     1       5.196   5.278  17.388  0.00  0.00    +0.000 C 
ATOM      2  C   UNL     1       3.829   4.649  17.211  0.00  0.00    +0.000 C 
ATOM      3  C   UNL     1       3.346   4.514  18.642  0.00  0.00    +0.000 C 
ATOM      4  O   UNL     1       4.532   4.265  19.438  0.00  0.00    +0.000 OA
ATOM      5  C   UNL     1       5.704   4.621  18.666  0.00  0.00    +0.000 C 
ENDROOT
BRANCH   3   6
ATOM      6  N   UNL     1       2.637   5.701  19.151  0.00  0.00    +0.000 N 
ATOM      7  C   UNL     1       2.556   6.851  18.388  0.00  0.00    +0.000 A 
ATOM      8  C   UNL     1       2.079   8.006  18.852  0.00  0.00    +0.000 A 
ATOM      9  C   UNL     1       2.049   9.269  18.059  0.00  0.00    +0.000 C 
ATOM     10  C   UNL     1       1.601   8.050  20.246  0.00  0.00    +0.000 A 
ATOM     11  O   UNL     1       1.257   9.097  20.783  0.00  0.00    +0.000 OA
ATOM     12  N   UNL     1       1.583   6.850  20.898  0.00  0.00    +0.000 N 
ATOM     13  C   UNL     1       2.196   5.701  20.472  0.00  0.00    +0.000 A 
ATOM     14  O   UNL     1       2.330   4.752  21.248  0.00  0.00    +0.000 OA
ATOM     15  H   UNL     1       1.284   6.875  21.862  0.00  0.00    +0.000 HD
ENDBRANCH   3   6
BRANCH   1  18
ATOM     16  C   UNL     1       6.873   4.986  14.262  0.00  0.00    +0.000 A 
ATOM     17  C   UNL     1       5.744   5.361  14.943  0.00  0.00    +0.000 A 
ATOM     18  N   UNL     1       6.049   5.113  16.245  0.00  0.00    +0.000 N 
ATOM     19  N   UNL     1       7.288   4.610  16.369  0.00  0.00    +0.000 NA
ATOM     20  N   UNL     1       7.808   4.530  15.153  0.00  0.00    +0.000 NA
BRANCH  16  21
ATOM     21  C   UNL     1       7.148   5.025  12.805  0.00  0.00    +0.000 C 
BRANCH  21  22
ATOM     22  C   UNL     1       7.067   3.640  12.166  0.00  0.00    +0.000 C 
BRANCH  22  23
ATOM     23  C   UNL     1       5.624   3.282  11.822  0.00  0.00    +0.000 C 
BRANCH  23  25
ATOM     24  C   UNL     1       6.773   1.274  10.847  0.00  0.00    +0.000 C 
ATOM     25  C   UNL     1       5.495   1.801  11.476  0.00  0.00    +0.000 C 
ENDBRANCH  23  25
ENDBRANCH  22  23
ENDBRANCH  21  22
ENDBRANCH  16  21
ENDBRANCH   1  18
BRANCH   5  26
ATOM     26  C   UNL     1       6.601   5.566  19.479  0.00  0.00    +0.000 C 
BRANCH  26  27
ATOM     27  O   UNL     1       7.658   6.097  18.684  0.00  0.00    +0.000 OA
ATOM     28  H   UNL     1       7.253   6.616  17.966  0.00  0.00    +0.000 HD
ENDBRANCH  26  27
ENDBRANCH   5  26
TORSDOF 8
ENDMDL
MODEL 7
REMARK VINA RESULT:      -7.5      2.033      2.754
REMARK  Name = 
REMARK  10 active torsions:
REMARK  status: ('A' for Active; 'I' for Inactive)
REMARK    1  A    between atoms: C_1  and  C_2
REMARK    2  A    between atoms: C_2  and  C_3
REMARK    3  A    between atoms: C_3  and  C_4
REMARK    4  A    between atoms: C_4  and  C_5
REMARK    5  A    between atoms: C_5  and  C_6
REMARK    6  A    between atoms: N_8  and  C_9
REMARK    7  A    between atoms: C_11  and  N_12
REMARK    8  A    between atoms: C_14  and  C_15
REMARK    9  A    between atoms: C_22  and  C_23
REMARK   10  A    between atoms: C_23  and  O_24
REMARK                            x       y       z     vdW  Elec       q    Type
REMARK                         _______ _______ _______ _____ _____    ______ ____
ROOT
ATOM      1  C   UNL     1       5.742   4.957  16.769  0.00  0.00    +0.000 C 
ATOM      2  C   UNL     1       6.226   3.844  17.675  0.00  0.00    +0.000 C 
ATOM      3  C   UNL     1       5.936   4.401  19.057  0.00  0.00    +0.000 C 
ATOM      4  O   UNL     1       6.117   5.836  18.951  0.00  0.00    +0.000 OA
ATOM      5  C   UNL     1       6.111   6.213  17.552  0.00  0.00    +0.000 C 
ENDROOT
BRANCH   3   6
ATOM      6  N   UNL     1       4.583   4.099  19.553  0.00  0.00    +0.000 N 
ATOM      7  C   UNL     1       3.667   5.114  19.755  0.00  0.00    +0.000 A 
ATOM      8  C   UNL     1       2.491   4.931  20.356  0.00  0.00    +0.000 A 
ATOM      9  C   UNL     1       1.524   6.031  20.640  0.00  0.00    +0.000 C 
ATOM     10  C   UNL     1       2.149   3.571  20.813  0.00  0.00    +0.000 A 
ATOM     11  O   UNL     1       1.144   3.341  21.475  0.00  0.00    +0.000 OA
ATOM     12  N   UNL     1       3.035   2.594  20.461  0.00  0.00    +0.000 N 
ATOM     13  C   UNL     1       4.298   2.800  19.970  0.00  0.00    +0.000 A 
ATOM     14  O   UNL     1       5.100   1.866  19.922  0.00  0.00    +0.000 OA
ATOM     15  H   UNL     1       2.825   1.665  20.794  0.00  0.00    +0.000 HD
ENDBRANCH   3   6
BRANCH   1  18
ATOM     16  C   UNL     1       6.755   4.386  13.405  0.00  0.00    +0.000 A 
ATOM     17  C   UNL     1       5.860   4.122  14.409  0.00  0.00    +0.000 A 
ATOM     18  N   UNL     1       6.292   4.891  15.445  0.00  0.00    +0.000 N 
ATOM     19  N   UNL     1       7.390   5.588  15.110  0.00  0.00    +0.000 NA
ATOM     20  N   UNL     1       7.684   5.287  13.854  0.00  0.00    +0.000 NA
BRANCH  16  21
ATOM     21  C   UNL     1       6.806   3.847  12.025  0.00  0.00    +0.000 C 
BRANCH  21  22
ATOM     22  C   UNL     1       5.798   2.721  11.808  0.00  0.00    +0.000 C 
BRANCH  22  23
ATOM     23  C   UNL     1       4.371   3.261  11.799  0.00  0.00    +0.000 C 
BRANCH  23  25
ATOM     24  C   UNL     1       2.858   3.497   9.809  0.00  0.00    +0.000 C 
ATOM     25  C   UNL     1       4.087   4.040  10.517  0.00  0.00    +0.000 C 
ENDBRANCH  23  25
ENDBRANCH  22  23
ENDBRANCH  21  22
ENDBRANCH  16  21
ENDBRANCH   1  18
BRANCH   5  26
ATOM     26  C   UNL     1       5.107   7.350  17.319  0.00  0.00    +0.000 C 
BRANCH  26  27
ATOM     27  O   UNL     1       3.858   6.856  16.843  0.00  0.00    +0.000 OA
ATOM     28  H   UNL     1       3.766   7.139  15.915  0.00  0.00    +0.000 HD
ENDBRANCH  26  27
ENDBRANCH   5  26
TORSDOF 8
ENDMDL
MODEL 8
REMARK VINA RESULT:      -7.4      2.103      3.103
REMARK  Name = 
REMARK  10 active torsions:
REMARK  status: ('A' for Active; 'I' for Inactive)
REMARK    1  A    between atoms: C_1  and  C_2
REMARK    2  A    between atoms: C_2  and  C_3
REMARK    3  A    between atoms: C_3  and  C_4
REMARK    4  A    between atoms: C_4  and  C_5
REMARK    5  A    between atoms: C_5  and  C_6
REMARK    6  A    between atoms: N_8  and  C_9
REMARK    7  A    between atoms: C_11  and  N_12
REMARK    8  A    between atoms: C_14  and  C_15
REMARK    9  A    between atoms: C_22  and  C_23
REMARK   10  A    between atoms: C_23  and  O_24
REMARK                            x       y       z     vdW  Elec       q    Type
REMARK                         _______ _______ _______ _____ _____    ______ ____
ROOT
ATOM      1  C   UNL     1       5.564   4.904  16.872  0.00  0.00    +0.000 C 
ATOM      2  C   UNL     1       6.129   3.882  17.837  0.00  0.00    +0.000 C 
ATOM      3  C   UNL     1       5.802   4.494  19.186  0.00  0.00    +0.000 C 
ATOM      4  O   UNL     1       5.877   5.930  18.998  0.00  0.00    +0.000 OA
ATOM      5  C   UNL     1       5.841   6.225  17.581  0.00  0.00    +0.000 C 
ENDROOT
BRANCH   3   6
ATOM      6  N   UNL     1       4.475   4.123  19.707  0.00  0.00    +0.000 N 
ATOM      7  C   UNL     1       3.509   5.088  19.920  0.00  0.00    +0.000 A 
ATOM      8  C   UNL     1       2.355   4.846  20.542  0.00  0.00    +0.000 A 
ATOM      9  C   UNL     1       1.336   5.894  20.838  0.00  0.00    +0.000 C 
ATOM     10  C   UNL     1       2.094   3.472  21.009  0.00  0.00    +0.000 A 
ATOM     11  O   UNL     1       1.114   3.192  21.689  0.00  0.00    +0.000 OA
ATOM     12  N   UNL     1       3.025   2.542  20.646  0.00  0.00    +0.000 N 
ATOM     13  C   UNL     1       4.266   2.813  20.133  0.00  0.00    +0.000 A 
ATOM     14  O   UNL     1       5.116   1.922  20.075  0.00  0.00    +0.000 OA
ATOM     15  H   UNL     1       2.870   1.604  20.986  0.00  0.00    +0.000 HD
ENDBRANCH   3   6
BRANCH   1  18
ATOM     16  C   UNL     1       6.574   4.251  13.522  0.00  0.00    +0.000 A 
ATOM     17  C   UNL     1       5.672   4.021  14.529  0.00  0.00    +0.000 A 
ATOM     18  N   UNL     1       6.115   4.802  15.550  0.00  0.00    +0.000 N 
ATOM     19  N   UNL     1       7.226   5.474  15.205  0.00  0.00    +0.000 NA
ATOM     20  N   UNL     1       7.517   5.145  13.955  0.00  0.00    +0.000 NA
BRANCH  16  21
ATOM     21  C   UNL     1       6.618   3.685  12.152  0.00  0.00    +0.000 C 
BRANCH  21  22
ATOM     22  C   UNL     1       5.223   3.385  11.607  0.00  0.00    +0.000 C 
BRANCH  22  23
ATOM     23  C   UNL     1       5.139   1.956  11.078  0.00  0.00    +0.000 C 
BRANCH  23  25
ATOM     24  C   UNL     1       6.254  -0.278  11.348  0.00  0.00    +0.000 C 
ATOM     25  C   UNL     1       6.466   1.224  11.264  0.00  0.00    +0.000 C 
ENDBRANCH  23  25
ENDBRANCH  22  23
ENDBRANCH  21  22
ENDBRANCH  16  21
ENDBRANCH   1  18
BRANCH   5  26
ATOM     26  C   UNL     1       4.756   7.271  17.290  0.00  0.00    +0.000 C 
BRANCH  26  27
ATOM     27  O   UNL     1       3.463   6.678  17.219  0.00  0.00    +0.000 OA
ATOM     28  H   UNL     1       2.833   7.295  17.635  0.00  0.00    +0.000 HD
ENDBRANCH  26  27
ENDBRANCH   5  26
TORSDOF 8
ENDMDL
MODEL 9
REMARK VINA RESULT:      -7.0      2.528      8.434
REMARK  Name = 
REMARK  10 active torsions:
REMARK  status: ('A' for Active; 'I' for Inactive)
REMARK    1  A    between atoms: C_1  and  C_2
REMARK    2  A    between atoms: C_2  and  C_3
REMARK    3  A    between atoms: C_3  and  C_4
REMARK    4  A    between atoms: C_4  and  C_5
REMARK    5  A    between atoms: C_5  and  C_6
REMARK    6  A    between atoms: N_8  and  C_9
REMARK    7  A    between atoms: C_11  and  N_12
REMARK    8  A    between atoms: C_14  and  C_15
REMARK    9  A    between atoms: C_22  and  C_23
REMARK   10  A    between atoms: C_23  and  O_24
REMARK                            x       y       z     vdW  Elec       q    Type
REMARK                         _______ _______ _______ _____ _____    ______ ____
ROOT
ATOM      1  C   UNL     1       3.231   6.352  18.646  0.00  0.00    +0.000 C 
ATOM      2  C   UNL     1       4.643   6.310  19.193  0.00  0.00    +0.000 C 
ATOM      3  C   UNL     1       5.183   5.022  18.601  0.00  0.00    +0.000 C 
ATOM      4  O   UNL     1       4.051   4.119  18.519  0.00  0.00    +0.000 OA
ATOM      5  C   UNL     1       2.826   4.881  18.648  0.00  0.00    +0.000 C 
ENDROOT
BRANCH   3   6
ATOM      6  N   UNL     1       5.796   5.184  17.272  0.00  0.00    +0.000 N 
ATOM      7  C   UNL     1       5.267   4.537  16.171  0.00  0.00    +0.000 A 
ATOM      8  C   UNL     1       5.866   4.507  14.980  0.00  0.00    +0.000 A 
ATOM      9  C   UNL     1       5.337   3.756  13.804  0.00  0.00    +0.000 C 
ATOM     10  C   UNL     1       7.152   5.213  14.832  0.00  0.00    +0.000 A 
ATOM     11  O   UNL     1       7.822   5.136  13.808  0.00  0.00    +0.000 OA
ATOM     12  N   UNL     1       7.549   5.942  15.916  0.00  0.00    +0.000 N 
ATOM     13  C   UNL     1       7.009   5.863  17.173  0.00  0.00    +0.000 A 
ATOM     14  O   UNL     1       7.597   6.373  18.129  0.00  0.00    +0.000 OA
ATOM     15  H   UNL     1       8.442   6.406  15.834  0.00  0.00    +0.000 HD
ENDBRANCH   3   6
BRANCH   1  18
ATOM     16  C   UNL     1       0.984   8.071  20.805  0.00  0.00    +0.000 A 
ATOM     17  C   UNL     1       1.733   6.948  20.565  0.00  0.00    +0.000 A 
ATOM     18  N   UNL     1       2.359   7.218  19.388  0.00  0.00    +0.000 N 
ATOM     19  N   UNL     1       2.019   8.429  18.920  0.00  0.00    +0.000 NA
ATOM     20  N   UNL     1       1.174   8.967  19.787  0.00  0.00    +0.000 NA
BRANCH  16  21
ATOM     21  C   UNL     1       0.085   8.375  21.944  0.00  0.00    +0.000 C 
BRANCH  21  22
ATOM     22  C   UNL     1       0.297   9.788  22.485  0.00  0.00    +0.000 C 
BRANCH  22  23
ATOM     23  C   UNL     1      -0.927  10.265  23.261  0.00  0.00    +0.000 C 
BRANCH  23  25
ATOM     24  C   UNL     1      -0.367  12.269  21.856  0.00  0.00    +0.000 C 
ATOM     25  C   UNL     1      -1.414  11.615  22.741  0.00  0.00    +0.000 C 
ENDBRANCH  23  25
ENDBRANCH  22  23
ENDBRANCH  21  22
ENDBRANCH  16  21
ENDBRANCH   1  18
BRANCH   5  26
ATOM     26  C   UNL     1       1.875   4.546  17.491  0.00  0.00    +0.000 C 
BRANCH  26  27
ATOM     27  O   UNL     1       2.011   3.189  17.078  0.00  0.00    +0.000 OA
ATOM     28  H   UNL     1       1.115   2.838  16.925  0.00  0.00    +0.000 HD
ENDBRANCH  26  27
ENDBRANCH   5  26
TORSDOF 8
ENDMDL
