MODEL 1
REMARK VINA RESULT:      -9.5      0.000      0.000
REMARK  Name = 
REMARK  8 active torsions:
REMARK  status: ('A' for Active; 'I' for Inactive)
REMARK    1  A    between atoms: C_1  and  C_2
REMARK    2  A    between atoms: C_2  and  C_3
REMARK    3  A    between atoms: C_2  and  C_4
REMARK    4  A    between atoms: C_2  and  N_5
REMARK    5  A    between atoms: N_5  and  S_6
REMARK    6  A    between atoms: S_6  and  C_9
REMARK    7  A    between atoms: C_14  and  C_15
REMARK    8  A    between atoms: C_18  and  C_19
REMARK                            x       y       z     vdW  Elec       q    Type
REMARK                         _______ _______ _______ _____ _____    ______ ____
ROOT
ATOM      1  C   UNL     1       3.160   6.981  18.253  0.00  0.00    +0.000 A 
ATOM      2  C   UNL     1       2.791   6.661  19.560  0.00  0.00    +0.000 A 
ATOM      3  C   UNL     1       2.014   7.512  20.352  0.00  0.00    +0.000 A 
ATOM      4  C   UNL     1       1.431   8.670  19.828  0.00  0.00    +0.000 A 
ATOM      5  C   UNL     1       1.652   8.906  18.468  0.00  0.00    +0.000 A 
ATOM      6  F   UNL     1       1.047   9.933  17.851  0.00  0.00    +0.000 F 
ATOM      7  C   UNL     1       2.514   8.104  17.705  0.00  0.00    +0.000 A 
ENDROOT
BRANCH   4   8
ATOM      8  C   UNL     1       0.603   9.533  20.689  0.00  0.00    +0.000 A 
ATOM      9  C   UNL     1       0.725   9.545  22.089  0.00  0.00    +0.000 A 
ATOM     10  N   UNL     1       0.066  10.384  22.935  0.00  0.00    +0.000 NA
ATOM     11  C   UNL     1      -0.743  11.266  22.348  0.00  0.00    +0.000 A 
ATOM     12  C   UNL     1      -0.982  11.304  20.987  0.00  0.00    +0.000 A 
ATOM     13  C   UNL     1      -0.317  10.438  20.139  0.00  0.00    +0.000 A 
ATOM     14  C   UNL     1      -1.974  12.368  20.675  0.00  0.00    +0.000 C 
ATOM     15  C   UNL     1      -2.405  12.794  22.095  0.00  0.00    +0.000 C 
ATOM     16  N   UNL     1      -1.397  12.309  23.032  0.00  0.00    +0.000 N 
ATOM     17  H   UNL     1      -1.642  12.018  23.973  0.00  0.00    +0.000 HD
ENDBRANCH   4   8
BRANCH   1  23
ATOM     18  C   UNL     1       3.966   4.784  17.100  0.00  0.00    +0.000 A 
ATOM     19  C   UNL     1       4.961   4.145  16.329  0.00  0.00    +0.000 A 
ATOM     20  C   UNL     1       6.129   4.792  15.953  0.00  0.00    +0.000 A 
ATOM     21  C   UNL     1       6.314   6.114  16.315  0.00  0.00    +0.000 A 
ATOM     22  C   UNL     1       5.316   6.777  17.036  0.00  0.00    +0.000 A 
ATOM     23  C   UNL     1       4.116   6.155  17.468  0.00  0.00    +0.000 A 
BRANCH  18  24
ATOM     24  S   UNL     1       2.624   3.695  17.613  0.00  0.00    +0.000 S 
ATOM     25  O   UNL     1       2.866   2.409  16.997  0.00  0.00    +0.000 OA
ATOM     26  O   UNL     1       1.361   4.350  17.365  0.00  0.00    +0.000 OA
BRANCH  24  27
ATOM     27  N   UNL     1       2.824   3.541  19.291  0.00  0.00    +0.000 NA
ATOM     28  H   UNL     1       3.748   3.174  19.524  0.00  0.00    +0.000 HD
BRANCH  27  30
ATOM     29  C   UNL     1       1.067   1.783  19.544  0.00  0.00    +0.000 C 
ATOM     30  C   UNL     1       1.729   3.015  20.162  0.00  0.00    +0.000 C 
ATOM     31  C   UNL     1       0.720   4.130  20.478  0.00  0.00    +0.000 C 
ATOM     32  C   UNL     1       2.357   2.593  21.506  0.00  0.00    +0.000 C 
ENDBRANCH  27  30
ENDBRANCH  24  27
ENDBRANCH  18  24
ENDBRANCH   1  23
TORSDOF 5
ENDMDL
MODEL 2
REMARK VINA RESULT:      -9.4      1.164      1.695
REMARK  Name = 
REMARK  8 active torsions:
REMARK  status: ('A' for Active; 'I' for Inactive)
REMARK    1  A    between atoms: C_1  and  C_2
REMARK    2  A    between atoms: C_2  and  C_3
REMARK    3  A    between atoms: C_2  and  C_4
REMARK    4  A    between atoms: C_2  and  N_5
REMARK    5  A    between atoms: N_5  and  S_6
REMARK    6  A    between atoms: S_6  and  C_9
REMARK    7  A    between atoms: C_14  and  C_15
REMARK    8  A    between atoms: C_18  and  C_19
REMARK                            x       y       z     vdW  Elec       q    Type
REMARK                         _______ _______ _______ _____ _____    ______ ____
ROOT
ATOM      1  C   UNL     1       3.339   7.079  18.020  0.00  0.00    +0.000 A 
ATOM      2  C   UNL     1       2.949   8.260  17.387  0.00  0.00    +0.000 A 
ATOM      3  C   UNL     1       1.979   9.115  17.920  0.00  0.00    +0.000 A 
ATOM      4  C   UNL     1       1.450   8.913  19.198  0.00  0.00    +0.000 A 
ATOM      5  C   UNL     1       1.966   7.828  19.912  0.00  0.00    +0.000 A 
ATOM      6  F   UNL     1       1.598   7.616  21.185  0.00  0.00    +0.000 F 
ATOM      7  C   UNL     1       2.864   6.918  19.334  0.00  0.00    +0.000 A 
ENDROOT
BRANCH   4   8
ATOM      8  C   UNL     1       0.442   9.845  19.733  0.00  0.00    +0.000 A 
ATOM      9  C   UNL     1       0.563  10.446  20.998  0.00  0.00    +0.000 A 
ATOM     10  N   UNL     1      -0.276  11.388  21.512  0.00  0.00    +0.000 NA
ATOM     11  C   UNL     1      -1.277  11.758  20.712  0.00  0.00    +0.000 A 
ATOM     12  C   UNL     1      -1.524  11.191  19.476  0.00  0.00    +0.000 A 
ATOM     13  C   UNL     1      -0.672  10.226  18.970  0.00  0.00    +0.000 A 
ATOM     14  C   UNL     1      -2.744  11.793  18.876  0.00  0.00    +0.000 C 
ATOM     15  C   UNL     1      -3.259  12.649  20.053  0.00  0.00    +0.000 C 
ATOM     16  N   UNL     1      -2.160  12.816  20.998  0.00  0.00    +0.000 N 
ATOM     17  H   UNL     1      -2.323  12.883  21.998  0.00  0.00    +0.000 HD
ENDBRANCH   4   8
BRANCH   1  23
ATOM     18  C   UNL     1       3.982   4.713  17.129  0.00  0.00    +0.000 A 
ATOM     19  C   UNL     1       4.951   3.909  16.490  0.00  0.00    +0.000 A 
ATOM     20  C   UNL     1       6.200   4.401  16.138  0.00  0.00    +0.000 A 
ATOM     21  C   UNL     1       6.498   5.727  16.391  0.00  0.00    +0.000 A 
ATOM     22  C   UNL     1       5.532   6.550  16.978  0.00  0.00    +0.000 A 
ATOM     23  C   UNL     1       4.250   6.093  17.380  0.00  0.00    +0.000 A 
BRANCH  18  24
ATOM     24  S   UNL     1       2.507   3.815  17.644  0.00  0.00    +0.000 S 
ATOM     25  O   UNL     1       2.526   2.543  16.952  0.00  0.00    +0.000 OA
ATOM     26  O   UNL     1       1.353   4.667  17.483  0.00  0.00    +0.000 OA
BRANCH  24  27
ATOM     27  N   UNL     1       2.740   3.536  19.301  0.00  0.00    +0.000 NA
ATOM     28  H   UNL     1       3.608   3.028  19.475  0.00  0.00    +0.000 HD
BRANCH  27  30
ATOM     29  C   UNL     1       2.120   2.523  21.498  0.00  0.00    +0.000 C 
ATOM     30  C   UNL     1       1.610   3.123  20.188  0.00  0.00    +0.000 C 
ATOM     31  C   UNL     1       0.662   2.176  19.435  0.00  0.00    +0.000 C 
ATOM     32  C   UNL     1       0.793   4.386  20.530  0.00  0.00    +0.000 C 
ENDBRANCH  27  30
ENDBRANCH  24  27
ENDBRANCH  18  24
ENDBRANCH   1  23
TORSDOF 5
ENDMDL
MODEL 3
REMARK VINA RESULT:      -9.1      1.213      1.882
REMARK  Name = 
REMARK  8 active torsions:
REMARK  status: ('A' for Active; 'I' for Inactive)
REMARK    1  A    between atoms: C_1  and  C_2
REMARK    2  A    between atoms: C_2  and  C_3
REMARK    3  A    between atoms: C_2  and  C_4
REMARK    4  A    between atoms: C_2  and  N_5
REMARK    5  A    between atoms: N_5  and  S_6
REMARK    6  A    between atoms: S_6  and  C_9
REMARK    7  A    between atoms: C_14  and  C_15
REMARK    8  A    between atoms: C_18  and  C_19
REMARK                            x       y       z     vdW  Elec       q    Type
REMARK                         _______ _______ _______ _____ _____    ______ ____
ROOT
ATOM      1  C   UNL     1       3.352   7.101  18.009  0.00  0.00    +0.000 A 
ATOM      2  C   UNL     1       3.011   8.306  17.393  0.00  0.00    +0.000 A 
ATOM      3  C   UNL     1       2.061   9.181  17.927  0.00  0.00    +0.000 A 
ATOM      4  C   UNL     1       1.503   8.972  19.193  0.00  0.00    +0.000 A 
ATOM      5  C   UNL     1       1.972   7.857  19.893  0.00  0.00    +0.000 A 
ATOM      6  F   UNL     1       1.576   7.633  21.156  0.00  0.00    +0.000 F 
ATOM      7  C   UNL     1       2.849   6.929  19.312  0.00  0.00    +0.000 A 
ENDROOT
BRANCH   4   8
ATOM      8  C   UNL     1       0.517   9.927  19.730  0.00  0.00    +0.000 A 
ATOM      9  C   UNL     1      -0.347  10.667  18.905  0.00  0.00    +0.000 A 
ATOM     10  N   UNL     1      -1.344  11.487  19.336  0.00  0.00    +0.000 NA
ATOM     11  C   UNL     1      -1.494  11.558  20.658  0.00  0.00    +0.000 A 
ATOM     12  C   UNL     1      -0.665  10.921  21.562  0.00  0.00    +0.000 A 
ATOM     13  C   UNL     1       0.354  10.100  21.113  0.00  0.00    +0.000 A 
ATOM     14  C   UNL     1      -1.075  11.255  22.951  0.00  0.00    +0.000 C 
ATOM     15  C   UNL     1      -2.144  12.337  22.690  0.00  0.00    +0.000 C 
ATOM     16  N   UNL     1      -2.554  12.232  21.294  0.00  0.00    +0.000 N 
ATOM     17  H   UNL     1      -2.829  13.048  20.757  0.00  0.00    +0.000 HD
ENDBRANCH   4   8
BRANCH   1  23
ATOM     18  C   UNL     1       3.948   4.721  17.121  0.00  0.00    +0.000 A 
ATOM     19  C   UNL     1       4.898   3.899  16.476  0.00  0.00    +0.000 A 
ATOM     20  C   UNL     1       6.152   4.370  16.111  0.00  0.00    +0.000 A 
ATOM     21  C   UNL     1       6.473   5.692  16.357  0.00  0.00    +0.000 A 
ATOM     22  C   UNL     1       5.526   6.533  16.949  0.00  0.00    +0.000 A 
ATOM     23  C   UNL     1       4.241   6.097  17.365  0.00  0.00    +0.000 A 
BRANCH  18  24
ATOM     24  S   UNL     1       2.463   3.849  17.652  0.00  0.00    +0.000 S 
ATOM     25  O   UNL     1       2.449   2.581  16.955  0.00  0.00    +0.000 OA
ATOM     26  O   UNL     1       1.323   4.723  17.512  0.00  0.00    +0.000 OA
BRANCH  24  27
ATOM     27  N   UNL     1       2.714   3.558  19.305  0.00  0.00    +0.000 NA
ATOM     28  H   UNL     1       3.585   3.049  19.466  0.00  0.00    +0.000 HD
BRANCH  27  30
ATOM     29  C   UNL     1       2.118   2.542  21.508  0.00  0.00    +0.000 C 
ATOM     30  C   UNL     1       1.594   3.138  20.202  0.00  0.00    +0.000 C 
ATOM     31  C   UNL     1       0.646   2.185  19.456  0.00  0.00    +0.000 C 
ATOM     32  C   UNL     1       0.772   4.396  20.548  0.00  0.00    +0.000 C 
ENDBRANCH  27  30
ENDBRANCH  24  27
ENDBRANCH  18  24
ENDBRANCH   1  23
TORSDOF 5
ENDMDL
MODEL 4
REMARK VINA RESULT:      -9.1      0.870      1.241
REMARK  Name = 
REMARK  8 active torsions:
REMARK  status: ('A' for Active; 'I' for Inactive)
REMARK    1  A    between atoms: C_1  and  C_2
REMARK    2  A    between atoms: C_2  and  C_3
REMARK    3  A    between atoms: C_2  and  C_4
REMARK    4  A    between atoms: C_2  and  N_5
REMARK    5  A    between atoms: N_5  and  S_6
REMARK    6  A    between atoms: S_6  and  C_9
REMARK    7  A    between atoms: C_14  and  C_15
REMARK    8  A    between atoms: C_18  and  C_19
REMARK                            x       y       z     vdW  Elec       q    Type
REMARK                         _______ _______ _______ _____ _____    ______ ____
ROOT
ATOM      1  C   UNL     1       3.332   6.898  18.076  0.00  0.00    +0.000 A 
ATOM      2  C   UNL     1       2.871   6.754  19.385  0.00  0.00    +0.000 A 
ATOM      3  C   UNL     1       2.072   7.715  20.012  0.00  0.00    +0.000 A 
ATOM      4  C   UNL     1       1.559   8.811  19.309  0.00  0.00    +0.000 A 
ATOM      5  C   UNL     1       1.872   8.869  17.948  0.00  0.00    +0.000 A 
ATOM      6  F   UNL     1       1.340   9.823  17.169  0.00  0.00    +0.000 F 
ATOM      7  C   UNL     1       2.756   7.958  17.350  0.00  0.00    +0.000 A 
ENDROOT
BRANCH   4   8
ATOM      8  C   UNL     1       0.705   9.794  19.999  0.00  0.00    +0.000 A 
ATOM      9  C   UNL     1       0.177  10.924  19.352  0.00  0.00    +0.000 A 
ATOM     10  N   UNL     1      -0.695  11.815  19.899  0.00  0.00    +0.000 NA
ATOM     11  C   UNL     1      -1.069  11.553  21.151  0.00  0.00    +0.000 A 
ATOM     12  C   UNL     1      -0.568  10.505  21.900  0.00  0.00    +0.000 A 
ATOM     13  C   UNL     1       0.327   9.614  21.339  0.00  0.00    +0.000 A 
ATOM     14  C   UNL     1      -1.153  10.534  23.267  0.00  0.00    +0.000 C 
ATOM     15  C   UNL     1      -1.912  11.878  23.235  0.00  0.00    +0.000 C 
ATOM     16  N   UNL     1      -2.070  12.268  21.837  0.00  0.00    +0.000 N 
ATOM     17  H   UNL     1      -2.069  13.242  21.554  0.00  0.00    +0.000 HD
ENDBRANCH   4   8
BRANCH   1  23
ATOM     18  C   UNL     1       4.114   4.570  17.196  0.00  0.00    +0.000 A 
ATOM     19  C   UNL     1       5.141   3.816  16.588  0.00  0.00    +0.000 A 
ATOM     20  C   UNL     1       6.377   4.367  16.284  0.00  0.00    +0.000 A 
ATOM     21  C   UNL     1       6.605   5.704  16.554  0.00  0.00    +0.000 A 
ATOM     22  C   UNL     1       5.582   6.478  17.110  0.00  0.00    +0.000 A 
ATOM     23  C   UNL     1       4.309   5.959  17.464  0.00  0.00    +0.000 A 
BRANCH  18  24
ATOM     24  S   UNL     1       2.664   3.602  17.654  0.00  0.00    +0.000 S 
ATOM     25  O   UNL     1       2.832   2.290  17.066  0.00  0.00    +0.000 OA
ATOM     26  O   UNL     1       1.473   4.351  17.334  0.00  0.00    +0.000 OA
BRANCH  24  27
ATOM     27  N   UNL     1       2.769   3.459  19.341  0.00  0.00    +0.000 NA
ATOM     28  H   UNL     1       3.624   2.977  19.622  0.00  0.00    +0.000 HD
BRANCH  27  30
ATOM     29  C   UNL     1       0.720   2.036  19.484  0.00  0.00    +0.000 C 
ATOM     30  C   UNL     1       1.575   3.102  20.168  0.00  0.00    +0.000 C 
ATOM     31  C   UNL     1       0.774   4.366  20.517  0.00  0.00    +0.000 C 
ATOM     32  C   UNL     1       2.084   2.520  21.503  0.00  0.00    +0.000 C 
ENDBRANCH  27  30
ENDBRANCH  24  27
ENDBRANCH  18  24
ENDBRANCH   1  23
TORSDOF 5
ENDMDL
MODEL 5
REMARK VINA RESULT:      -9.1      3.928      8.396
REMARK  Name = 
REMARK  8 active torsions:
REMARK  status: ('A' for Active; 'I' for Inactive)
REMARK    1  A    between atoms: C_1  and  C_2
REMARK    2  A    between atoms: C_2  and  C_3
REMARK    3  A    between atoms: C_2  and  C_4
REMARK    4  A    between atoms: C_2  and  N_5
REMARK    5  A    between atoms: N_5  and  S_6
REMARK    6  A    between atoms: S_6  and  C_9
REMARK    7  A    between atoms: C_14  and  C_15
REMARK    8  A    between atoms: C_18  and  C_19
REMARK                            x       y       z     vdW  Elec       q    Type
REMARK                         _______ _______ _______ _____ _____    ______ ____
ROOT
ATOM      1  C   UNL     1       1.442  10.365  18.899  0.00  0.00    +0.000 A 
ATOM      2  C   UNL     1       1.923   9.758  17.739  0.00  0.00    +0.000 A 
ATOM      3  C   UNL     1       2.435   8.456  17.726  0.00  0.00    +0.000 A 
ATOM      4  C   UNL     1       2.355   7.628  18.851  0.00  0.00    +0.000 A 
ATOM      5  C   UNL     1       1.714   8.171  19.968  0.00  0.00    +0.000 A 
ATOM      6  F   UNL     1       1.495   7.418  21.057  0.00  0.00    +0.000 F 
ATOM      7  C   UNL     1       1.294   9.509  20.007  0.00  0.00    +0.000 A 
ENDROOT
BRANCH   4   8
ATOM      8  C   UNL     1       2.889   6.256  18.794  0.00  0.00    +0.000 A 
ATOM      9  C   UNL     1       4.182   5.929  19.238  0.00  0.00    +0.000 A 
ATOM     10  N   UNL     1       4.702   4.672  19.308  0.00  0.00    +0.000 NA
ATOM     11  C   UNL     1       3.880   3.693  18.928  0.00  0.00    +0.000 A 
ATOM     12  C   UNL     1       2.613   3.906  18.420  0.00  0.00    +0.000 A 
ATOM     13  C   UNL     1       2.100   5.188  18.342  0.00  0.00    +0.000 A 
ATOM     14  C   UNL     1       1.992   2.608  18.045  0.00  0.00    +0.000 C 
ATOM     15  C   UNL     1       3.183   1.645  18.237  0.00  0.00    +0.000 C 
ATOM     16  N   UNL     1       4.176   2.323  19.064  0.00  0.00    +0.000 N 
ATOM     17  H   UNL     1       5.171   2.161  18.942  0.00  0.00    +0.000 HD
ENDBRANCH   4   8
BRANCH   1  23
ATOM     18  C   UNL     1      -0.278  12.326  18.906  0.00  0.00    +0.000 A 
ATOM     19  C   UNL     1      -0.488  13.720  18.983  0.00  0.00    +0.000 A 
ATOM     20  C   UNL     1       0.567  14.620  19.042  0.00  0.00    +0.000 A 
ATOM     21  C   UNL     1       1.863  14.140  19.060  0.00  0.00    +0.000 A 
ATOM     22  C   UNL     1       2.087  12.760  19.035  0.00  0.00    +0.000 A 
ATOM     23  C   UNL     1       1.048  11.798  18.947  0.00  0.00    +0.000 A 
BRANCH  18  24
ATOM     24  S   UNL     1      -1.787  11.370  18.662  0.00  0.00    +0.000 S 
ATOM     25  O   UNL     1      -2.835  12.043  19.398  0.00  0.00    +0.000 OA
ATOM     26  O   UNL     1      -1.521   9.982  18.958  0.00  0.00    +0.000 OA
BRANCH  24  27
ATOM     27  N   UNL     1      -2.111  11.510  17.003  0.00  0.00    +0.000 NA
ATOM     28  H   UNL     1      -1.966  12.466  16.674  0.00  0.00    +0.000 HD
BRANCH  27  30
ATOM     29  C   UNL     1      -3.033  10.521  14.901  0.00  0.00    +0.000 C 
ATOM     30  C   UNL     1      -3.285  10.827  16.378  0.00  0.00    +0.000 C 
ATOM     31  C   UNL     1      -4.560  11.657  16.598  0.00  0.00    +0.000 C 
ATOM     32  C   UNL     1      -3.497   9.488  17.112  0.00  0.00    +0.000 C 
ENDBRANCH  27  30
ENDBRANCH  24  27
ENDBRANCH  18  24
ENDBRANCH   1  23
TORSDOF 5
ENDMDL
MODEL 6
REMARK VINA RESULT:      -9.0      3.739      8.513
REMARK  Name = 
REMARK  8 active torsions:
REMARK  status: ('A' for Active; 'I' for Inactive)
REMARK    1  A    between atoms: C_1  and  C_2
REMARK    2  A    between atoms: C_2  and  C_3
REMARK    3  A    between atoms: C_2  and  C_4
REMARK    4  A    between atoms: C_2  and  N_5
REMARK    5  A    between atoms: N_5  and  S_6
REMARK    6  A    between atoms: S_6  and  C_9
REMARK    7  A    between atoms: C_14  and  C_15
REMARK    8  A    between atoms: C_18  and  C_19
REMARK                            x       y       z     vdW  Elec       q    Type
REMARK                         _______ _______ _______ _____ _____    ______ ____
ROOT
ATOM      1  C   UNL     1       1.320   9.995  18.773  0.00  0.00    +0.000 A 
ATOM      2  C   UNL     1       1.849   9.377  17.639  0.00  0.00    +0.000 A 
ATOM      3  C   UNL     1       2.434   8.108  17.677  0.00  0.00    +0.000 A 
ATOM      4  C   UNL     1       2.387   7.315  18.828  0.00  0.00    +0.000 A 
ATOM      5  C   UNL     1       1.703   7.857  19.919  0.00  0.00    +0.000 A 
ATOM      6  F   UNL     1       1.514   7.130  21.031  0.00  0.00    +0.000 F 
ATOM      7  C   UNL     1       1.207   9.170  19.907  0.00  0.00    +0.000 A 
ENDROOT
BRANCH   4   8
ATOM      8  C   UNL     1       3.000   5.975  18.825  0.00  0.00    +0.000 A 
ATOM      9  C   UNL     1       4.287   5.730  19.332  0.00  0.00    +0.000 A 
ATOM     10  N   UNL     1       4.873   4.507  19.451  0.00  0.00    +0.000 NA
ATOM     11  C   UNL     1       4.126   3.475  19.056  0.00  0.00    +0.000 A 
ATOM     12  C   UNL     1       2.872   3.606  18.489  0.00  0.00    +0.000 A 
ATOM     13  C   UNL     1       2.293   4.855  18.361  0.00  0.00    +0.000 A 
ATOM     14  C   UNL     1       2.343   2.268  18.114  0.00  0.00    +0.000 C 
ATOM     15  C   UNL     1       3.576   1.378  18.380  0.00  0.00    +0.000 C 
ATOM     16  N   UNL     1       4.492   2.127  19.234  0.00  0.00    +0.000 N 
ATOM     17  H   UNL     1       5.498   2.019  19.160  0.00  0.00    +0.000 HD
ENDBRANCH   4   8
BRANCH   1  23
ATOM     18  C   UNL     1      -0.486  11.860  18.517  0.00  0.00    +0.000 A 
ATOM     19  C   UNL     1      -0.782  13.240  18.570  0.00  0.00    +0.000 A 
ATOM     20  C   UNL     1       0.198  14.194  18.805  0.00  0.00    +0.000 A 
ATOM     21  C   UNL     1       1.499  13.784  19.026  0.00  0.00    +0.000 A 
ATOM     22  C   UNL     1       1.801  12.419  19.028  0.00  0.00    +0.000 A 
ATOM     23  C   UNL     1       0.843  11.403  18.767  0.00  0.00    +0.000 A 
BRANCH  18  24
ATOM     24  S   UNL     1      -1.880  10.828  18.027  0.00  0.00    +0.000 S 
ATOM     25  O   UNL     1      -2.271  10.067  19.195  0.00  0.00    +0.000 OA
ATOM     26  O   UNL     1      -1.539  10.111  16.822  0.00  0.00    +0.000 OA
BRANCH  24  27
ATOM     27  N   UNL     1      -3.114  11.934  17.661  0.00  0.00    +0.000 NA
ATOM     28  H   UNL     1      -2.813  12.896  17.822  0.00  0.00    +0.000 HD
BRANCH  27  30
ATOM     29  C   UNL     1      -4.834  10.174  18.094  0.00  0.00    +0.000 C 
ATOM     30  C   UNL     1      -4.535  11.672  18.048  0.00  0.00    +0.000 C 
ATOM     31  C   UNL     1      -5.488  12.436  17.115  0.00  0.00    +0.000 C 
ATOM     32  C   UNL     1      -4.750  12.245  19.463  0.00  0.00    +0.000 C 
ENDBRANCH  27  30
ENDBRANCH  24  27
ENDBRANCH  18  24
ENDBRANCH   1  23
TORSDOF 5
ENDMDL
MODEL 7
REMARK VINA RESULT:      -9.0      1.263      1.640
REMARK  Name = 
REMARK  8 active torsions:
REMARK  status: ('A' for Active; 'I' for Inactive)
REMARK    1  A    between atoms: C_1  and  C_2
REMARK    2  A    between atoms: C_2  and  C_3
REMARK    3  A    between atoms: C_2  and  C_4
REMARK    4  A    between atoms: C_2  and  N_5
REMARK    5  A    between atoms: N_5  and  S_6
REMARK    6  A    between atoms: S_6  and  C_9
REMARK    7  A    between atoms: C_14  and  C_15
REMARK    8  A    between atoms: C_18  and  C_19
REMARK                            x       y       z     vdW  Elec       q    Type
REMARK                         _______ _______ _______ _____ _____    ______ ____
ROOT
ATOM      1  C   UNL     1       3.078   7.204  18.179  0.00  0.00    +0.000 A 
ATOM      2  C   UNL     1       2.676   8.366  17.521  0.00  0.00    +0.000 A 
ATOM      3  C   UNL     1       1.723   9.241  18.052  0.00  0.00    +0.000 A 
ATOM      4  C   UNL     1       1.225   9.080  19.349  0.00  0.00    +0.000 A 
ATOM      5  C   UNL     1       1.756   8.015  20.083  0.00  0.00    +0.000 A 
ATOM      6  F   UNL     1       1.419   7.844  21.370  0.00  0.00    +0.000 F 
ATOM      7  C   UNL     1       2.635   7.084  19.510  0.00  0.00    +0.000 A 
ENDROOT
BRANCH   4   8
ATOM      8  C   UNL     1       0.235  10.033  19.881  0.00  0.00    +0.000 A 
ATOM      9  C   UNL     1       0.400  10.686  21.114  0.00  0.00    +0.000 A 
ATOM     10  N   UNL     1      -0.423  11.648  21.618  0.00  0.00    +0.000 NA
ATOM     11  C   UNL     1      -1.453  11.982  20.841  0.00  0.00    +0.000 A 
ATOM     12  C   UNL     1      -1.742  11.365  19.639  0.00  0.00    +0.000 A 
ATOM     13  C   UNL     1      -0.907  10.380  19.143  0.00  0.00    +0.000 A 
ATOM     14  C   UNL     1      -2.985  11.940  19.060  0.00  0.00    +0.000 C 
ATOM     15  C   UNL     1      -3.460  12.843  20.218  0.00  0.00    +0.000 C 
ATOM     16  N   UNL     1      -2.328  13.051  21.115  0.00  0.00    +0.000 N 
ATOM     17  H   UNL     1      -2.455  13.159  22.116  0.00  0.00    +0.000 HD
ENDBRANCH   4   8
BRANCH   1  23
ATOM     18  C   UNL     1       3.652   4.833  17.253  0.00  0.00    +0.000 A 
ATOM     19  C   UNL     1       4.608   4.003  16.628  0.00  0.00    +0.000 A 
ATOM     20  C   UNL     1       5.888   4.450  16.332  0.00  0.00    +0.000 A 
ATOM     21  C   UNL     1       6.232   5.756  16.627  0.00  0.00    +0.000 A 
ATOM     22  C   UNL     1       5.282   6.606  17.201  0.00  0.00    +0.000 A 
ATOM     23  C   UNL     1       3.968   6.194  17.547  0.00  0.00    +0.000 A 
BRANCH  18  24
ATOM     24  S   UNL     1       2.123   3.987  17.695  0.00  0.00    +0.000 S 
ATOM     25  O   UNL     1       2.273   2.607  17.287  0.00  0.00    +0.000 OA
ATOM     26  O   UNL     1       1.000   4.737  17.183  0.00  0.00    +0.000 OA
BRANCH  24  27
ATOM     27  N   UNL     1       2.080   4.052  19.390  0.00  0.00    +0.000 NA
ATOM     28  H   UNL     1       2.501   4.914  19.741  0.00  0.00    +0.000 HD
BRANCH  27  30
ATOM     29  C   UNL     1       1.616   1.621  19.734  0.00  0.00    +0.000 C 
ATOM     30  C   UNL     1       2.385   2.849  20.224  0.00  0.00    +0.000 C 
ATOM     31  C   UNL     1       2.127   3.152  21.708  0.00  0.00    +0.000 C 
ATOM     32  C   UNL     1       3.892   2.551  20.088  0.00  0.00    +0.000 C 
ENDBRANCH  27  30
ENDBRANCH  24  27
ENDBRANCH  18  24
ENDBRANCH   1  23
TORSDOF 5
ENDMDL
MODEL 8
REMARK VINA RESULT:      -8.6      4.021      8.377
REMARK  Name = 
REMARK  8 active torsions:
REMARK  status: ('A' for Active; 'I' for Inactive)
REMARK    1  A    between atoms: C_1  and  C_2
REMARK    2  A    between atoms: C_2  and  C_3
REMARK    3  A    between atoms: C_2  and  C_4
REMARK    4  A    between atoms: C_2  and  N_5
REMARK    5  A    between atoms: N_5  and  S_6
REMARK    6  A    between atoms: S_6  and  C_9
REMARK    7  A    between atoms: C_14  and  C_15
REMARK    8  A    between atoms: C_18  and  C_19
REMARK                            x       y       z     vdW  Elec       q    Type
REMARK                         _______ _______ _______ _____ _____    ______ ____
ROOT
ATOM      1  C   UNL     1       1.396  10.516  18.975  0.00  0.00    +0.000 A 
ATOM      2  C   UNL     1       1.682   9.720  17.865  0.00  0.00    +0.000 A 
ATOM      3  C   UNL     1       2.021   8.368  17.977  0.00  0.00    +0.000 A 
ATOM      4  C   UNL     1       1.946   7.693  19.200  0.00  0.00    +0.000 A 
ATOM      5  C   UNL     1       1.490   8.443  20.288  0.00  0.00    +0.000 A 
ATOM      6  F   UNL     1       1.284   7.858  21.477  0.00  0.00    +0.000 F 
ATOM      7  C   UNL     1       1.249   9.822  20.190  0.00  0.00    +0.000 A 
ENDROOT
BRANCH   4   8
ATOM      8  C   UNL     1       2.294   6.263  19.275  0.00  0.00    +0.000 A 
ATOM      9  C   UNL     1       2.232   5.531  20.473  0.00  0.00    +0.000 A 
ATOM     10  N   UNL     1       2.443   4.192  20.595  0.00  0.00    +0.000 NA
ATOM     11  C   UNL     1       2.714   3.551  19.459  0.00  0.00    +0.000 A 
ATOM     12  C   UNL     1       2.857   4.179  18.236  0.00  0.00    +0.000 A 
ATOM     13  C   UNL     1       2.654   5.543  18.126  0.00  0.00    +0.000 A 
ATOM     14  C   UNL     1       3.212   3.182  17.191  0.00  0.00    +0.000 C 
ATOM     15  C   UNL     1       3.440   1.921  18.052  0.00  0.00    +0.000 C 
ATOM     16  N   UNL     1       2.818   2.150  19.352  0.00  0.00    +0.000 N 
ATOM     17  H   UNL     1       3.205   1.757  20.204  0.00  0.00    +0.000 HD
ENDBRANCH   4   8
BRANCH   1  23
ATOM     18  C   UNL     1      -0.054  12.682  18.854  0.00  0.00    +0.000 A 
ATOM     19  C   UNL     1      -0.077  14.091  18.773  0.00  0.00    +0.000 A 
ATOM     20  C   UNL     1       1.085  14.840  18.652  0.00  0.00    +0.000 A 
ATOM     21  C   UNL     1       2.307  14.193  18.643  0.00  0.00    +0.000 A 
ATOM     22  C   UNL     1       2.350  12.801  18.773  0.00  0.00    +0.000 A 
ATOM     23  C   UNL     1       1.193  11.986  18.873  0.00  0.00    +0.000 A 
BRANCH  18  24
ATOM     24  S   UNL     1      -1.687  11.918  18.828  0.00  0.00    +0.000 S 
ATOM     25  O   UNL     1      -2.589  12.834  19.494  0.00  0.00    +0.000 OA
ATOM     26  O   UNL     1      -1.587  10.567  19.327  0.00  0.00    +0.000 OA
BRANCH  24  27
ATOM     27  N   UNL     1      -2.095  11.852  17.183  0.00  0.00    +0.000 NA
ATOM     28  H   UNL     1      -2.065  12.778  16.753  0.00  0.00    +0.000 HD
BRANCH  27  30
ATOM     29  C   UNL     1      -4.567  11.695  16.858  0.00  0.00    +0.000 C 
ATOM     30  C   UNL     1      -3.218  10.995  16.693  0.00  0.00    +0.000 C 
ATOM     31  C   UNL     1      -3.178   9.621  17.381  0.00  0.00    +0.000 C 
ATOM     32  C   UNL     1      -2.995  10.742  15.188  0.00  0.00    +0.000 C 
ENDBRANCH  27  30
ENDBRANCH  24  27
ENDBRANCH  18  24
ENDBRANCH   1  23
TORSDOF 5
ENDMDL
MODEL 9
REMARK VINA RESULT:      -8.6      2.539      4.133
REMARK  Name = 
REMARK  8 active torsions:
REMARK  status: ('A' for Active; 'I' for Inactive)
REMARK    1  A    between atoms: C_1  and  C_2
REMARK    2  A    between atoms: C_2  and  C_3
REMARK    3  A    between atoms: C_2  and  C_4
REMARK    4  A    between atoms: C_2  and  N_5
REMARK    5  A    between atoms: N_5  and  S_6
REMARK    6  A    between atoms: S_6  and  C_9
REMARK    7  A    between atoms: C_14  and  C_15
REMARK    8  A    between atoms: C_18  and  C_19
REMARK                            x       y       z     vdW  Elec       q    Type
REMARK                         _______ _______ _______ _____ _____    ______ ____
ROOT
ATOM      1  C   UNL     1       2.346   6.215  18.767  0.00  0.00    +0.000 A 
ATOM      2  C   UNL     1       2.268   7.116  17.705  0.00  0.00    +0.000 A 
ATOM      3  C   UNL     1       1.783   8.419  17.857  0.00  0.00    +0.000 A 
ATOM      4  C   UNL     1       1.489   8.947  19.118  0.00  0.00    +0.000 A 
ATOM      5  C   UNL     1       1.733   8.106  20.208  0.00  0.00    +0.000 A 
ATOM      6  F   UNL     1       1.583   8.560  21.462  0.00  0.00    +0.000 F 
ATOM      7  C   UNL     1       2.123   6.769  20.041  0.00  0.00    +0.000 A 
ENDROOT
BRANCH   4   8
ATOM      8  C   UNL     1       0.997  10.331  19.241  0.00  0.00    +0.000 A 
ATOM      9  C   UNL     1       1.645  11.421  18.635  0.00  0.00    +0.000 A 
ATOM     10  N   UNL     1       1.193  12.706  18.625  0.00  0.00    +0.000 NA
ATOM     11  C   UNL     1       0.026  12.905  19.237  0.00  0.00    +0.000 A 
ATOM     12  C   UNL     1      -0.666  11.919  19.915  0.00  0.00    +0.000 A 
ATOM     13  C   UNL     1      -0.190  10.620  19.930  0.00  0.00    +0.000 A 
ATOM     14  C   UNL     1      -1.895  12.490  20.527  0.00  0.00    +0.000 C 
ATOM     15  C   UNL     1      -1.687  13.995  20.255  0.00  0.00    +0.000 C 
ATOM     16  N   UNL     1      -0.676  14.125  19.210  0.00  0.00    +0.000 N 
ATOM     17  H   UNL     1      -0.030  14.907  19.189  0.00  0.00    +0.000 HD
ENDBRANCH   4   8
BRANCH   1  23
ATOM     18  C   UNL     1       4.025   4.234  18.516  0.00  0.00    +0.000 A 
ATOM     19  C   UNL     1       4.202   2.843  18.351  0.00  0.00    +0.000 A 
ATOM     20  C   UNL     1       3.128   1.979  18.188  0.00  0.00    +0.000 A 
ATOM     21  C   UNL     1       1.843   2.487  18.218  0.00  0.00    +0.000 A 
ATOM     22  C   UNL     1       1.648   3.855  18.431  0.00  0.00    +0.000 A 
ATOM     23  C   UNL     1       2.709   4.786  18.577  0.00  0.00    +0.000 A 
BRANCH  18  24
ATOM     24  S   UNL     1       5.564   5.172  18.534  0.00  0.00    +0.000 S 
ATOM     25  O   UNL     1       6.206   4.901  19.802  0.00  0.00    +0.000 OA
ATOM     26  O   UNL     1       5.286   6.545  18.184  0.00  0.00    +0.000 OA
BRANCH  24  27
ATOM     27  N   UNL     1       6.493   4.481  17.294  0.00  0.00    +0.000 NA
ATOM     28  H   UNL     1       7.489   4.497  17.522  0.00  0.00    +0.000 HD
BRANCH  27  30
ATOM     29  C   UNL     1       5.256   5.948  15.694  0.00  0.00    +0.000 C 
ATOM     30  C   UNL     1       6.199   4.756  15.854  0.00  0.00    +0.000 C 
ATOM     31  C   UNL     1       5.666   3.487  15.170  0.00  0.00    +0.000 C 
ATOM     32  C   UNL     1       7.531   5.106  15.160  0.00  0.00    +0.000 C 
ENDBRANCH  27  30
ENDBRANCH  24  27
ENDBRANCH  18  24
ENDBRANCH   1  23
TORSDOF 5
ENDMDL
