MODEL 1
REMARK VINA RESULT:      -7.9      0.000      0.000
REMARK  Name = 
REMARK  6 active torsions:
REMARK  status: ('A' for Active; 'I' for Inactive)
REMARK    1  A    between atoms: C_1  and  C_2
REMARK    2  A    between atoms: N_11  and  C_12
REMARK    3  A    between atoms: C_12  and  C_13
REMARK    4  A    between atoms: C_18  and  C_19
REMARK    5  A    between atoms: C_19  and  O_21
REMARK    6  A    between atoms: C_23  and  C_24
REMARK                            x       y       z     vdW  Elec       q    Type
REMARK                         _______ _______ _______ _____ _____    ______ ____
ROOT
ATOM      1  C   UNL     1       5.379   4.036  15.957  0.00  0.00    +0.000 C 
ATOM      2  C   UNL     1       4.287   3.625  16.919  0.00  0.00    +0.000 C 
ATOM      3  O   UNL     1       3.780   2.512  16.759  0.00  0.00    +0.000 OA
ATOM      4  N   UNL     1       3.910   4.555  17.899  0.00  0.00    +0.000 N 
ATOM      5  C   UNL     1       2.995   4.226  18.972  0.00  0.00    +0.000 A 
ATOM      6  C   UNL     1       2.802   2.885  19.359  0.00  0.00    +0.000 A 
ATOM      7  C   UNL     1       1.957   2.537  20.413  0.00  0.00    +0.000 A 
ATOM      8  C   UNL     1       1.295   3.527  21.113  0.00  0.00    +0.000 A 
ATOM      9  C   UNL     1       1.494   4.864  20.769  0.00  0.00    +0.000 A 
ATOM     10  C   UNL     1       2.334   5.258  19.706  0.00  0.00    +0.000 A 
ATOM     11  N   UNL     1       2.490   6.614  19.392  0.00  0.00    +0.000 N 
ATOM     12  C   UNL     1       3.188   6.929  18.151  0.00  0.00    +0.000 C 
ATOM     13  C   UNL     1       4.346   5.962  17.851  0.00  0.00    +0.000 C 
ENDROOT
BRANCH  13  14
ATOM     14  C   UNL     1       5.611   6.256  18.639  0.00  0.00    +0.000 C 
ATOM     15  C   UNL     1       6.652   5.218  18.996  0.00  0.00    +0.000 C 
ATOM     16  C   UNL     1       6.992   6.304  18.017  0.00  0.00    +0.000 C 
ENDBRANCH  13  14
BRANCH  11  17
ATOM     17  C   UNL     1       2.216   7.693  20.356  0.00  0.00    +0.000 C 
BRANCH  17  18
ATOM     18  C   UNL     1       1.219   8.724  19.837  0.00  0.00    +0.000 A 
ATOM     19  C   UNL     1       1.238   9.067  18.468  0.00  0.00    +0.000 A 
ATOM     20  C   UNL     1       0.309   9.952  17.919  0.00  0.00    +0.000 A 
ATOM     21  C   UNL     1      -0.664  10.524  18.727  0.00  0.00    +0.000 A 
ATOM     22  C   UNL     1      -0.681  10.240  20.092  0.00  0.00    +0.000 A 
ATOM     23  C   UNL     1       0.277   9.378  20.663  0.00  0.00    +0.000 A 
BRANCH  23  24
ATOM     24  C   UNL     1       0.212   9.157  22.138  0.00  0.00    +0.000 C 
ATOM     25  O   UNL     1       1.011   9.609  22.938  0.00  0.00    +0.000 OA
BRANCH  24  26
ATOM     26  O   UNL     1      -0.847   8.408  22.522  0.00  0.00    +0.000 OA
ATOM     27  H   UNL     1      -0.754   7.448  22.387  0.00  0.00    +0.000 HD
ENDBRANCH  24  26
ENDBRANCH  23  24
ENDBRANCH  17  18
ENDBRANCH  11  17
TORSDOF 5
ENDMDL
MODEL 2
REMARK VINA RESULT:      -7.9      1.384      1.746
REMARK  Name = 
REMARK  6 active torsions:
REMARK  status: ('A' for Active; 'I' for Inactive)
REMARK    1  A    between atoms: C_1  and  C_2
REMARK    2  A    between atoms: N_11  and  C_12
REMARK    3  A    between atoms: C_12  and  C_13
REMARK    4  A    between atoms: C_18  and  C_19
REMARK    5  A    between atoms: C_19  and  O_21
REMARK    6  A    between atoms: C_23  and  C_24
REMARK                            x       y       z     vdW  Elec       q    Type
REMARK                         _______ _______ _______ _____ _____    ______ ____
ROOT
ATOM      1  C   UNL     1       7.041   5.020  15.314  0.00  0.00    +0.000 C 
ATOM      2  C   UNL     1       5.725   4.368  15.674  0.00  0.00    +0.000 C 
ATOM      3  O   UNL     1       5.340   3.437  14.962  0.00  0.00    +0.000 OA
ATOM      4  N   UNL     1       5.024   4.895  16.770  0.00  0.00    +0.000 N 
ATOM      5  C   UNL     1       3.838   4.264  17.310  0.00  0.00    +0.000 A 
ATOM      6  C   UNL     1       3.594   2.894  17.087  0.00  0.00    +0.000 A 
ATOM      7  C   UNL     1       2.481   2.247  17.624  0.00  0.00    +0.000 A 
ATOM      8  C   UNL     1       1.594   2.954  18.412  0.00  0.00    +0.000 A 
ATOM      9  C   UNL     1       1.831   4.305  18.674  0.00  0.00    +0.000 A 
ATOM     10  C   UNL     1       2.940   4.997  18.144  0.00  0.00    +0.000 A 
ATOM     11  N   UNL     1       3.126   6.357  18.426  0.00  0.00    +0.000 N 
ATOM     12  C   UNL     1       4.159   7.054  17.668  0.00  0.00    +0.000 C 
ATOM     13  C   UNL     1       5.393   6.179  17.390  0.00  0.00    +0.000 C 
ENDROOT
BRANCH  13  14
ATOM     14  C   UNL     1       6.340   6.060  18.571  0.00  0.00    +0.000 C 
ATOM     15  C   UNL     1       7.501   5.092  18.637  0.00  0.00    +0.000 C 
ATOM     16  C   UNL     1       7.769   6.567  18.553  0.00  0.00    +0.000 C 
ENDBRANCH  13  14
BRANCH  11  17
ATOM     17  C   UNL     1       2.522   7.018  19.596  0.00  0.00    +0.000 C 
BRANCH  17  18
ATOM     18  C   UNL     1       1.906   8.374  19.266  0.00  0.00    +0.000 A 
ATOM     19  C   UNL     1       2.196   8.976  18.023  0.00  0.00    +0.000 A 
ATOM     20  C   UNL     1       1.611  10.182  17.636  0.00  0.00    +0.000 A 
ATOM     21  C   UNL     1       0.721  10.824  18.486  0.00  0.00    +0.000 A 
ATOM     22  C   UNL     1       0.449  10.278  19.739  0.00  0.00    +0.000 A 
ATOM     23  C   UNL     1       1.065   9.080  20.156  0.00  0.00    +0.000 A 
BRANCH  23  24
ATOM     24  C   UNL     1       0.748   8.584  21.527  0.00  0.00    +0.000 C 
ATOM     25  O   UNL     1      -0.314   8.085  21.851  0.00  0.00    +0.000 OA
BRANCH  24  26
ATOM     26  O   UNL     1       1.773   8.724  22.399  0.00  0.00    +0.000 OA
ATOM     27  H   UNL     1       2.081   9.637  22.543  0.00  0.00    +0.000 HD
ENDBRANCH  24  26
ENDBRANCH  23  24
ENDBRANCH  17  18
ENDBRANCH  11  17
TORSDOF 5
ENDMDL
MODEL 3
REMARK VINA RESULT:      -7.3      2.006      4.117
REMARK  Name = 
REMARK  6 active torsions:
REMARK  status: ('A' for Active; 'I' for Inactive)
REMARK    1  A    between atoms: C_1  and  C_2
REMARK    2  A    between atoms: N_11  and  C_12
REMARK    3  A    between atoms: C_12  and  C_13
REMARK    4  A    between atoms: C_18  and  C_19
REMARK    5  A    between atoms: C_19  and  O_21
REMARK    6  A    between atoms: C_23  and  C_24
REMARK                            x       y       z     vdW  Elec       q    Type
REMARK                         _______ _______ _______ _____ _____    ______ ____
ROOT
ATOM      1  C   UNL     1       3.775   2.380  20.691  0.00  0.00    +0.000 C 
ATOM      2  C   UNL     1       4.428   3.314  19.697  0.00  0.00    +0.000 C 
ATOM      3  O   UNL     1       5.580   3.051  19.345  0.00  0.00    +0.000 OA
ATOM      4  N   UNL     1       3.685   4.427  19.276  0.00  0.00    +0.000 N 
ATOM      5  C   UNL     1       4.132   5.304  18.214  0.00  0.00    +0.000 A 
ATOM      6  C   UNL     1       5.063   4.850  17.258  0.00  0.00    +0.000 A 
ATOM      7  C   UNL     1       5.487   5.655  16.201  0.00  0.00    +0.000 A 
ATOM      8  C   UNL     1       4.975   6.931  16.067  0.00  0.00    +0.000 A 
ATOM      9  C   UNL     1       4.029   7.393  16.983  0.00  0.00    +0.000 A 
ATOM     10  C   UNL     1       3.579   6.612  18.069  0.00  0.00    +0.000 A 
ATOM     11  N   UNL     1       2.637   7.127  18.969  0.00  0.00    +0.000 N 
ATOM     12  C   UNL     1       2.392   6.357  20.183  0.00  0.00    +0.000 C 
ATOM     13  C   UNL     1       2.441   4.837  19.950  0.00  0.00    +0.000 C 
ENDROOT
BRANCH  13  14
ATOM     14  C   UNL     1       1.174   4.270  19.334  0.00  0.00    +0.000 C 
ATOM     15  C   UNL     1       1.154   3.241  18.225  0.00  0.00    +0.000 C 
ATOM     16  C   UNL     1       0.673   2.864  19.596  0.00  0.00    +0.000 C 
ENDBRANCH  13  14
BRANCH  11  17
ATOM     17  C   UNL     1       1.730   8.236  18.626  0.00  0.00    +0.000 C 
BRANCH  17  18
ATOM     18  C   UNL     1       1.108   8.903  19.848  0.00  0.00    +0.000 A 
ATOM     19  C   UNL     1       1.467   8.448  21.136  0.00  0.00    +0.000 A 
ATOM     20  C   UNL     1       0.985   9.061  22.292  0.00  0.00    +0.000 A 
ATOM     21  C   UNL     1       0.123  10.144  22.195  0.00  0.00    +0.000 A 
ATOM     22  C   UNL     1      -0.288  10.587  20.939  0.00  0.00    +0.000 A 
ATOM     23  C   UNL     1       0.163   9.951  19.764  0.00  0.00    +0.000 A 
BRANCH  23  24
ATOM     24  C   UNL     1      -0.354  10.464  18.462  0.00  0.00    +0.000 C 
ATOM     25  O   UNL     1      -1.304   9.993  17.864  0.00  0.00    +0.000 OA
BRANCH  24  26
ATOM     26  O   UNL     1       0.329  11.536  17.997  0.00  0.00    +0.000 OA
ATOM     27  H   UNL     1       0.154  11.776  17.069  0.00  0.00    +0.000 HD
ENDBRANCH  24  26
ENDBRANCH  23  24
ENDBRANCH  17  18
ENDBRANCH  11  17
TORSDOF 5
ENDMDL
MODEL 4
REMARK VINA RESULT:      -7.2      6.093      9.160
REMARK  Name = 
REMARK  6 active torsions:
REMARK  status: ('A' for Active; 'I' for Inactive)
REMARK    1  A    between atoms: C_1  and  C_2
REMARK    2  A    between atoms: N_11  and  C_12
REMARK    3  A    between atoms: C_12  and  C_13
REMARK    4  A    between atoms: C_18  and  C_19
REMARK    5  A    between atoms: C_19  and  O_21
REMARK    6  A    between atoms: C_23  and  C_24
REMARK                            x       y       z     vdW  Elec       q    Type
REMARK                         _______ _______ _______ _____ _____    ______ ____
ROOT
ATOM      1  C   UNL     1      -4.861  11.826  16.770  0.00  0.00    +0.000 C 
ATOM      2  C   UNL     1      -5.277  12.287  18.148  0.00  0.00    +0.000 C 
ATOM      3  O   UNL     1      -6.446  12.655  18.294  0.00  0.00    +0.000 OA
ATOM      4  N   UNL     1      -4.293  12.296  19.148  0.00  0.00    +0.000 N 
ATOM      5  C   UNL     1      -4.600  12.563  20.538  0.00  0.00    +0.000 A 
ATOM      6  C   UNL     1      -5.906  12.373  21.030  0.00  0.00    +0.000 A 
ATOM      7  C   UNL     1      -6.227  12.585  22.371  0.00  0.00    +0.000 A 
ATOM      8  C   UNL     1      -5.241  12.979  23.254  0.00  0.00    +0.000 A 
ATOM      9  C   UNL     1      -3.933  13.145  22.797  0.00  0.00    +0.000 A 
ATOM     10  C   UNL     1      -3.569  12.947  21.449  0.00  0.00    +0.000 A 
ATOM     11  N   UNL     1      -2.243  13.139  21.038  0.00  0.00    +0.000 N 
ATOM     12  C   UNL     1      -1.990  13.137  19.602  0.00  0.00    +0.000 C 
ATOM     13  C   UNL     1      -2.863  12.126  18.839  0.00  0.00    +0.000 C 
ENDROOT
BRANCH  13  14
ATOM     14  C   UNL     1      -2.364  10.694  18.930  0.00  0.00    +0.000 C 
ATOM     15  C   UNL     1      -2.472   9.684  17.809  0.00  0.00    +0.000 C 
ATOM     16  C   UNL     1      -1.121  10.195  18.221  0.00  0.00    +0.000 C 
ENDBRANCH  13  14
BRANCH  11  17
ATOM     17  C   UNL     1      -1.104  13.084  21.969  0.00  0.00    +0.000 C 
BRANCH  17  18
ATOM     18  C   UNL     1      -0.470  11.700  22.061  0.00  0.00    +0.000 A 
ATOM     19  C   UNL     1      -1.048  10.735  22.913  0.00  0.00    +0.000 A 
ATOM     20  C   UNL     1      -0.555   9.432  22.989  0.00  0.00    +0.000 A 
ATOM     21  C   UNL     1       0.536   9.058  22.217  0.00  0.00    +0.000 A 
ATOM     22  C   UNL     1       1.158  10.001  21.400  0.00  0.00    +0.000 A 
ATOM     23  C   UNL     1       0.692  11.330  21.345  0.00  0.00    +0.000 A 
BRANCH  23  24
ATOM     24  C   UNL     1       1.437  12.285  20.474  0.00  0.00    +0.000 C 
ATOM     25  O   UNL     1       1.307  12.361  19.266  0.00  0.00    +0.000 OA
BRANCH  24  26
ATOM     26  O   UNL     1       2.279  13.092  21.159  0.00  0.00    +0.000 OA
ATOM     27  H   UNL     1       1.854  13.780  21.702  0.00  0.00    +0.000 HD
ENDBRANCH  24  26
ENDBRANCH  23  24
ENDBRANCH  17  18
ENDBRANCH  11  17
TORSDOF 5
ENDMDL
MODEL 5
REMARK VINA RESULT:      -7.1      4.259      8.855
REMARK  Name = 
REMARK  6 active torsions:
REMARK  status: ('A' for Active; 'I' for Inactive)
REMARK    1  A    between atoms: C_1  and  C_2
REMARK    2  A    between atoms: N_11  and  C_12
REMARK    3  A    between atoms: C_12  and  C_13
REMARK    4  A    between atoms: C_18  and  C_19
REMARK    5  A    between atoms: C_19  and  O_21
REMARK    6  A    between atoms: C_23  and  C_24
REMARK                            x       y       z     vdW  Elec       q    Type
REMARK                         _______ _______ _______ _____ _____    ______ ____
ROOT
ATOM      1  C   UNL     1       2.247  16.602  21.505  0.00  0.00    +0.000 C 
ATOM      2  C   UNL     1       1.285  15.740  22.291  0.00  0.00    +0.000 C 
ATOM      3  O   UNL     1       1.127  16.010  23.484  0.00  0.00    +0.000 OA
ATOM      4  N   UNL     1       0.672  14.676  21.612  0.00  0.00    +0.000 N 
ATOM      5  C   UNL     1      -0.381  13.879  22.205  0.00  0.00    +0.000 A 
ATOM      6  C   UNL     1      -1.151  14.391  23.268  0.00  0.00    +0.000 A 
ATOM      7  C   UNL     1      -2.197  13.665  23.837  0.00  0.00    +0.000 A 
ATOM      8  C   UNL     1      -2.506  12.412  23.343  0.00  0.00    +0.000 A 
ATOM      9  C   UNL     1      -1.778  11.896  22.271  0.00  0.00    +0.000 A 
ATOM     10  C   UNL     1      -0.709  12.595  21.672  0.00  0.00    +0.000 A 
ATOM     11  N   UNL     1      -0.001  12.027  20.605  0.00  0.00    +0.000 N 
ATOM     12  C   UNL     1       1.223  12.702  20.190  0.00  0.00    +0.000 C 
ATOM     13  C   UNL     1       1.123  14.235  20.280  0.00  0.00    +0.000 C 
ENDROOT
BRANCH  13  14
ATOM     14  C   UNL     1       0.377  14.871  19.120  0.00  0.00    +0.000 C 
ATOM     15  C   UNL     1      -0.520  16.081  19.247  0.00  0.00    +0.000 C 
ATOM     16  C   UNL     1       0.774  16.193  18.495  0.00  0.00    +0.000 C 
ENDBRANCH  13  14
BRANCH  11  17
ATOM     17  C   UNL     1      -0.561  10.964  19.753  0.00  0.00    +0.000 C 
BRANCH  17  18
ATOM     18  C   UNL     1       0.425   9.833  19.479  0.00  0.00    +0.000 A 
ATOM     19  C   UNL     1       0.952   9.681  18.178  0.00  0.00    +0.000 A 
ATOM     20  C   UNL     1       1.908   8.709  17.881  0.00  0.00    +0.000 A 
ATOM     21  C   UNL     1       2.361   7.856  18.878  0.00  0.00    +0.000 A 
ATOM     22  C   UNL     1       1.827   7.951  20.162  0.00  0.00    +0.000 A 
ATOM     23  C   UNL     1       0.832   8.904  20.463  0.00  0.00    +0.000 A 
BRANCH  23  24
ATOM     24  C   UNL     1       0.287   8.913  21.852  0.00  0.00    +0.000 C 
ATOM     25  O   UNL     1      -0.762   8.392  22.183  0.00  0.00    +0.000 OA
BRANCH  24  26
ATOM     26  O   UNL     1       1.085   9.551  22.738  0.00  0.00    +0.000 OA
ATOM     27  H   UNL     1       1.499   8.985  23.415  0.00  0.00    +0.000 HD
ENDBRANCH  24  26
ENDBRANCH  23  24
ENDBRANCH  17  18
ENDBRANCH  11  17
TORSDOF 5
ENDMDL
MODEL 6
REMARK VINA RESULT:      -7.0      3.733      8.333
REMARK  Name = 
REMARK  6 active torsions:
REMARK  status: ('A' for Active; 'I' for Inactive)
REMARK    1  A    between atoms: C_1  and  C_2
REMARK    2  A    between atoms: N_11  and  C_12
REMARK    3  A    between atoms: C_12  and  C_13
REMARK    4  A    between atoms: C_18  and  C_19
REMARK    5  A    between atoms: C_19  and  O_21
REMARK    6  A    between atoms: C_23  and  C_24
REMARK                            x       y       z     vdW  Elec       q    Type
REMARK                         _______ _______ _______ _____ _____    ______ ____
ROOT
ATOM      1  C   UNL     1      -4.375  13.975  21.287  0.00  0.00    +0.000 C 
ATOM      2  C   UNL     1      -4.213  12.847  20.294  0.00  0.00    +0.000 C 
ATOM      3  O   UNL     1      -5.237  12.268  19.923  0.00  0.00    +0.000 OA
ATOM      4  N   UNL     1      -2.907  12.521  19.897  0.00  0.00    +0.000 N 
ATOM      5  C   UNL     1      -2.631  11.573  18.838  0.00  0.00    +0.000 A 
ATOM      6  C   UNL     1      -3.608  11.285  17.865  0.00  0.00    +0.000 A 
ATOM      7  C   UNL     1      -3.361  10.405  16.811  0.00  0.00    +0.000 A 
ATOM      8  C   UNL     1      -2.123   9.804  16.699  0.00  0.00    +0.000 A 
ATOM      9  C   UNL     1      -1.128  10.097  17.633  0.00  0.00    +0.000 A 
ATOM     10  C   UNL     1      -1.339  10.975  18.717  0.00  0.00    +0.000 A 
ATOM     11  N   UNL     1      -0.312  11.226  19.636  0.00  0.00    +0.000 N 
ATOM     12  C   UNL     1      -0.670  11.960  20.844  0.00  0.00    +0.000 C 
ATOM     13  C   UNL     1      -1.723  13.053  20.593  0.00  0.00    +0.000 C 
ENDROOT
BRANCH  13  14
ATOM     14  C   UNL     1      -1.154  14.325  19.988  0.00  0.00    +0.000 C 
ATOM     15  C   UNL     1      -1.133  15.665  20.690  0.00  0.00    +0.000 C 
ATOM     16  C   UNL     1       0.158  14.945  20.426  0.00  0.00    +0.000 C 
ENDBRANCH  13  14
BRANCH  11  17
ATOM     17  C   UNL     1       1.111  11.014  19.318  0.00  0.00    +0.000 C 
BRANCH  17  18
ATOM     18  C   UNL     1       1.490   9.540  19.221  0.00  0.00    +0.000 A 
ATOM     19  C   UNL     1       1.939   9.026  17.985  0.00  0.00    +0.000 A 
ATOM     20  C   UNL     1       2.364   7.705  17.849  0.00  0.00    +0.000 A 
ATOM     21  C   UNL     1       2.347   6.855  18.946  0.00  0.00    +0.000 A 
ATOM     22  C   UNL     1       1.866   7.319  20.169  0.00  0.00    +0.000 A 
ATOM     23  C   UNL     1       1.398   8.642  20.308  0.00  0.00    +0.000 A 
BRANCH  23  24
ATOM     24  C   UNL     1       0.864   9.047  21.642  0.00  0.00    +0.000 C 
ATOM     25  O   UNL     1       1.489   9.687  22.467  0.00  0.00    +0.000 OA
BRANCH  24  26
ATOM     26  O   UNL     1      -0.410   8.646  21.855  0.00  0.00    +0.000 OA
ATOM     27  H   UNL     1      -0.736   7.947  21.260  0.00  0.00    +0.000 HD
ENDBRANCH  24  26
ENDBRANCH  23  24
ENDBRANCH  17  18
ENDBRANCH  11  17
TORSDOF 5
ENDMDL
MODEL 7
REMARK VINA RESULT:      -6.9      2.119      6.213
REMARK  Name = 
REMARK  6 active torsions:
REMARK  status: ('A' for Active; 'I' for Inactive)
REMARK    1  A    between atoms: C_1  and  C_2
REMARK    2  A    between atoms: N_11  and  C_12
REMARK    3  A    between atoms: C_12  and  C_13
REMARK    4  A    between atoms: C_18  and  C_19
REMARK    5  A    between atoms: C_19  and  O_21
REMARK    6  A    between atoms: C_23  and  C_24
REMARK                            x       y       z     vdW  Elec       q    Type
REMARK                         _______ _______ _______ _____ _____    ______ ____
ROOT
ATOM      1  C   UNL     1       1.737   8.390  20.522  0.00  0.00    +0.000 C 
ATOM      2  C   UNL     1       1.480   6.910  20.688  0.00  0.00    +0.000 C 
ATOM      3  O   UNL     1       0.576   6.574  21.458  0.00  0.00    +0.000 OA
ATOM      4  N   UNL     1       2.313   6.029  19.982  0.00  0.00    +0.000 N 
ATOM      5  C   UNL     1       2.071   4.602  19.932  0.00  0.00    +0.000 A 
ATOM      6  C   UNL     1       0.783   4.087  20.181  0.00  0.00    +0.000 A 
ATOM      7  C   UNL     1       0.508   2.722  20.105  0.00  0.00    +0.000 A 
ATOM      8  C   UNL     1       1.515   1.841  19.761  0.00  0.00    +0.000 A 
ATOM      9  C   UNL     1       2.791   2.329  19.480  0.00  0.00    +0.000 A 
ATOM     10  C   UNL     1       3.112   3.701  19.552  0.00  0.00    +0.000 A 
ATOM     11  N   UNL     1       4.413   4.140  19.272  0.00  0.00    +0.000 N 
ATOM     12  C   UNL     1       4.724   5.530  19.585  0.00  0.00    +0.000 C 
ATOM     13  C   UNL     1       3.547   6.483  19.317  0.00  0.00    +0.000 C 
ENDROOT
BRANCH  13  14
ATOM     14  C   UNL     1       3.376   6.850  17.853  0.00  0.00    +0.000 C 
ATOM     15  C   UNL     1       3.111   8.253  17.353  0.00  0.00    +0.000 C 
ATOM     16  C   UNL     1       4.424   7.592  17.049  0.00  0.00    +0.000 C 
ENDBRANCH  13  14
BRANCH  11  17
ATOM     17  C   UNL     1       5.363   3.354  18.465  0.00  0.00    +0.000 C 
BRANCH  17  18
ATOM     18  C   UNL     1       5.697   4.007  17.128  0.00  0.00    +0.000 A 
ATOM     19  C   UNL     1       4.781   3.894  16.060  0.00  0.00    +0.000 A 
ATOM     20  C   UNL     1       4.998   4.525  14.836  0.00  0.00    +0.000 A 
ATOM     21  C   UNL     1       6.143   5.285  14.641  0.00  0.00    +0.000 A 
ATOM     22  C   UNL     1       7.089   5.379  15.661  0.00  0.00    +0.000 A 
ATOM     23  C   UNL     1       6.898   4.714  16.889  0.00  0.00    +0.000 A 
BRANCH  23  24
ATOM     24  C   UNL     1       7.977   4.836  17.912  0.00  0.00    +0.000 C 
ATOM     25  O   UNL     1       8.826   3.989  18.122  0.00  0.00    +0.000 OA
BRANCH  24  26
ATOM     26  O   UNL     1       7.941   6.004  18.594  0.00  0.00    +0.000 OA
ATOM     27  H   UNL     1       7.675   5.937  19.529  0.00  0.00    +0.000 HD
ENDBRANCH  24  26
ENDBRANCH  23  24
ENDBRANCH  17  18
ENDBRANCH  11  17
TORSDOF 5
ENDMDL
MODEL 8
REMARK VINA RESULT:      -6.9      3.946      6.490
REMARK  Name = 
REMARK  6 active torsions:
REMARK  status: ('A' for Active; 'I' for Inactive)
REMARK    1  A    between atoms: C_1  and  C_2
REMARK    2  A    between atoms: N_11  and  C_12
REMARK    3  A    between atoms: C_12  and  C_13
REMARK    4  A    between atoms: C_18  and  C_19
REMARK    5  A    between atoms: C_19  and  O_21
REMARK    6  A    between atoms: C_23  and  C_24
REMARK                            x       y       z     vdW  Elec       q    Type
REMARK                         _______ _______ _______ _____ _____    ______ ____
ROOT
ATOM      1  C   UNL     1       2.582   8.494  17.862  0.00  0.00    +0.000 C 
ATOM      2  C   UNL     1       1.860   8.479  19.190  0.00  0.00    +0.000 C 
ATOM      3  O   UNL     1       2.001   7.481  19.901  0.00  0.00    +0.000 OA
ATOM      4  N   UNL     1       1.055   9.587  19.497  0.00  0.00    +0.000 N 
ATOM      5  C   UNL     1       0.441   9.765  20.796  0.00  0.00    +0.000 A 
ATOM      6  C   UNL     1       0.968   9.116  21.930  0.00  0.00    +0.000 A 
ATOM      7  C   UNL     1       0.424   9.295  23.202  0.00  0.00    +0.000 A 
ATOM      8  C   UNL     1      -0.654  10.142  23.370  0.00  0.00    +0.000 A 
ATOM      9  C   UNL     1      -1.176  10.820  22.267  0.00  0.00    +0.000 A 
ATOM     10  C   UNL     1      -0.658  10.661  20.964  0.00  0.00    +0.000 A 
ATOM     11  N   UNL     1      -1.226  11.355  19.888  0.00  0.00    +0.000 N 
ATOM     12  C   UNL     1      -0.790  10.972  18.550  0.00  0.00    +0.000 C 
ATOM     13  C   UNL     1       0.702  10.600  18.488  0.00  0.00    +0.000 C 
ENDROOT
BRANCH  13  14
ATOM     14  C   UNL     1       1.632  11.801  18.449  0.00  0.00    +0.000 C 
ATOM     15  C   UNL     1       1.164  13.238  18.393  0.00  0.00    +0.000 C 
ATOM     16  C   UNL     1       1.850  12.729  19.627  0.00  0.00    +0.000 C 
ENDBRANCH  13  14
BRANCH  11  17
ATOM     17  C   UNL     1      -2.019  12.585  20.061  0.00  0.00    +0.000 C 
BRANCH  17  18
ATOM     18  C   UNL     1      -3.515  12.366  19.866  0.00  0.00    +0.000 A 
ATOM     19  C   UNL     1      -3.990  11.954  18.602  0.00  0.00    +0.000 A 
ATOM     20  C   UNL     1      -5.338  11.673  18.379  0.00  0.00    +0.000 A 
ATOM     21  C   UNL     1      -6.253  11.800  19.415  0.00  0.00    +0.000 A 
ATOM     22  C   UNL     1      -5.823  12.249  20.663  0.00  0.00    +0.000 A 
ATOM     23  C   UNL     1      -4.469  12.573  20.888  0.00  0.00    +0.000 A 
BRANCH  23  24
ATOM     24  C   UNL     1      -4.100  13.082  22.241  0.00  0.00    +0.000 C 
ATOM     25  O   UNL     1      -4.014  12.388  23.238  0.00  0.00    +0.000 OA
BRANCH  24  26
ATOM     26  O   UNL     1      -3.845  14.410  22.265  0.00  0.00    +0.000 OA
ATOM     27  H   UNL     1      -3.947  14.873  21.413  0.00  0.00    +0.000 HD
ENDBRANCH  24  26
ENDBRANCH  23  24
ENDBRANCH  17  18
ENDBRANCH  11  17
TORSDOF 5
ENDMDL
MODEL 9
REMARK VINA RESULT:      -6.8      4.056      8.891
REMARK  Name = 
REMARK  6 active torsions:
REMARK  status: ('A' for Active; 'I' for Inactive)
REMARK    1  A    between atoms: C_1  and  C_2
REMARK    2  A    between atoms: N_11  and  C_12
REMARK    3  A    between atoms: C_12  and  C_13
REMARK    4  A    between atoms: C_18  and  C_19
REMARK    5  A    between atoms: C_19  and  O_21
REMARK    6  A    between atoms: C_23  and  C_24
REMARK                            x       y       z     vdW  Elec       q    Type
REMARK                         _______ _______ _______ _____ _____    ______ ____
ROOT
ATOM      1  C   UNL     1      -5.179  13.366  22.233  0.00  0.00    +0.000 C 
ATOM      2  C   UNL     1      -4.892  12.574  20.977  0.00  0.00    +0.000 C 
ATOM      3  O   UNL     1      -5.853  12.057  20.402  0.00  0.00    +0.000 OA
ATOM      4  N   UNL     1      -3.551  12.459  20.581  0.00  0.00    +0.000 N 
ATOM      5  C   UNL     1      -3.161  11.866  19.319  0.00  0.00    +0.000 A 
ATOM      6  C   UNL     1      -4.076  11.800  18.249  0.00  0.00    +0.000 A 
ATOM      7  C   UNL     1      -3.721  11.269  17.009  0.00  0.00    +0.000 A 
ATOM      8  C   UNL     1      -2.436  10.806  16.807  0.00  0.00    +0.000 A 
ATOM      9  C   UNL     1      -1.503  10.888  17.841  0.00  0.00    +0.000 A 
ATOM     10  C   UNL     1      -1.823  11.412  19.112  0.00  0.00    +0.000 A 
ATOM     11  N   UNL     1      -0.854  11.460  20.122  0.00  0.00    +0.000 N 
ATOM     12  C   UNL     1      -1.313  11.800  21.464  0.00  0.00    +0.000 C 
ATOM     13  C   UNL     1      -2.439  12.849  21.465  0.00  0.00    +0.000 C 
ENDROOT
BRANCH  13  14
ATOM     14  C   UNL     1      -1.949  14.274  21.271  0.00  0.00    +0.000 C 
ATOM     15  C   UNL     1      -2.829  15.423  20.830  0.00  0.00    +0.000 C 
ATOM     16  C   UNL     1      -2.273  15.407  22.225  0.00  0.00    +0.000 C 
ENDBRANCH  13  14
BRANCH  11  17
ATOM     17  C   UNL     1       0.592  11.439  19.841  0.00  0.00    +0.000 C 
BRANCH  17  18
ATOM     18  C   UNL     1       1.114  10.050  19.488  0.00  0.00    +0.000 A 
ATOM     19  C   UNL     1       1.551   9.795  18.170  0.00  0.00    +0.000 A 
ATOM     20  C   UNL     1       2.101   8.566  17.803  0.00  0.00    +0.000 A 
ATOM     21  C   UNL     1       2.223   7.553  18.744  0.00  0.00    +0.000 A 
ATOM     22  C   UNL     1       1.758   7.758  20.042  0.00  0.00    +0.000 A 
ATOM     23  C   UNL     1       1.166   8.983  20.413  0.00  0.00    +0.000 A 
BRANCH  23  24
ATOM     24  C   UNL     1       0.660   9.106  21.812  0.00  0.00    +0.000 C 
ATOM     25  O   UNL     1      -0.424   8.701  22.190  0.00  0.00    +0.000 OA
BRANCH  24  26
ATOM     26  O   UNL     1       1.537   9.705  22.649  0.00  0.00    +0.000 OA
ATOM     27  H   UNL     1       1.165  10.403  23.219  0.00  0.00    +0.000 HD
ENDBRANCH  24  26
ENDBRANCH  23  24
ENDBRANCH  17  18
ENDBRANCH  11  17
TORSDOF 5
ENDMDL
