MODEL 1
REMARK VINA RESULT:      -7.8      0.000      0.000
REMARK  Name = 
REMARK  6 active torsions:
REMARK  status: ('A' for Active; 'I' for Inactive)
REMARK    1  A    between atoms: C_1  and  C_2
REMARK    2  A    between atoms: C_2  and  C_3
REMARK    3  A    between atoms: C_2  and  C_19
REMARK    4  A    between atoms: C_3  and  N_4
REMARK    5  A    between atoms: C_5  and  C_7
REMARK    6  A    between atoms: C_7  and  N_8
REMARK                            x       y       z     vdW  Elec       q    Type
REMARK                         _______ _______ _______ _____ _____    ______ ____
ROOT
ATOM      1  N   UNL     1       4.729   6.063  17.641  0.00  0.00    +0.000 N 
ATOM      2  C   UNL     1       5.549   5.414  18.548  0.00  0.00    +0.000 C 
ATOM      3  O   UNL     1       5.666   5.771  19.718  0.00  0.00    +0.000 OA
ATOM      4  H   UNL     1       4.974   5.969  16.655  0.00  0.00    +0.000 HD
ENDROOT
BRANCH   1   5
ATOM      5  C   UNL     1       3.994   7.242  18.058  0.00  0.00    +0.000 C 
BRANCH   5   7
ATOM      6  C   UNL     1       1.799   8.309  18.695  0.00  0.00    +0.000 C 
ATOM      7  C   UNL     1       2.461   7.058  18.096  0.00  0.00    +0.000 C 
BRANCH   7   8
ATOM      8  C   UNL     1       2.038   5.735  18.732  0.00  0.00    +0.000 A 
ATOM      9  C   UNL     1       1.933   5.557  20.120  0.00  0.00    +0.000 A 
ATOM     10  C   UNL     1       1.514   4.341  20.662  0.00  0.00    +0.000 A 
ATOM     11  C   UNL     1       1.193   3.275  19.829  0.00  0.00    +0.000 A 
ATOM     12  C   UNL     1       1.279   3.430  18.448  0.00  0.00    +0.000 A 
ATOM     13  C   UNL     1       1.688   4.650  17.908  0.00  0.00    +0.000 A 
ENDBRANCH   7   8
ENDBRANCH   5   7
ENDBRANCH   1   5
BRANCH   2  14
ATOM     14  C   UNL     1       6.328   4.244  17.968  0.00  0.00    +0.000 C 
BRANCH  14  15
ATOM     15  N   UNL     1       6.586   4.469  16.559  0.00  0.00    +0.000 N 
ATOM     16  N   UNL     1       7.518   5.419  16.258  0.00  0.00    +0.000 NA
ATOM     17  N   UNL     1       7.835   5.670  15.076  0.00  0.00    +0.000 NA
ATOM     18  C   UNL     1       7.265   4.934  14.030  0.00  0.00    +0.000 A 
ATOM     19  C   UNL     1       7.711   5.162  12.722  0.00  0.00    +0.000 A 
ATOM     20  C   UNL     1       7.180   4.439  11.650  0.00  0.00    +0.000 A 
ATOM     21  C   UNL     1       6.186   3.487  11.874  0.00  0.00    +0.000 A 
ATOM     22  C   UNL     1       5.726   3.257  13.170  0.00  0.00    +0.000 A 
ATOM     23  C   UNL     1       6.278   3.982  14.232  0.00  0.00    +0.000 A 
ATOM     24  C   UNL     1       5.879   3.751  15.616  0.00  0.00    +0.000 A 
ATOM     25  O   UNL     1       4.987   2.953  15.893  0.00  0.00    +0.000 OA
ENDBRANCH  14  15
ENDBRANCH   2  14
TORSDOF 5
ENDMDL
MODEL 2
REMARK VINA RESULT:      -7.8      2.427      6.908
REMARK  Name = 
REMARK  6 active torsions:
REMARK  status: ('A' for Active; 'I' for Inactive)
REMARK    1  A    between atoms: C_1  and  C_2
REMARK    2  A    between atoms: C_2  and  C_3
REMARK    3  A    between atoms: C_2  and  C_19
REMARK    4  A    between atoms: C_3  and  N_4
REMARK    5  A    between atoms: C_5  and  C_7
REMARK    6  A    between atoms: C_7  and  N_8
REMARK                            x       y       z     vdW  Elec       q    Type
REMARK                         _______ _______ _______ _____ _____    ______ ____
ROOT
ATOM      1  N   UNL     1       5.325   5.412  19.240  0.00  0.00    +0.000 N 
ATOM      2  C   UNL     1       4.644   4.208  19.286  0.00  0.00    +0.000 C 
ATOM      3  O   UNL     1       5.196   3.135  19.519  0.00  0.00    +0.000 OA
ATOM      4  H   UNL     1       4.905   6.154  18.679  0.00  0.00    +0.000 HD
ENDROOT
BRANCH   1   5
ATOM      5  C   UNL     1       6.761   5.428  19.438  0.00  0.00    +0.000 C 
BRANCH   5   7
ATOM      6  C   UNL     1       7.979   7.319  18.295  0.00  0.00    +0.000 C 
ATOM      7  C   UNL     1       7.574   5.840  18.190  0.00  0.00    +0.000 C 
BRANCH   7   8
ATOM      8  C   UNL     1       6.890   5.448  16.882  0.00  0.00    +0.000 A 
ATOM      9  C   UNL     1       7.097   4.207  16.258  0.00  0.00    +0.000 A 
ATOM     10  C   UNL     1       6.431   3.873  15.078  0.00  0.00    +0.000 A 
ATOM     11  C   UNL     1       5.546   4.773  14.493  0.00  0.00    +0.000 A 
ATOM     12  C   UNL     1       5.316   6.005  15.098  0.00  0.00    +0.000 A 
ATOM     13  C   UNL     1       5.976   6.333  16.284  0.00  0.00    +0.000 A 
ENDBRANCH   7   8
ENDBRANCH   5   7
ENDBRANCH   1   5
BRANCH   2  14
ATOM     14  C   UNL     1       3.158   4.312  18.981  0.00  0.00    +0.000 C 
BRANCH  14  15
ATOM     15  N   UNL     1       2.732   5.696  19.059  0.00  0.00    +0.000 N 
ATOM     16  N   UNL     1       2.948   6.461  17.950  0.00  0.00    +0.000 NA
ATOM     17  N   UNL     1       2.592   7.657  17.903  0.00  0.00    +0.000 NA
ATOM     18  C   UNL     1       1.911   8.226  18.986  0.00  0.00    +0.000 A 
ATOM     19  C   UNL     1       1.432   9.536  18.870  0.00  0.00    +0.000 A 
ATOM     20  C   UNL     1       0.733  10.137  19.921  0.00  0.00    +0.000 A 
ATOM     21  C   UNL     1       0.518   9.435  21.107  0.00  0.00    +0.000 A 
ATOM     22  C   UNL     1       0.998   8.133  21.239  0.00  0.00    +0.000 A 
ATOM     23  C   UNL     1       1.684   7.544  20.171  0.00  0.00    +0.000 A 
ATOM     24  C   UNL     1       2.166   6.168  20.226  0.00  0.00    +0.000 A 
ATOM     25  O   UNL     1       2.043   5.495  21.247  0.00  0.00    +0.000 OA
ENDBRANCH  14  15
ENDBRANCH   2  14
TORSDOF 5
ENDMDL
MODEL 3
REMARK VINA RESULT:      -7.7      5.477      8.710
REMARK  Name = 
REMARK  6 active torsions:
REMARK  status: ('A' for Active; 'I' for Inactive)
REMARK    1  A    between atoms: C_1  and  C_2
REMARK    2  A    between atoms: C_2  and  C_3
REMARK    3  A    between atoms: C_2  and  C_19
REMARK    4  A    between atoms: C_3  and  N_4
REMARK    5  A    between atoms: C_5  and  C_7
REMARK    6  A    between atoms: C_7  and  N_8
REMARK                            x       y       z     vdW  Elec       q    Type
REMARK                         _______ _______ _______ _____ _____    ______ ____
ROOT
ATOM      1  N   UNL     1       1.471   8.813  20.089  0.00  0.00    +0.000 N 
ATOM      2  C   UNL     1       0.855   9.766  20.881  0.00  0.00    +0.000 C 
ATOM      3  O   UNL     1       0.454   9.532  22.020  0.00  0.00    +0.000 OA
ATOM      4  H   UNL     1       1.416   8.953  19.080  0.00  0.00    +0.000 HD
ENDROOT
BRANCH   1   5
ATOM      5  C   UNL     1       1.629   7.461  20.589  0.00  0.00    +0.000 C 
BRANCH   5   7
ATOM      6  C   UNL     1       2.815   7.252  18.372  0.00  0.00    +0.000 C 
ATOM      7  C   UNL     1       2.520   6.555  19.710  0.00  0.00    +0.000 C 
BRANCH   7   8
ATOM      8  C   UNL     1       1.984   5.130  19.594  0.00  0.00    +0.000 A 
ATOM      9  C   UNL     1       1.530   4.395  20.701  0.00  0.00    +0.000 A 
ATOM     10  C   UNL     1       1.019   3.105  20.549  0.00  0.00    +0.000 A 
ATOM     11  C   UNL     1       0.953   2.519  19.289  0.00  0.00    +0.000 A 
ATOM     12  C   UNL     1       1.388   3.232  18.175  0.00  0.00    +0.000 A 
ATOM     13  C   UNL     1       1.889   4.526  18.328  0.00  0.00    +0.000 A 
ENDBRANCH   7   8
ENDBRANCH   5   7
ENDBRANCH   1   5
BRANCH   2  14
ATOM     14  C   UNL     1       0.675  11.121  20.214  0.00  0.00    +0.000 C 
BRANCH  14  15
ATOM     15  N   UNL     1      -0.613  11.180  19.552  0.00  0.00    +0.000 N 
ATOM     16  N   UNL     1      -1.599  11.865  20.202  0.00  0.00    +0.000 NA
ATOM     17  N   UNL     1      -2.736  12.000  19.704  0.00  0.00    +0.000 NA
ATOM     18  C   UNL     1      -3.007  11.484  18.431  0.00  0.00    +0.000 A 
ATOM     19  C   UNL     1      -4.256  11.737  17.851  0.00  0.00    +0.000 A 
ATOM     20  C   UNL     1      -4.562  11.254  16.576  0.00  0.00    +0.000 A 
ATOM     21  C   UNL     1      -3.624  10.501  15.871  0.00  0.00    +0.000 A 
ATOM     22  C   UNL     1      -2.380  10.235  16.440  0.00  0.00    +0.000 A 
ATOM     23  C   UNL     1      -2.087  10.737  17.713  0.00  0.00    +0.000 A 
ATOM     24  C   UNL     1      -0.785  10.538  18.342  0.00  0.00    +0.000 A 
ATOM     25  O   UNL     1       0.083   9.859  17.799  0.00  0.00    +0.000 OA
ENDBRANCH  14  15
ENDBRANCH   2  14
TORSDOF 5
ENDMDL
MODEL 4
REMARK VINA RESULT:      -7.6      1.099      1.267
REMARK  Name = 
REMARK  6 active torsions:
REMARK  status: ('A' for Active; 'I' for Inactive)
REMARK    1  A    between atoms: C_1  and  C_2
REMARK    2  A    between atoms: C_2  and  C_3
REMARK    3  A    between atoms: C_2  and  C_19
REMARK    4  A    between atoms: C_3  and  N_4
REMARK    5  A    between atoms: C_5  and  C_7
REMARK    6  A    between atoms: C_7  and  N_8
REMARK                            x       y       z     vdW  Elec       q    Type
REMARK                         _______ _______ _______ _____ _____    ______ ____
ROOT
ATOM      1  N   UNL     1       3.969   5.975  18.600  0.00  0.00    +0.000 N 
ATOM      2  C   UNL     1       5.150   6.334  17.974  0.00  0.00    +0.000 C 
ATOM      3  O   UNL     1       5.387   7.480  17.600  0.00  0.00    +0.000 OA
ATOM      4  H   UNL     1       3.690   4.996  18.522  0.00  0.00    +0.000 HD
ENDROOT
BRANCH   1   5
ATOM      5  C   UNL     1       2.936   6.971  18.802  0.00  0.00    +0.000 C 
BRANCH   5   7
ATOM      6  C   UNL     1       1.577   7.405  20.883  0.00  0.00    +0.000 C 
ATOM      7  C   UNL     1       1.743   6.490  19.659  0.00  0.00    +0.000 C 
BRANCH   7   8
ATOM      8  C   UNL     1       1.801   4.996  19.970  0.00  0.00    +0.000 A 
ATOM      9  C   UNL     1       2.236   4.493  21.207  0.00  0.00    +0.000 A 
ATOM     10  C   UNL     1       2.246   3.121  21.464  0.00  0.00    +0.000 A 
ATOM     11  C   UNL     1       1.826   2.221  20.491  0.00  0.00    +0.000 A 
ATOM     12  C   UNL     1       1.381   2.697  19.260  0.00  0.00    +0.000 A 
ATOM     13  C   UNL     1       1.362   4.069  19.008  0.00  0.00    +0.000 A 
ENDBRANCH   7   8
ENDBRANCH   5   7
ENDBRANCH   1   5
BRANCH   2  14
ATOM     14  C   UNL     1       6.118   5.183  17.746  0.00  0.00    +0.000 C 
BRANCH  14  15
ATOM     15  N   UNL     1       6.380   5.029  16.329  0.00  0.00    +0.000 N 
ATOM     16  N   UNL     1       7.506   5.635  15.850  0.00  0.00    +0.000 NA
ATOM     17  N   UNL     1       7.838   5.539  14.650  0.00  0.00    +0.000 NA
ATOM     18  C   UNL     1       7.075   4.757  13.775  0.00  0.00    +0.000 A 
ATOM     19  C   UNL     1       7.524   4.581  12.460  0.00  0.00    +0.000 A 
ATOM     20  C   UNL     1       6.800   3.795  11.558  0.00  0.00    +0.000 A 
ATOM     21  C   UNL     1       5.611   3.187  11.959  0.00  0.00    +0.000 A 
ATOM     22  C   UNL     1       5.149   3.361  13.263  0.00  0.00    +0.000 A 
ATOM     23  C   UNL     1       5.893   4.141  14.155  0.00  0.00    +0.000 A 
ATOM     24  C   UNL     1       5.492   4.319  15.547  0.00  0.00    +0.000 A 
ATOM     25  O   UNL     1       4.441   3.842  15.968  0.00  0.00    +0.000 OA
ENDBRANCH  14  15
ENDBRANCH   2  14
TORSDOF 5
ENDMDL
MODEL 5
REMARK VINA RESULT:      -7.6      2.416      4.373
REMARK  Name = 
REMARK  6 active torsions:
REMARK  status: ('A' for Active; 'I' for Inactive)
REMARK    1  A    between atoms: C_1  and  C_2
REMARK    2  A    between atoms: C_2  and  C_3
REMARK    3  A    between atoms: C_2  and  C_19
REMARK    4  A    between atoms: C_3  and  N_4
REMARK    5  A    between atoms: C_5  and  C_7
REMARK    6  A    between atoms: C_7  and  N_8
REMARK                            x       y       z     vdW  Elec       q    Type
REMARK                         _______ _______ _______ _____ _____    ______ ____
ROOT
ATOM      1  N   UNL     1       2.830   5.726  20.087  0.00  0.00    +0.000 N 
ATOM      2  C   UNL     1       2.225   4.483  20.143  0.00  0.00    +0.000 C 
ATOM      3  O   UNL     1       1.050   4.325  20.467  0.00  0.00    +0.000 OA
ATOM      4  H   UNL     1       3.845   5.746  20.199  0.00  0.00    +0.000 HD
ENDROOT
BRANCH   1   5
ATOM      5  C   UNL     1       2.074   6.907  20.455  0.00  0.00    +0.000 C 
BRANCH   5   7
ATOM      6  C   UNL     1       2.695   7.726  18.151  0.00  0.00    +0.000 C 
ATOM      7  C   UNL     1       1.632   7.781  19.260  0.00  0.00    +0.000 C 
BRANCH   7   8
ATOM      8  C   UNL     1       1.206   9.186  19.678  0.00  0.00    +0.000 A 
ATOM      9  C   UNL     1       1.100  10.252  18.770  0.00  0.00    +0.000 A 
ATOM     10  C   UNL     1       0.678  11.515  19.186  0.00  0.00    +0.000 A 
ATOM     11  C   UNL     1       0.355  11.744  20.520  0.00  0.00    +0.000 A 
ATOM     12  C   UNL     1       0.442  10.700  21.437  0.00  0.00    +0.000 A 
ATOM     13  C   UNL     1       0.855   9.435  21.017  0.00  0.00    +0.000 A 
ENDBRANCH   7   8
ENDBRANCH   5   7
ENDBRANCH   1   5
BRANCH   2  14
ATOM     14  C   UNL     1       3.145   3.318  19.815  0.00  0.00    +0.000 C 
BRANCH  14  15
ATOM     15  N   UNL     1       4.183   3.749  18.898  0.00  0.00    +0.000 N 
ATOM     16  N   UNL     1       5.386   4.074  19.454  0.00  0.00    +0.000 NA
ATOM     17  N   UNL     1       6.355   4.429  18.750  0.00  0.00    +0.000 NA
ATOM     18  C   UNL     1       6.233   4.452  17.356  0.00  0.00    +0.000 A 
ATOM     19  C   UNL     1       7.362   4.753  16.584  0.00  0.00    +0.000 A 
ATOM     20  C   UNL     1       7.288   4.772  15.188  0.00  0.00    +0.000 A 
ATOM     21  C   UNL     1       6.078   4.502  14.549  0.00  0.00    +0.000 A 
ATOM     22  C   UNL     1       4.945   4.209  15.306  0.00  0.00    +0.000 A 
ATOM     23  C   UNL     1       5.041   4.182  16.702  0.00  0.00    +0.000 A 
ATOM     24  C   UNL     1       3.906   3.832  17.549  0.00  0.00    +0.000 A 
ATOM     25  O   UNL     1       2.799   3.611  17.063  0.00  0.00    +0.000 OA
ENDBRANCH  14  15
ENDBRANCH   2  14
TORSDOF 5
ENDMDL
MODEL 6
REMARK VINA RESULT:      -7.6      2.575      4.297
REMARK  Name = 
REMARK  6 active torsions:
REMARK  status: ('A' for Active; 'I' for Inactive)
REMARK    1  A    between atoms: C_1  and  C_2
REMARK    2  A    between atoms: C_2  and  C_3
REMARK    3  A    between atoms: C_2  and  C_19
REMARK    4  A    between atoms: C_3  and  N_4
REMARK    5  A    between atoms: C_5  and  C_7
REMARK    6  A    between atoms: C_7  and  N_8
REMARK                            x       y       z     vdW  Elec       q    Type
REMARK                         _______ _______ _______ _____ _____    ______ ____
ROOT
ATOM      1  N   UNL     1       2.687   5.250  20.447  0.00  0.00    +0.000 N 
ATOM      2  C   UNL     1       2.073   4.057  20.106  0.00  0.00    +0.000 C 
ATOM      3  O   UNL     1       0.857   3.889  20.169  0.00  0.00    +0.000 OA
ATOM      4  H   UNL     1       3.663   5.194  20.740  0.00  0.00    +0.000 HD
ENDROOT
BRANCH   1   5
ATOM      5  C   UNL     1       1.884   6.353  20.937  0.00  0.00    +0.000 C 
BRANCH   5   7
ATOM      6  C   UNL     1       2.608   7.520  18.821  0.00  0.00    +0.000 C 
ATOM      7  C   UNL     1       1.479   7.379  19.855  0.00  0.00    +0.000 C 
BRANCH   7   8
ATOM      8  C   UNL     1       0.971   8.693  20.443  0.00  0.00    +0.000 A 
ATOM      9  C   UNL     1       0.561   8.820  21.780  0.00  0.00    +0.000 A 
ATOM     10  C   UNL     1       0.131  10.046  22.289  0.00  0.00    +0.000 A 
ATOM     11  C   UNL     1       0.099  11.172  21.474  0.00  0.00    +0.000 A 
ATOM     12  C   UNL     1       0.511  11.074  20.148  0.00  0.00    +0.000 A 
ATOM     13  C   UNL     1       0.950   9.849  19.643  0.00  0.00    +0.000 A 
ENDBRANCH   7   8
ENDBRANCH   5   7
ENDBRANCH   1   5
BRANCH   2  14
ATOM     14  C   UNL     1       3.030   2.952  19.687  0.00  0.00    +0.000 C 
BRANCH  14  15
ATOM     15  N   UNL     1       4.075   3.496  18.842  0.00  0.00    +0.000 N 
ATOM     16  N   UNL     1       5.231   3.864  19.468  0.00  0.00    +0.000 NA
ATOM     17  N   UNL     1       6.204   4.316  18.828  0.00  0.00    +0.000 NA
ATOM     18  C   UNL     1       6.139   4.408  17.433  0.00  0.00    +0.000 A 
ATOM     19  C   UNL     1       7.278   4.820  16.730  0.00  0.00    +0.000 A 
ATOM     20  C   UNL     1       7.262   4.911  15.335  0.00  0.00    +0.000 A 
ATOM     21  C   UNL     1       6.100   4.602  14.628  0.00  0.00    +0.000 A 
ATOM     22  C   UNL     1       4.957   4.198  15.317  0.00  0.00    +0.000 A 
ATOM     23  C   UNL     1       4.996   4.101  16.712  0.00  0.00    +0.000 A 
ATOM     24  C   UNL     1       3.851   3.635  17.488  0.00  0.00    +0.000 A 
ATOM     25  O   UNL     1       2.781   3.374  16.941  0.00  0.00    +0.000 OA
ENDBRANCH  14  15
ENDBRANCH   2  14
TORSDOF 5
ENDMDL
MODEL 7
REMARK VINA RESULT:      -7.6      1.906      7.053
REMARK  Name = 
REMARK  6 active torsions:
REMARK  status: ('A' for Active; 'I' for Inactive)
REMARK    1  A    between atoms: C_1  and  C_2
REMARK    2  A    between atoms: C_2  and  C_3
REMARK    3  A    between atoms: C_2  and  C_19
REMARK    4  A    between atoms: C_3  and  N_4
REMARK    5  A    between atoms: C_5  and  C_7
REMARK    6  A    between atoms: C_7  and  N_8
REMARK                            x       y       z     vdW  Elec       q    Type
REMARK                         _______ _______ _______ _____ _____    ______ ____
ROOT
ATOM      1  N   UNL     1       5.892   5.077  16.198  0.00  0.00    +0.000 N 
ATOM      2  C   UNL     1       6.231   6.167  16.981  0.00  0.00    +0.000 C 
ATOM      3  O   UNL     1       6.386   7.297  16.523  0.00  0.00    +0.000 OA
ATOM      4  H   UNL     1       6.159   4.158  16.553  0.00  0.00    +0.000 HD
ENDROOT
BRANCH   1   5
ATOM      5  C   UNL     1       5.741   5.245  14.766  0.00  0.00    +0.000 C 
BRANCH   5   7
ATOM      6  C   UNL     1       7.877   5.337  13.426  0.00  0.00    +0.000 C 
ATOM      7  C   UNL     1       6.741   4.426  13.919  0.00  0.00    +0.000 C 
BRANCH   7   8
ATOM      8  C   UNL     1       6.059   3.598  12.832  0.00  0.00    +0.000 A 
ATOM      9  C   UNL     1       4.738   3.828  12.417  0.00  0.00    +0.000 A 
ATOM     10  C   UNL     1       4.159   3.068  11.399  0.00  0.00    +0.000 A 
ATOM     11  C   UNL     1       4.886   2.060  10.776  0.00  0.00    +0.000 A 
ATOM     12  C   UNL     1       6.202   1.819  11.164  0.00  0.00    +0.000 A 
ATOM     13  C   UNL     1       6.782   2.587  12.174  0.00  0.00    +0.000 A 
ENDBRANCH   7   8
ENDBRANCH   5   7
ENDBRANCH   1   5
BRANCH   2  14
ATOM     14  C   UNL     1       6.440   5.846  18.453  0.00  0.00    +0.000 C 
BRANCH  14  15
ATOM     15  N   UNL     1       5.363   5.003  18.934  0.00  0.00    +0.000 N 
ATOM     16  N   UNL     1       5.683   3.705  19.206  0.00  0.00    +0.000 NA
ATOM     17  N   UNL     1       4.836   2.904  19.653  0.00  0.00    +0.000 NA
ATOM     18  C   UNL     1       3.537   3.345  19.932  0.00  0.00    +0.000 A 
ATOM     19  C   UNL     1       2.634   2.456  20.529  0.00  0.00    +0.000 A 
ATOM     20  C   UNL     1       1.333   2.861  20.839  0.00  0.00    +0.000 A 
ATOM     21  C   UNL     1       0.915   4.158  20.542  0.00  0.00    +0.000 A 
ATOM     22  C   UNL     1       1.802   5.050  19.940  0.00  0.00    +0.000 A 
ATOM     23  C   UNL     1       3.104   4.631  19.649  0.00  0.00    +0.000 A 
ATOM     24  C   UNL     1       4.095   5.531  19.068  0.00  0.00    +0.000 A 
ATOM     25  O   UNL     1       3.796   6.680  18.749  0.00  0.00    +0.000 OA
ENDBRANCH  14  15
ENDBRANCH   2  14
TORSDOF 5
ENDMDL
MODEL 8
REMARK VINA RESULT:      -7.5      0.636      1.184
REMARK  Name = 
REMARK  6 active torsions:
REMARK  status: ('A' for Active; 'I' for Inactive)
REMARK    1  A    between atoms: C_1  and  C_2
REMARK    2  A    between atoms: C_2  and  C_3
REMARK    3  A    between atoms: C_2  and  C_19
REMARK    4  A    between atoms: C_3  and  N_4
REMARK    5  A    between atoms: C_5  and  C_7
REMARK    6  A    between atoms: C_7  and  N_8
REMARK                            x       y       z     vdW  Elec       q    Type
REMARK                         _______ _______ _______ _____ _____    ______ ____
ROOT
ATOM      1  N   UNL     1       4.339   5.852  17.679  0.00  0.00    +0.000 N 
ATOM      2  C   UNL     1       5.295   5.429  18.585  0.00  0.00    +0.000 C 
ATOM      3  O   UNL     1       5.427   5.927  19.701  0.00  0.00    +0.000 OA
ATOM      4  H   UNL     1       4.537   5.684  16.692  0.00  0.00    +0.000 HD
ENDROOT
BRANCH   1   5
ATOM      5  C   UNL     1       3.464   6.956  18.026  0.00  0.00    +0.000 C 
BRANCH   5   7
ATOM      6  C   UNL     1       2.020   7.352  20.056  0.00  0.00    +0.000 C 
ATOM      7  C   UNL     1       2.170   6.539  18.761  0.00  0.00    +0.000 C 
BRANCH   7   8
ATOM      8  C   UNL     1       2.044   5.026  18.927  0.00  0.00    +0.000 A 
ATOM      9  C   UNL     1       1.850   4.155  17.844  0.00  0.00    +0.000 A 
ATOM     10  C   UNL     1       1.770   2.774  18.034  0.00  0.00    +0.000 A 
ATOM     11  C   UNL     1       1.878   2.234  19.311  0.00  0.00    +0.000 A 
ATOM     12  C   UNL     1       2.080   3.077  20.400  0.00  0.00    +0.000 A 
ATOM     13  C   UNL     1       2.171   4.456  20.207  0.00  0.00    +0.000 A 
ENDBRANCH   7   8
ENDBRANCH   5   7
ENDBRANCH   1   5
BRANCH   2  14
ATOM     14  C   UNL     1       6.203   4.322  18.073  0.00  0.00    +0.000 C 
BRANCH  14  15
ATOM     15  N   UNL     1       6.486   4.524  16.665  0.00  0.00    +0.000 N 
ATOM     16  N   UNL     1       7.433   5.460  16.365  0.00  0.00    +0.000 NA
ATOM     17  N   UNL     1       7.771   5.691  15.185  0.00  0.00    +0.000 NA
ATOM     18  C   UNL     1       7.211   4.946  14.141  0.00  0.00    +0.000 A 
ATOM     19  C   UNL     1       7.681   5.151  12.837  0.00  0.00    +0.000 A 
ATOM     20  C   UNL     1       7.160   4.417  11.767  0.00  0.00    +0.000 A 
ATOM     21  C   UNL     1       6.151   3.479  11.988  0.00  0.00    +0.000 A 
ATOM     22  C   UNL     1       5.669   3.273  13.280  0.00  0.00    +0.000 A 
ATOM     23  C   UNL     1       6.211   4.007  14.340  0.00  0.00    +0.000 A 
ATOM     24  C   UNL     1       5.787   3.800  15.721  0.00  0.00    +0.000 A 
ATOM     25  O   UNL     1       4.882   3.015  15.994  0.00  0.00    +0.000 OA
ENDBRANCH  14  15
ENDBRANCH   2  14
TORSDOF 5
ENDMDL
MODEL 9
REMARK VINA RESULT:      -7.5      0.951      1.422
REMARK  Name = 
REMARK  6 active torsions:
REMARK  status: ('A' for Active; 'I' for Inactive)
REMARK    1  A    between atoms: C_1  and  C_2
REMARK    2  A    between atoms: C_2  and  C_3
REMARK    3  A    between atoms: C_2  and  C_19
REMARK    4  A    between atoms: C_3  and  N_4
REMARK    5  A    between atoms: C_5  and  C_7
REMARK    6  A    between atoms: C_7  and  N_8
REMARK                            x       y       z     vdW  Elec       q    Type
REMARK                         _______ _______ _______ _____ _____    ______ ____
ROOT
ATOM      1  N   UNL     1       5.213   5.646  18.562  0.00  0.00    +0.000 N 
ATOM      2  C   UNL     1       6.310   6.128  17.871  0.00  0.00    +0.000 C 
ATOM      3  O   UNL     1       6.485   7.323  17.641  0.00  0.00    +0.000 OA
ATOM      4  H   UNL     1       4.943   4.680  18.376  0.00  0.00    +0.000 HD
ENDROOT
BRANCH   1   5
ATOM      5  C   UNL     1       4.191   6.570  19.015  0.00  0.00    +0.000 C 
BRANCH   5   7
ATOM      6  C   UNL     1       2.011   7.695  18.426  0.00  0.00    +0.000 C 
ATOM      7  C   UNL     1       2.817   6.390  18.331  0.00  0.00    +0.000 C 
BRANCH   7   8
ATOM      8  C   UNL     1       2.080   5.138  18.802  0.00  0.00    +0.000 A 
ATOM      9  C   UNL     1       1.747   4.082  17.940  0.00  0.00    +0.000 A 
ATOM     10  C   UNL     1       1.100   2.940  18.414  0.00  0.00    +0.000 A 
ATOM     11  C   UNL     1       0.767   2.830  19.761  0.00  0.00    +0.000 A 
ATOM     12  C   UNL     1       1.097   3.860  20.637  0.00  0.00    +0.000 A 
ATOM     13  C   UNL     1       1.753   4.996  20.163  0.00  0.00    +0.000 A 
ENDBRANCH   7   8
ENDBRANCH   5   7
ENDBRANCH   1   5
BRANCH   2  14
ATOM     14  C   UNL     1       7.266   5.053  17.378  0.00  0.00    +0.000 C 
BRANCH  14  15
ATOM     15  N   UNL     1       7.157   4.915  15.939  0.00  0.00    +0.000 N 
ATOM     16  N   UNL     1       8.056   5.620  15.192  0.00  0.00    +0.000 NA
ATOM     17  N   UNL     1       8.067   5.547  13.945  0.00  0.00    +0.000 NA
ATOM     18  C   UNL     1       7.175   4.692  13.288  0.00  0.00    +0.000 A 
ATOM     19  C   UNL     1       7.274   4.550  11.898  0.00  0.00    +0.000 A 
ATOM     20  C   UNL     1       6.414   3.694  11.204  0.00  0.00    +0.000 A 
ATOM     21  C   UNL     1       5.434   2.979  11.894  0.00  0.00    +0.000 A 
ATOM     22  C   UNL     1       5.319   3.119  13.276  0.00  0.00    +0.000 A 
ATOM     23  C   UNL     1       6.197   3.970  13.955  0.00  0.00    +0.000 A 
ATOM     24  C   UNL     1       6.163   4.120  15.406  0.00  0.00    +0.000 A 
ATOM     25  O   UNL     1       5.309   3.549  16.081  0.00  0.00    +0.000 OA
ENDBRANCH  14  15
ENDBRANCH   2  14
TORSDOF 5
ENDMDL
