MODEL 1
REMARK VINA RESULT:      -7.7      0.000      0.000
REMARK  Name = 
REMARK  3 active torsions:
REMARK  status: ('A' for Active; 'I' for Inactive)
REMARK    1  A    between atoms: C_1  and  C_2
REMARK    2  A    between atoms: C_8  and  C_9
REMARK    3  A    between atoms: C_14  and  O_15
REMARK                            x       y       z     vdW  Elec       q    Type
REMARK                         _______ _______ _______ _____ _____    ______ ____
ROOT
ATOM      1  C   UNL     1       7.533   6.741  17.745  0.00  0.00    +0.000 C 
ATOM      2  C   UNL     1       6.866   5.753  16.839  0.00  0.00    +0.000 A 
ATOM      3  C   UNL     1       7.311   5.550  15.519  0.00  0.00    +0.000 A 
ATOM      4  C   UNL     1       6.693   4.632  14.661  0.00  0.00    +0.000 A 
ATOM      5  C   UNL     1       5.601   3.871  15.091  0.00  0.00    +0.000 A 
ATOM      6  C   UNL     1       5.140   4.046  16.403  0.00  0.00    +0.000 A 
ATOM      7  N   UNL     1       4.107   3.420  17.059  0.00  0.00    +0.000 NA
ATOM      8  C   UNL     1       4.080   3.938  18.274  0.00  0.00    +0.000 A 
ATOM      9  N   UNL     1       5.069   4.886  18.399  0.00  0.00    +0.000 N 
ATOM     10  C   UNL     1       5.769   4.969  17.226  0.00  0.00    +0.000 A 
ATOM     11  H   UNL     1       5.227   5.419  19.241  0.00  0.00    +0.000 HD
ENDROOT
BRANCH   8  12
ATOM     12  C   UNL     1       3.164   3.590  19.366  0.00  0.00    +0.000 A 
ATOM     13  C   UNL     1       1.867   4.128  19.361  0.00  0.00    +0.000 A 
ATOM     14  C   UNL     1       0.957   3.822  20.376  0.00  0.00    +0.000 A 
ATOM     15  C   UNL     1       1.332   2.974  21.415  0.00  0.00    +0.000 A 
ATOM     16  C   UNL     1       2.615   2.431  21.444  0.00  0.00    +0.000 A 
ATOM     17  C   UNL     1       3.524   2.740  20.427  0.00  0.00    +0.000 A 
BRANCH  17  18
ATOM     18  O   UNL     1       4.786   2.198  20.481  0.00  0.00    +0.000 OA
ATOM     19  H   UNL     1       4.884   1.582  19.733  0.00  0.00    +0.000 HD
ENDBRANCH  17  18
ENDBRANCH   8  12
TORSDOF 2
ENDMDL
MODEL 2
REMARK VINA RESULT:      -7.7      1.238      1.661
REMARK  Name = 
REMARK  3 active torsions:
REMARK  status: ('A' for Active; 'I' for Inactive)
REMARK    1  A    between atoms: C_1  and  C_2
REMARK    2  A    between atoms: C_8  and  C_9
REMARK    3  A    between atoms: C_14  and  O_15
REMARK                            x       y       z     vdW  Elec       q    Type
REMARK                         _______ _______ _______ _____ _____    ______ ____
ROOT
ATOM      1  C   UNL     1       7.621   6.480  18.038  0.00  0.00    +0.000 C 
ATOM      2  C   UNL     1       6.944   5.608  17.026  0.00  0.00    +0.000 A 
ATOM      3  C   UNL     1       7.444   5.476  15.717  0.00  0.00    +0.000 A 
ATOM      4  C   UNL     1       6.817   4.668  14.762  0.00  0.00    +0.000 A 
ATOM      5  C   UNL     1       5.661   3.949  15.077  0.00  0.00    +0.000 A 
ATOM      6  C   UNL     1       5.142   4.054  16.375  0.00  0.00    +0.000 A 
ATOM      7  N   UNL     1       4.040   3.449  16.930  0.00  0.00    +0.000 NA
ATOM      8  C   UNL     1       3.981   3.875  18.179  0.00  0.00    +0.000 A 
ATOM      9  N   UNL     1       5.017   4.745  18.425  0.00  0.00    +0.000 N 
ATOM     10  C   UNL     1       5.782   4.869  17.298  0.00  0.00    +0.000 A 
ATOM     11  H   UNL     1       5.163   5.201  19.314  0.00  0.00    +0.000 HD
ENDROOT
BRANCH   8  12
ATOM     12  C   UNL     1       2.988   3.505  19.195  0.00  0.00    +0.000 A 
ATOM     13  C   UNL     1       3.433   3.118  20.469  0.00  0.00    +0.000 A 
ATOM     14  C   UNL     1       2.527   2.761  21.471  0.00  0.00    +0.000 A 
ATOM     15  C   UNL     1       1.159   2.784  21.212  0.00  0.00    +0.000 A 
ATOM     16  C   UNL     1       0.693   3.161  19.954  0.00  0.00    +0.000 A 
ATOM     17  C   UNL     1       1.602   3.516  18.953  0.00  0.00    +0.000 A 
BRANCH  17  18
ATOM     18  O   UNL     1       1.119   3.878  17.718  0.00  0.00    +0.000 OA
ATOM     19  H   UNL     1       1.756   3.579  17.044  0.00  0.00    +0.000 HD
ENDBRANCH  17  18
ENDBRANCH   8  12
TORSDOF 2
ENDMDL
MODEL 3
REMARK VINA RESULT:      -7.4      1.013      1.030
REMARK  Name = 
REMARK  3 active torsions:
REMARK  status: ('A' for Active; 'I' for Inactive)
REMARK    1  A    between atoms: C_1  and  C_2
REMARK    2  A    between atoms: C_8  and  C_9
REMARK    3  A    between atoms: C_14  and  O_15
REMARK                            x       y       z     vdW  Elec       q    Type
REMARK                         _______ _______ _______ _____ _____    ______ ____
ROOT
ATOM      1  C   UNL     1       7.476   6.928  17.583  0.00  0.00    +0.000 C 
ATOM      2  C   UNL     1       6.881   5.896  16.676  0.00  0.00    +0.000 A 
ATOM      3  C   UNL     1       7.411   5.647  15.397  0.00  0.00    +0.000 A 
ATOM      4  C   UNL     1       6.860   4.689  14.539  0.00  0.00    +0.000 A 
ATOM      5  C   UNL     1       5.752   3.930  14.927  0.00  0.00    +0.000 A 
ATOM      6  C   UNL     1       5.205   4.149  16.199  0.00  0.00    +0.000 A 
ATOM      7  N   UNL     1       4.140   3.535  16.812  0.00  0.00    +0.000 NA
ATOM      8  C   UNL     1       4.029   4.100  18.001  0.00  0.00    +0.000 A 
ATOM      9  N   UNL     1       4.996   5.066  18.152  0.00  0.00    +0.000 N 
ATOM     10  C   UNL     1       5.770   5.112  17.024  0.00  0.00    +0.000 A 
ATOM     11  H   UNL     1       5.094   5.634  18.980  0.00  0.00    +0.000 HD
ENDROOT
BRANCH   8  12
ATOM     12  C   UNL     1       3.048   3.782  19.046  0.00  0.00    +0.000 A 
ATOM     13  C   UNL     1       2.656   4.792  19.939  0.00  0.00    +0.000 A 
ATOM     14  C   UNL     1       1.722   4.539  20.947  0.00  0.00    +0.000 A 
ATOM     15  C   UNL     1       1.167   3.268  21.079  0.00  0.00    +0.000 A 
ATOM     16  C   UNL     1       1.544   2.248  20.207  0.00  0.00    +0.000 A 
ATOM     17  C   UNL     1       2.479   2.505  19.200  0.00  0.00    +0.000 A 
BRANCH  17  18
ATOM     18  O   UNL     1       2.840   1.481  18.356  0.00  0.00    +0.000 OA
ATOM     19  H   UNL     1       2.446   1.654  17.483  0.00  0.00    +0.000 HD
ENDBRANCH  17  18
ENDBRANCH   8  12
TORSDOF 2
ENDMDL
MODEL 4
REMARK VINA RESULT:      -7.3      2.414      6.409
REMARK  Name = 
REMARK  3 active torsions:
REMARK  status: ('A' for Active; 'I' for Inactive)
REMARK    1  A    between atoms: C_1  and  C_2
REMARK    2  A    between atoms: C_8  and  C_9
REMARK    3  A    between atoms: C_14  and  O_15
REMARK                            x       y       z     vdW  Elec       q    Type
REMARK                         _______ _______ _______ _____ _____    ______ ____
ROOT
ATOM      1  C   UNL     1       3.433   1.474  18.615  0.00  0.00    +0.000 C 
ATOM      2  C   UNL     1       3.606   2.960  18.660  0.00  0.00    +0.000 A 
ATOM      3  C   UNL     1       3.152   3.721  19.753  0.00  0.00    +0.000 A 
ATOM      4  C   UNL     1       3.304   5.111  19.804  0.00  0.00    +0.000 A 
ATOM      5  C   UNL     1       3.926   5.804  18.761  0.00  0.00    +0.000 A 
ATOM      6  C   UNL     1       4.396   5.073  17.661  0.00  0.00    +0.000 A 
ATOM      7  N   UNL     1       5.043   5.511  16.530  0.00  0.00    +0.000 NA
ATOM      8  C   UNL     1       5.272   4.433  15.802  0.00  0.00    +0.000 A 
ATOM      9  N   UNL     1       4.777   3.322  16.443  0.00  0.00    +0.000 N 
ATOM     10  C   UNL     1       4.223   3.696  17.637  0.00  0.00    +0.000 A 
ATOM     11  H   UNL     1       4.832   2.388  16.064  0.00  0.00    +0.000 HD
ENDROOT
BRANCH   8  12
ATOM     12  C   UNL     1       5.953   4.370  14.503  0.00  0.00    +0.000 A 
ATOM     13  C   UNL     1       5.392   3.590  13.479  0.00  0.00    +0.000 A 
ATOM     14  C   UNL     1       6.000   3.501  12.225  0.00  0.00    +0.000 A 
ATOM     15  C   UNL     1       7.184   4.190  11.976  0.00  0.00    +0.000 A 
ATOM     16  C   UNL     1       7.764   4.968  12.977  0.00  0.00    +0.000 A 
ATOM     17  C   UNL     1       7.152   5.053  14.232  0.00  0.00    +0.000 A 
BRANCH  17  18
ATOM     18  O   UNL     1       7.746   5.821  15.206  0.00  0.00    +0.000 OA
ATOM     19  H   UNL     1       7.204   5.759  16.013  0.00  0.00    +0.000 HD
ENDBRANCH  17  18
ENDBRANCH   8  12
TORSDOF 2
ENDMDL
MODEL 5
REMARK VINA RESULT:      -7.3      1.544      5.778
REMARK  Name = 
REMARK  3 active torsions:
REMARK  status: ('A' for Active; 'I' for Inactive)
REMARK    1  A    between atoms: C_1  and  C_2
REMARK    2  A    between atoms: C_8  and  C_9
REMARK    3  A    between atoms: C_14  and  O_15
REMARK                            x       y       z     vdW  Elec       q    Type
REMARK                         _______ _______ _______ _____ _____    ______ ____
ROOT
ATOM      1  C   UNL     1       1.870   6.355  20.493  0.00  0.00    +0.000 C 
ATOM      2  C   UNL     1       1.877   4.904  20.123  0.00  0.00    +0.000 A 
ATOM      3  C   UNL     1       1.016   3.982  20.746  0.00  0.00    +0.000 A 
ATOM      4  C   UNL     1       1.017   2.623  20.412  0.00  0.00    +0.000 A 
ATOM      5  C   UNL     1       1.880   2.126  19.431  0.00  0.00    +0.000 A 
ATOM      6  C   UNL     1       2.745   3.021  18.787  0.00  0.00    +0.000 A 
ATOM      7  N   UNL     1       3.668   2.787  17.795  0.00  0.00    +0.000 NA
ATOM      8  C   UNL     1       4.225   3.956  17.534  0.00  0.00    +0.000 A 
ATOM      9  N   UNL     1       3.681   4.925  18.345  0.00  0.00    +0.000 N 
ATOM     10  C   UNL     1       2.726   4.361  19.146  0.00  0.00    +0.000 A 
ATOM     11  H   UNL     1       3.965   5.893  18.324  0.00  0.00    +0.000 HD
ENDROOT
BRANCH   8  12
ATOM     12  C   UNL     1       5.264   4.239  16.537  0.00  0.00    +0.000 A 
ATOM     13  C   UNL     1       4.901   4.321  15.183  0.00  0.00    +0.000 A 
ATOM     14  C   UNL     1       5.853   4.592  14.197  0.00  0.00    +0.000 A 
ATOM     15  C   UNL     1       7.186   4.783  14.551  0.00  0.00    +0.000 A 
ATOM     16  C   UNL     1       7.572   4.703  15.888  0.00  0.00    +0.000 A 
ATOM     17  C   UNL     1       6.617   4.430  16.872  0.00  0.00    +0.000 A 
BRANCH  17  18
ATOM     18  O   UNL     1       7.023   4.349  18.183  0.00  0.00    +0.000 OA
ATOM     19  H   UNL     1       7.975   4.148  18.194  0.00  0.00    +0.000 HD
ENDBRANCH  17  18
ENDBRANCH   8  12
TORSDOF 2
ENDMDL
MODEL 6
REMARK VINA RESULT:      -7.2      1.234      1.391
REMARK  Name = 
REMARK  3 active torsions:
REMARK  status: ('A' for Active; 'I' for Inactive)
REMARK    1  A    between atoms: C_1  and  C_2
REMARK    2  A    between atoms: C_8  and  C_9
REMARK    3  A    between atoms: C_14  and  O_15
REMARK                            x       y       z     vdW  Elec       q    Type
REMARK                         _______ _______ _______ _____ _____    ______ ____
ROOT
ATOM      1  C   UNL     1       7.455   6.980  17.516  0.00  0.00    +0.000 C 
ATOM      2  C   UNL     1       6.872   5.911  16.645  0.00  0.00    +0.000 A 
ATOM      3  C   UNL     1       7.404   5.627  15.373  0.00  0.00    +0.000 A 
ATOM      4  C   UNL     1       6.864   4.633  14.549  0.00  0.00    +0.000 A 
ATOM      5  C   UNL     1       5.768   3.872  14.965  0.00  0.00    +0.000 A 
ATOM      6  C   UNL     1       5.221   4.126  16.231  0.00  0.00    +0.000 A 
ATOM      7  N   UNL     1       4.165   3.517  16.866  0.00  0.00    +0.000 NA
ATOM      8  C   UNL     1       4.049   4.120  18.036  0.00  0.00    +0.000 A 
ATOM      9  N   UNL     1       5.003   5.103  18.152  0.00  0.00    +0.000 N 
ATOM     10  C   UNL     1       5.773   5.123  17.022  0.00  0.00    +0.000 A 
ATOM     11  H   UNL     1       5.094   5.699  18.962  0.00  0.00    +0.000 HD
ENDROOT
BRANCH   8  12
ATOM     12  C   UNL     1       3.074   3.822  19.093  0.00  0.00    +0.000 A 
ATOM     13  C   UNL     1       2.450   2.565  19.105  0.00  0.00    +0.000 A 
ATOM     14  C   UNL     1       1.518   2.233  20.093  0.00  0.00    +0.000 A 
ATOM     15  C   UNL     1       1.195   3.157  21.084  0.00  0.00    +0.000 A 
ATOM     16  C   UNL     1       1.799   4.413  21.090  0.00  0.00    +0.000 A 
ATOM     17  C   UNL     1       2.730   4.742  20.100  0.00  0.00    +0.000 A 
BRANCH  17  18
ATOM     18  O   UNL     1       3.307   5.990  20.122  0.00  0.00    +0.000 OA
ATOM     19  H   UNL     1       2.740   6.596  19.614  0.00  0.00    +0.000 HD
ENDBRANCH  17  18
ENDBRANCH   8  12
TORSDOF 2
ENDMDL
MODEL 7
REMARK VINA RESULT:      -7.1      2.428      6.190
REMARK  Name = 
REMARK  3 active torsions:
REMARK  status: ('A' for Active; 'I' for Inactive)
REMARK    1  A    between atoms: C_1  and  C_2
REMARK    2  A    between atoms: C_8  and  C_9
REMARK    3  A    between atoms: C_14  and  O_15
REMARK                            x       y       z     vdW  Elec       q    Type
REMARK                         _______ _______ _______ _____ _____    ______ ____
ROOT
ATOM      1  C   UNL     1       2.819   7.563  18.086  0.00  0.00    +0.000 C 
ATOM      2  C   UNL     1       3.082   6.110  18.332  0.00  0.00    +0.000 A 
ATOM      3  C   UNL     1       2.556   5.447  19.457  0.00  0.00    +0.000 A 
ATOM      4  C   UNL     1       2.798   4.090  19.699  0.00  0.00    +0.000 A 
ATOM      5  C   UNL     1       3.577   3.332  18.820  0.00  0.00    +0.000 A 
ATOM      6  C   UNL     1       4.109   3.962  17.686  0.00  0.00    +0.000 A 
ATOM      7  N   UNL     1       4.886   3.442  16.679  0.00  0.00    +0.000 NA
ATOM      8  C   UNL     1       5.125   4.442  15.850  0.00  0.00    +0.000 A 
ATOM      9  N   UNL     1       4.523   5.588  16.315  0.00  0.00    +0.000 N 
ATOM     10  C   UNL     1       3.857   5.311  17.478  0.00  0.00    +0.000 A 
ATOM     11  H   UNL     1       4.580   6.479  15.844  0.00  0.00    +0.000 HD
ENDROOT
BRANCH   8  12
ATOM     12  C   UNL     1       5.900   4.395  14.604  0.00  0.00    +0.000 A 
ATOM     13  C   UNL     1       5.429   3.608  13.541  0.00  0.00    +0.000 A 
ATOM     14  C   UNL     1       6.129   3.534  12.334  0.00  0.00    +0.000 A 
ATOM     15  C   UNL     1       7.315   4.246  12.173  0.00  0.00    +0.000 A 
ATOM     16  C   UNL     1       7.805   5.031  13.216  0.00  0.00    +0.000 A 
ATOM     17  C   UNL     1       7.102   5.102  14.422  0.00  0.00    +0.000 A 
BRANCH  17  18
ATOM     18  O   UNL     1       7.609   5.877  15.438  0.00  0.00    +0.000 OA
ATOM     19  H   UNL     1       8.147   6.585  15.041  0.00  0.00    +0.000 HD
ENDBRANCH  17  18
ENDBRANCH   8  12
TORSDOF 2
ENDMDL
MODEL 8
REMARK VINA RESULT:      -7.1      2.345      5.847
REMARK  Name = 
REMARK  3 active torsions:
REMARK  status: ('A' for Active; 'I' for Inactive)
REMARK    1  A    between atoms: C_1  and  C_2
REMARK    2  A    between atoms: C_8  and  C_9
REMARK    3  A    between atoms: C_14  and  O_15
REMARK                            x       y       z     vdW  Elec       q    Type
REMARK                         _______ _______ _______ _____ _____    ______ ____
ROOT
ATOM      1  C   UNL     1       2.188   3.315  22.006  0.00  0.00    +0.000 C 
ATOM      2  C   UNL     1       2.026   3.189  20.523  0.00  0.00    +0.000 A 
ATOM      3  C   UNL     1       0.960   2.464  19.958  0.00  0.00    +0.000 A 
ATOM      4  C   UNL     1       0.801   2.336  18.574  0.00  0.00    +0.000 A 
ATOM      5  C   UNL     1       1.703   2.935  17.689  0.00  0.00    +0.000 A 
ATOM      6  C   UNL     1       2.771   3.670  18.221  0.00  0.00    +0.000 A 
ATOM      7  N   UNL     1       3.772   4.354  17.573  0.00  0.00    +0.000 NA
ATOM      8  C   UNL     1       4.529   4.876  18.521  0.00  0.00    +0.000 A 
ATOM      9  N   UNL     1       4.034   4.531  19.757  0.00  0.00    +0.000 N 
ATOM     10  C   UNL     1       2.906   3.772  19.598  0.00  0.00    +0.000 A 
ATOM     11  H   UNL     1       4.460   4.813  20.628  0.00  0.00    +0.000 HD
ENDROOT
BRANCH   8  12
ATOM     12  C   UNL     1       5.723   5.711  18.343  0.00  0.00    +0.000 A 
ATOM     13  C   UNL     1       6.821   5.516  19.197  0.00  0.00    +0.000 A 
ATOM     14  C   UNL     1       7.981   6.284  19.064  0.00  0.00    +0.000 A 
ATOM     15  C   UNL     1       8.060   7.261  18.075  0.00  0.00    +0.000 A 
ATOM     16  C   UNL     1       6.981   7.475  17.218  0.00  0.00    +0.000 A 
ATOM     17  C   UNL     1       5.822   6.707  17.355  0.00  0.00    +0.000 A 
BRANCH  17  18
ATOM     18  O   UNL     1       4.768   6.941  16.503  0.00  0.00    +0.000 OA
ATOM     19  H   UNL     1       4.782   7.883  16.255  0.00  0.00    +0.000 HD
ENDBRANCH  17  18
ENDBRANCH   8  12
TORSDOF 2
ENDMDL
MODEL 9
REMARK VINA RESULT:      -7.1      1.989      5.592
REMARK  Name = 
REMARK  3 active torsions:
REMARK  status: ('A' for Active; 'I' for Inactive)
REMARK    1  A    between atoms: C_1  and  C_2
REMARK    2  A    between atoms: C_8  and  C_9
REMARK    3  A    between atoms: C_14  and  O_15
REMARK                            x       y       z     vdW  Elec       q    Type
REMARK                         _______ _______ _______ _____ _____    ______ ____
ROOT
ATOM      1  C   UNL     1       2.217   3.743  21.819  0.00  0.00    +0.000 C 
ATOM      2  C   UNL     1       2.263   3.343  20.378  0.00  0.00    +0.000 A 
ATOM      3  C   UNL     1       1.362   2.401  19.847  0.00  0.00    +0.000 A 
ATOM      4  C   UNL     1       1.398   2.015  18.503  0.00  0.00    +0.000 A 
ATOM      5  C   UNL     1       2.339   2.561  17.624  0.00  0.00    +0.000 A 
ATOM      6  C   UNL     1       3.246   3.507  18.121  0.00  0.00    +0.000 A 
ATOM      7  N   UNL     1       4.245   4.189  17.469  0.00  0.00    +0.000 NA
ATOM      8  C   UNL     1       4.813   4.960  18.379  0.00  0.00    +0.000 A 
ATOM      9  N   UNL     1       4.201   4.775  19.596  0.00  0.00    +0.000 N 
ATOM     10  C   UNL     1       3.190   3.863  19.461  0.00  0.00    +0.000 A 
ATOM     11  H   UNL     1       4.478   5.256  20.439  0.00  0.00    +0.000 HD
ENDROOT
BRANCH   8  12
ATOM     12  C   UNL     1       5.925   5.897  18.177  0.00  0.00    +0.000 A 
ATOM     13  C   UNL     1       5.865   6.801  17.105  0.00  0.00    +0.000 A 
ATOM     14  C   UNL     1       6.897   7.714  16.874  0.00  0.00    +0.000 A 
ATOM     15  C   UNL     1       8.008   7.735  17.713  0.00  0.00    +0.000 A 
ATOM     16  C   UNL     1       8.093   6.845  18.782  0.00  0.00    +0.000 A 
ATOM     17  C   UNL     1       7.059   5.932  19.009  0.00  0.00    +0.000 A 
BRANCH  17  18
ATOM     18  O   UNL     1       7.168   5.058  20.066  0.00  0.00    +0.000 OA
ATOM     19  H   UNL     1       7.580   4.238  19.740  0.00  0.00    +0.000 HD
ENDBRANCH  17  18
ENDBRANCH   8  12
TORSDOF 2
ENDMDL
