MODEL 1
REMARK VINA RESULT:      -6.5      0.000      0.000
REMARK  Name = 
REMARK  12 active torsions:
REMARK  status: ('A' for Active; 'I' for Inactive)
REMARK    1  A    between atoms: C_1  and  C_2
REMARK    2  A    between atoms: C_5  and  S_6
REMARK    3  A    between atoms: S_6  and  N_9
REMARK    4  A    between atoms: C_18  and  C_19
REMARK    5  A    between atoms: C_19  and  C_20
REMARK    6  A    between atoms: N_22  and  C_23
REMARK    7  A    between atoms: C_23  and  C_24
REMARK    8  A    between atoms: C_24  and  C_25
REMARK    9  A    between atoms: C_25  and  C_26
REMARK   10  A    between atoms: C_26  and  C_27
REMARK   11  A    between atoms: C_27  and  C_28
REMARK   12  A    between atoms: C_28  and  N_29
REMARK                            x       y       z     vdW  Elec       q    Type
REMARK                         _______ _______ _______ _____ _____    ______ ____
ROOT
ATOM      1  N   UNL     1       1.900   7.992  19.975  0.00  0.00    +0.000 NA
ATOM      2  C   UNL     1       1.626   8.603  18.634  0.00  0.00    +0.000 C 
ATOM      3  C   UNL     1       2.488   8.067  17.463  0.00  0.00    +0.000 C 
ATOM      4  C   UNL     1       3.551   7.060  17.817  0.00  0.00    +0.000 A 
ATOM      5  C   UNL     1       4.598   6.760  16.938  0.00  0.00    +0.000 A 
ATOM      6  C   UNL     1       5.647   5.937  17.350  0.00  0.00    +0.000 A 
ATOM      7  C   UNL     1       5.696   5.479  18.662  0.00  0.00    +0.000 A 
ATOM      8  C   UNL     1       4.631   5.737  19.520  0.00  0.00    +0.000 A 
ATOM      9  C   UNL     1       3.497   6.426  19.064  0.00  0.00    +0.000 A 
ATOM     10  C   UNL     1       2.171   6.528  19.815  0.00  0.00    +0.000 C 
ENDROOT
BRANCH   1  11
ATOM     11  S   UNL     1       0.973   8.651  21.229  0.00  0.00    +0.000 S 
ATOM     12  O   UNL     1       1.855   8.922  22.337  0.00  0.00    +0.000 OA
ATOM     13  O   UNL     1      -0.213   7.830  21.452  0.00  0.00    +0.000 OA
BRANCH  11  18
ATOM     14  C   UNL     1      -0.296  13.779  18.289  0.00  0.00    +0.000 C 
ATOM     15  C   UNL     1      -0.101  12.580  19.172  0.00  0.00    +0.000 A 
ATOM     16  C   UNL     1       0.940  12.535  20.100  0.00  0.00    +0.000 A 
ATOM     17  C   UNL     1       1.204  11.355  20.809  0.00  0.00    +0.000 A 
ATOM     18  C   UNL     1       0.398  10.236  20.633  0.00  0.00    +0.000 A 
ATOM     19  C   UNL     1      -0.727  10.308  19.801  0.00  0.00    +0.000 A 
ATOM     20  C   UNL     1      -0.937  11.463  19.034  0.00  0.00    +0.000 A 
ENDBRANCH  11  18
ENDBRANCH   1  11
BRANCH  10  21
ATOM     21  C   UNL     1       2.114   5.664  21.068  0.00  0.00    +0.000 C 
BRANCH  21  22
ATOM     22  C   UNL     1       1.567   4.273  20.843  0.00  0.00    +0.000 C 
ATOM     23  O   UNL     1       1.588   3.363  21.671  0.00  0.00    +0.000 OA
ATOM     24  N   UNL     1       1.022   4.149  19.589  0.00  0.00    +0.000 N 
ATOM     25  H   UNL     1       1.134   4.901  18.918  0.00  0.00    +0.000 HD
BRANCH  24  26
ATOM     26  C   UNL     1       0.426   2.913  19.146  0.00  0.00    +0.000 C 
BRANCH  26  27
ATOM     27  C   UNL     1       1.368   2.119  18.246  0.00  0.00    +0.000 C 
BRANCH  27  28
ATOM     28  C   UNL     1       2.336   3.083  17.568  0.00  0.00    +0.000 C 
BRANCH  28  29
ATOM     29  C   UNL     1       3.792   2.679  17.767  0.00  0.00    +0.000 C 
BRANCH  29  30
ATOM     30  C   UNL     1       3.901   1.634  18.878  0.00  0.00    +0.000 C 
BRANCH  30  31
ATOM     31  C   UNL     1       4.730   2.157  20.045  0.00  0.00    +0.000 C 
BRANCH  31  32
ATOM     32  N   UNL     1       4.041   1.897  21.302  0.00  0.00    +0.000 NA
ATOM     33  H   UNL     1       3.462   1.062  21.211  0.00  0.00    +0.000 HD
ATOM     34  H   UNL     1       3.405   2.666  21.505  0.00  0.00    +0.000 HD
ENDBRANCH  31  32
ENDBRANCH  30  31
ENDBRANCH  29  30
ENDBRANCH  28  29
ENDBRANCH  27  28
ENDBRANCH  26  27
ENDBRANCH  24  26
ENDBRANCH  21  22
ENDBRANCH  10  21
TORSDOF 11
ENDMDL
MODEL 2
REMARK VINA RESULT:      -6.4      3.552      8.167
REMARK  Name = 
REMARK  12 active torsions:
REMARK  status: ('A' for Active; 'I' for Inactive)
REMARK    1  A    between atoms: C_1  and  C_2
REMARK    2  A    between atoms: C_5  and  S_6
REMARK    3  A    between atoms: S_6  and  N_9
REMARK    4  A    between atoms: C_18  and  C_19
REMARK    5  A    between atoms: C_19  and  C_20
REMARK    6  A    between atoms: N_22  and  C_23
REMARK    7  A    between atoms: C_23  and  C_24
REMARK    8  A    between atoms: C_24  and  C_25
REMARK    9  A    between atoms: C_25  and  C_26
REMARK   10  A    between atoms: C_26  and  C_27
REMARK   11  A    between atoms: C_27  and  C_28
REMARK   12  A    between atoms: C_28  and  N_29
REMARK                            x       y       z     vdW  Elec       q    Type
REMARK                         _______ _______ _______ _____ _____    ______ ____
ROOT
ATOM      1  N   UNL     1       3.881   5.084  17.741  0.00  0.00    +0.000 NA
ATOM      2  C   UNL     1       3.363   3.972  16.881  0.00  0.00    +0.000 C 
ATOM      3  C   UNL     1       2.352   3.012  17.560  0.00  0.00    +0.000 C 
ATOM      4  C   UNL     1       2.069   3.257  19.019  0.00  0.00    +0.000 A 
ATOM      5  C   UNL     1       1.459   2.286  19.820  0.00  0.00    +0.000 A 
ATOM      6  C   UNL     1       1.344   2.481  21.197  0.00  0.00    +0.000 A 
ATOM      7  C   UNL     1       1.910   3.606  21.788  0.00  0.00    +0.000 A 
ATOM      8  C   UNL     1       2.473   4.593  20.986  0.00  0.00    +0.000 A 
ATOM      9  C   UNL     1       2.446   4.481  19.588  0.00  0.00    +0.000 A 
ATOM     10  C   UNL     1       2.777   5.605  18.609  0.00  0.00    +0.000 C 
ENDROOT
BRANCH   1  11
ATOM     11  S   UNL     1       5.023   6.068  16.972  0.00  0.00    +0.000 S 
ATOM     12  O   UNL     1       6.102   6.303  17.899  0.00  0.00    +0.000 OA
ATOM     13  O   UNL     1       4.357   7.212  16.356  0.00  0.00    +0.000 OA
BRANCH  11  18
ATOM     14  C   UNL     1       7.131   3.711  11.820  0.00  0.00    +0.000 C 
ATOM     15  C   UNL     1       6.642   4.109  13.183  0.00  0.00    +0.000 A 
ATOM     16  C   UNL     1       5.301   3.950  13.537  0.00  0.00    +0.000 A 
ATOM     17  C   UNL     1       4.827   4.463  14.753  0.00  0.00    +0.000 A 
ATOM     18  C   UNL     1       5.698   5.087  15.638  0.00  0.00    +0.000 A 
ATOM     19  C   UNL     1       7.069   5.139  15.352  0.00  0.00    +0.000 A 
ATOM     20  C   UNL     1       7.522   4.697  14.100  0.00  0.00    +0.000 A 
ENDBRANCH  11  18
ENDBRANCH   1  11
BRANCH  10  21
ATOM     21  C   UNL     1       2.993   6.953  19.283  0.00  0.00    +0.000 C 
BRANCH  21  22
ATOM     22  C   UNL     1       2.122   8.067  18.746  0.00  0.00    +0.000 C 
ATOM     23  O   UNL     1       1.735   8.163  17.583  0.00  0.00    +0.000 OA
ATOM     24  N   UNL     1       1.797   8.964  19.734  0.00  0.00    +0.000 N 
ATOM     25  H   UNL     1       2.236   8.887  20.645  0.00  0.00    +0.000 HD
BRANCH  24  26
ATOM     26  C   UNL     1       0.963  10.110  19.465  0.00  0.00    +0.000 C 
BRANCH  26  27
ATOM     27  C   UNL     1      -0.477   9.882  19.913  0.00  0.00    +0.000 C 
BRANCH  27  28
ATOM     28  C   UNL     1      -1.417  10.560  18.921  0.00  0.00    +0.000 C 
BRANCH  28  29
ATOM     29  C   UNL     1      -1.340   9.940  17.531  0.00  0.00    +0.000 C 
BRANCH  29  30
ATOM     30  C   UNL     1      -2.732   9.892  16.899  0.00  0.00    +0.000 C 
BRANCH  30  31
ATOM     31  C   UNL     1      -2.709  10.440  15.478  0.00  0.00    +0.000 C 
BRANCH  31  32
ATOM     32  N   UNL     1      -3.551  11.627  15.387  0.00  0.00    +0.000 NA
ATOM     33  H   UNL     1      -4.485  11.362  15.078  0.00  0.00    +0.000 HD
ATOM     34  H   UNL     1      -3.179  12.251  14.673  0.00  0.00    +0.000 HD
ENDBRANCH  31  32
ENDBRANCH  30  31
ENDBRANCH  29  30
ENDBRANCH  28  29
ENDBRANCH  27  28
ENDBRANCH  26  27
ENDBRANCH  24  26
ENDBRANCH  21  22
ENDBRANCH  10  21
TORSDOF 11
ENDMDL
MODEL 3
REMARK VINA RESULT:      -6.3      3.489      7.909
REMARK  Name = 
REMARK  12 active torsions:
REMARK  status: ('A' for Active; 'I' for Inactive)
REMARK    1  A    between atoms: C_1  and  C_2
REMARK    2  A    between atoms: C_5  and  S_6
REMARK    3  A    between atoms: S_6  and  N_9
REMARK    4  A    between atoms: C_18  and  C_19
REMARK    5  A    between atoms: C_19  and  C_20
REMARK    6  A    between atoms: N_22  and  C_23
REMARK    7  A    between atoms: C_23  and  C_24
REMARK    8  A    between atoms: C_24  and  C_25
REMARK    9  A    between atoms: C_25  and  C_26
REMARK   10  A    between atoms: C_26  and  C_27
REMARK   11  A    between atoms: C_27  and  C_28
REMARK   12  A    between atoms: C_28  and  N_29
REMARK                            x       y       z     vdW  Elec       q    Type
REMARK                         _______ _______ _______ _____ _____    ______ ____
ROOT
ATOM      1  N   UNL     1       4.916   4.368  18.120  0.00  0.00    +0.000 NA
ATOM      2  C   UNL     1       4.612   3.090  17.401  0.00  0.00    +0.000 C 
ATOM      3  C   UNL     1       3.353   2.328  17.887  0.00  0.00    +0.000 C 
ATOM      4  C   UNL     1       2.628   2.914  19.071  0.00  0.00    +0.000 A 
ATOM      5  C   UNL     1       1.703   2.165  19.808  0.00  0.00    +0.000 A 
ATOM      6  C   UNL     1       1.160   2.682  20.985  0.00  0.00    +0.000 A 
ATOM      7  C   UNL     1       1.598   3.909  21.471  0.00  0.00    +0.000 A 
ATOM      8  C   UNL     1       2.480   4.673  20.714  0.00  0.00    +0.000 A 
ATOM      9  C   UNL     1       2.905   4.233  19.451  0.00  0.00    +0.000 A 
ATOM     10  C   UNL     1       3.640   5.091  18.424  0.00  0.00    +0.000 C 
ENDROOT
BRANCH   1  11
ATOM     11  S   UNL     1       6.331   5.131  17.591  0.00  0.00    +0.000 S 
ATOM     12  O   UNL     1       7.454   4.361  18.066  0.00  0.00    +0.000 OA
ATOM     13  O   UNL     1       6.269   6.557  17.897  0.00  0.00    +0.000 OA
BRANCH  11  18
ATOM     14  C   UNL     1       6.631   3.532  11.768  0.00  0.00    +0.000 C 
ATOM     15  C   UNL     1       6.513   4.121  13.145  0.00  0.00    +0.000 A 
ATOM     16  C   UNL     1       7.623   4.675  13.785  0.00  0.00    +0.000 A 
ATOM     17  C   UNL     1       7.535   5.082  15.124  0.00  0.00    +0.000 A 
ATOM     18  C   UNL     1       6.329   4.987  15.809  0.00  0.00    +0.000 A 
ATOM     19  C   UNL     1       5.177   4.552  15.140  0.00  0.00    +0.000 A 
ATOM     20  C   UNL     1       5.290   4.070  13.828  0.00  0.00    +0.000 A 
ENDBRANCH  11  18
ENDBRANCH   1  11
BRANCH  10  21
ATOM     21  C   UNL     1       3.741   6.558  18.818  0.00  0.00    +0.000 C 
BRANCH  21  22
ATOM     22  C   UNL     1       3.105   7.515  17.835  0.00  0.00    +0.000 C 
ATOM     23  O   UNL     1       3.397   7.602  16.644  0.00  0.00    +0.000 OA
ATOM     24  N   UNL     1       2.136   8.278  18.440  0.00  0.00    +0.000 N 
ATOM     25  H   UNL     1       2.020   8.233  19.446  0.00  0.00    +0.000 HD
BRANCH  24  26
ATOM     26  C   UNL     1       1.380   9.258  17.701  0.00  0.00    +0.000 C 
BRANCH  26  27
ATOM     27  C   UNL     1       0.741  10.294  18.621  0.00  0.00    +0.000 C 
BRANCH  27  28
ATOM     28  C   UNL     1       0.951   9.867  20.069  0.00  0.00    +0.000 C 
BRANCH  28  29
ATOM     29  C   UNL     1      -0.360   9.757  20.839  0.00  0.00    +0.000 C 
BRANCH  29  30
ATOM     30  C   UNL     1      -0.207   8.771  21.998  0.00  0.00    +0.000 C 
BRANCH  30  31
ATOM     31  C   UNL     1      -0.132   9.501  23.334  0.00  0.00    +0.000 C 
BRANCH  31  32
ATOM     32  N   UNL     1      -0.495  10.901  23.158  0.00  0.00    +0.000 NA
ATOM     33  H   UNL     1      -0.093  11.254  22.291  0.00  0.00    +0.000 HD
ATOM     34  H   UNL     1      -0.086  11.453  23.910  0.00  0.00    +0.000 HD
ENDBRANCH  31  32
ENDBRANCH  30  31
ENDBRANCH  29  30
ENDBRANCH  28  29
ENDBRANCH  27  28
ENDBRANCH  26  27
ENDBRANCH  24  26
ENDBRANCH  21  22
ENDBRANCH  10  21
TORSDOF 11
ENDMDL
MODEL 4
REMARK VINA RESULT:      -6.2      1.083      1.789
REMARK  Name = 
REMARK  12 active torsions:
REMARK  status: ('A' for Active; 'I' for Inactive)
REMARK    1  A    between atoms: C_1  and  C_2
REMARK    2  A    between atoms: C_5  and  S_6
REMARK    3  A    between atoms: S_6  and  N_9
REMARK    4  A    between atoms: C_18  and  C_19
REMARK    5  A    between atoms: C_19  and  C_20
REMARK    6  A    between atoms: N_22  and  C_23
REMARK    7  A    between atoms: C_23  and  C_24
REMARK    8  A    between atoms: C_24  and  C_25
REMARK    9  A    between atoms: C_25  and  C_26
REMARK   10  A    between atoms: C_26  and  C_27
REMARK   11  A    between atoms: C_27  and  C_28
REMARK   12  A    between atoms: C_28  and  N_29
REMARK                            x       y       z     vdW  Elec       q    Type
REMARK                         _______ _______ _______ _____ _____    ______ ____
ROOT
ATOM      1  N   UNL     1       1.631   8.453  20.112  0.00  0.00    +0.000 NA
ATOM      2  C   UNL     1       1.409   9.118  18.788  0.00  0.00    +0.000 C 
ATOM      3  C   UNL     1       2.214   8.535  17.599  0.00  0.00    +0.000 C 
ATOM      4  C   UNL     1       3.182   7.427  17.922  0.00  0.00    +0.000 A 
ATOM      5  C   UNL     1       4.194   7.055  17.030  0.00  0.00    +0.000 A 
ATOM      6  C   UNL     1       5.166   6.130  17.416  0.00  0.00    +0.000 A 
ATOM      7  C   UNL     1       5.178   5.638  18.716  0.00  0.00    +0.000 A 
ATOM      8  C   UNL     1       4.144   5.971  19.586  0.00  0.00    +0.000 A 
ATOM      9  C   UNL     1       3.075   6.770  19.154  0.00  0.00    +0.000 A 
ATOM     10  C   UNL     1       1.767   6.974  19.916  0.00  0.00    +0.000 C 
ENDROOT
BRANCH   1  11
ATOM     11  S   UNL     1       0.773   9.162  21.387  0.00  0.00    +0.000 S 
ATOM     12  O   UNL     1       1.687   9.349  22.486  0.00  0.00    +0.000 OA
ATOM     13  O   UNL     1      -0.470   8.431  21.615  0.00  0.00    +0.000 OA
BRANCH  11  18
ATOM     14  C   UNL     1      -0.223  14.375  18.491  0.00  0.00    +0.000 C 
ATOM     15  C   UNL     1      -0.073  13.168  19.372  0.00  0.00    +0.000 A 
ATOM     16  C   UNL     1       1.040  13.020  20.201  0.00  0.00    +0.000 A 
ATOM     17  C   UNL     1       1.244  11.823  20.903  0.00  0.00    +0.000 A 
ATOM     18  C   UNL     1       0.313  10.795  20.821  0.00  0.00    +0.000 A 
ATOM     19  C   UNL     1      -0.871  10.979  20.094  0.00  0.00    +0.000 A 
ATOM     20  C   UNL     1      -1.030  12.145  19.331  0.00  0.00    +0.000 A 
ENDBRANCH  11  18
ENDBRANCH   1  11
BRANCH  10  21
ATOM     21  C   UNL     1       1.637   6.089  21.148  0.00  0.00    +0.000 C 
BRANCH  21  22
ATOM     22  C   UNL     1       1.538   4.610  20.847  0.00  0.00    +0.000 C 
ATOM     23  O   UNL     1       0.749   4.101  20.053  0.00  0.00    +0.000 OA
ATOM     24  N   UNL     1       2.461   3.893  21.568  0.00  0.00    +0.000 N 
ATOM     25  H   UNL     1       3.008   4.359  22.284  0.00  0.00    +0.000 HD
BRANCH  24  26
ATOM     26  C   UNL     1       2.567   2.461  21.442  0.00  0.00    +0.000 C 
BRANCH  26  27
ATOM     27  C   UNL     1       3.936   2.036  20.919  0.00  0.00    +0.000 C 
BRANCH  27  28
ATOM     28  C   UNL     1       3.985   2.270  19.413  0.00  0.00    +0.000 C 
BRANCH  28  29
ATOM     29  C   UNL     1       2.775   1.687  18.694  0.00  0.00    +0.000 C 
BRANCH  29  30
ATOM     30  C   UNL     1       2.747   2.163  17.241  0.00  0.00    +0.000 C 
BRANCH  30  31
ATOM     31  C   UNL     1       2.575   3.675  17.162  0.00  0.00    +0.000 C 
BRANCH  31  32
ATOM     32  N   UNL     1       1.165   4.024  17.280  0.00  0.00    +0.000 NA
ATOM     33  H   UNL     1       0.710   3.927  16.374  0.00  0.00    +0.000 HD
ATOM     34  H   UNL     1       1.081   5.005  17.541  0.00  0.00    +0.000 HD
ENDBRANCH  31  32
ENDBRANCH  30  31
ENDBRANCH  29  30
ENDBRANCH  28  29
ENDBRANCH  27  28
ENDBRANCH  26  27
ENDBRANCH  24  26
ENDBRANCH  21  22
ENDBRANCH  10  21
TORSDOF 11
ENDMDL
MODEL 5
REMARK VINA RESULT:      -6.2      2.655      4.252
REMARK  Name = 
REMARK  12 active torsions:
REMARK  status: ('A' for Active; 'I' for Inactive)
REMARK    1  A    between atoms: C_1  and  C_2
REMARK    2  A    between atoms: C_5  and  S_6
REMARK    3  A    between atoms: S_6  and  N_9
REMARK    4  A    between atoms: C_18  and  C_19
REMARK    5  A    between atoms: C_19  and  C_20
REMARK    6  A    between atoms: N_22  and  C_23
REMARK    7  A    between atoms: C_23  and  C_24
REMARK    8  A    between atoms: C_24  and  C_25
REMARK    9  A    between atoms: C_25  and  C_26
REMARK   10  A    between atoms: C_26  and  C_27
REMARK   11  A    between atoms: C_27  and  C_28
REMARK   12  A    between atoms: C_28  and  N_29
REMARK                            x       y       z     vdW  Elec       q    Type
REMARK                         _______ _______ _______ _____ _____    ______ ____
ROOT
ATOM      1  N   UNL     1       1.524   8.513  19.205  0.00  0.00    +0.000 NA
ATOM      2  C   UNL     1       1.432   8.358  20.692  0.00  0.00    +0.000 C 
ATOM      3  C   UNL     1       1.619   6.917  21.230  0.00  0.00    +0.000 C 
ATOM      4  C   UNL     1       1.790   5.831  20.199  0.00  0.00    +0.000 A 
ATOM      5  C   UNL     1       1.628   4.480  20.524  0.00  0.00    +0.000 A 
ATOM      6  C   UNL     1       1.645   3.509  19.521  0.00  0.00    +0.000 A 
ATOM      7  C   UNL     1       1.740   3.891  18.188  0.00  0.00    +0.000 A 
ATOM      8  C   UNL     1       1.950   5.229  17.869  0.00  0.00    +0.000 A 
ATOM      9  C   UNL     1       2.098   6.190  18.881  0.00  0.00    +0.000 A 
ATOM     10  C   UNL     1       2.598   7.617  18.670  0.00  0.00    +0.000 C 
ENDROOT
BRANCH   1  11
ATOM     11  S   UNL     1       1.256  10.095  18.664  0.00  0.00    +0.000 S 
ATOM     12  O   UNL     1       1.884  10.235  17.373  0.00  0.00    +0.000 OA
ATOM     13  O   UNL     1       1.591  11.044  19.721  0.00  0.00    +0.000 OA
BRANCH  11  18
ATOM     14  C   UNL     1      -4.413  11.449  17.057  0.00  0.00    +0.000 C 
ATOM     15  C   UNL     1      -3.089  10.965  17.577  0.00  0.00    +0.000 A 
ATOM     16  C   UNL     1      -2.534  11.508  18.737  0.00  0.00    +0.000 A 
ATOM     17  C   UNL     1      -1.233  11.158  19.127  0.00  0.00    +0.000 A 
ATOM     18  C   UNL     1      -0.507  10.228  18.392  0.00  0.00    +0.000 A 
ATOM     19  C   UNL     1      -1.100   9.581  17.299  0.00  0.00    +0.000 A 
ATOM     20  C   UNL     1      -2.369   9.995  16.868  0.00  0.00    +0.000 A 
ENDBRANCH  11  18
ENDBRANCH   1  11
BRANCH  10  21
ATOM     21  C   UNL     1       3.094   7.885  17.255  0.00  0.00    +0.000 C 
BRANCH  21  22
ATOM     22  C   UNL     1       4.492   7.381  16.977  0.00  0.00    +0.000 C 
ATOM     23  O   UNL     1       5.502   7.724  17.591  0.00  0.00    +0.000 OA
ATOM     24  N   UNL     1       4.498   6.469  15.951  0.00  0.00    +0.000 N 
ATOM     25  H   UNL     1       3.650   6.312  15.417  0.00  0.00    +0.000 HD
BRANCH  24  26
ATOM     26  C   UNL     1       5.718   5.838  15.510  0.00  0.00    +0.000 C 
BRANCH  26  27
ATOM     27  C   UNL     1       5.784   4.373  15.930  0.00  0.00    +0.000 C 
BRANCH  27  28
ATOM     28  C   UNL     1       6.560   4.268  17.239  0.00  0.00    +0.000 C 
BRANCH  28  29
ATOM     29  C   UNL     1       5.643   4.149  18.450  0.00  0.00    +0.000 C 
BRANCH  29  30
ATOM     30  C   UNL     1       5.964   5.249  19.463  0.00  0.00    +0.000 C 
BRANCH  30  31
ATOM     31  C   UNL     1       7.427   5.665  19.376  0.00  0.00    +0.000 C 
BRANCH  31  32
ATOM     32  N   UNL     1       8.129   5.278  20.594  0.00  0.00    +0.000 NA
ATOM     33  H   UNL     1       8.929   4.693  20.358  0.00  0.00    +0.000 HD
ATOM     34  H   UNL     1       7.515   4.706  21.170  0.00  0.00    +0.000 HD
ENDBRANCH  31  32
ENDBRANCH  30  31
ENDBRANCH  29  30
ENDBRANCH  28  29
ENDBRANCH  27  28
ENDBRANCH  26  27
ENDBRANCH  24  26
ENDBRANCH  21  22
ENDBRANCH  10  21
TORSDOF 11
ENDMDL
MODEL 6
REMARK VINA RESULT:      -6.1      1.129      2.026
REMARK  Name = 
REMARK  12 active torsions:
REMARK  status: ('A' for Active; 'I' for Inactive)
REMARK    1  A    between atoms: C_1  and  C_2
REMARK    2  A    between atoms: C_5  and  S_6
REMARK    3  A    between atoms: S_6  and  N_9
REMARK    4  A    between atoms: C_18  and  C_19
REMARK    5  A    between atoms: C_19  and  C_20
REMARK    6  A    between atoms: N_22  and  C_23
REMARK    7  A    between atoms: C_23  and  C_24
REMARK    8  A    between atoms: C_24  and  C_25
REMARK    9  A    between atoms: C_25  and  C_26
REMARK   10  A    between atoms: C_26  and  C_27
REMARK   11  A    between atoms: C_27  and  C_28
REMARK   12  A    between atoms: C_28  and  N_29
REMARK                            x       y       z     vdW  Elec       q    Type
REMARK                         _______ _______ _______ _____ _____    ______ ____
ROOT
ATOM      1  N   UNL     1       1.683   8.417  20.039  0.00  0.00    +0.000 NA
ATOM      2  C   UNL     1       1.506   9.083  18.709  0.00  0.00    +0.000 C 
ATOM      3  C   UNL     1       2.312   8.469  17.537  0.00  0.00    +0.000 C 
ATOM      4  C   UNL     1       3.238   7.331  17.881  0.00  0.00    +0.000 A 
ATOM      5  C   UNL     1       4.252   6.922  17.008  0.00  0.00    +0.000 A 
ATOM      6  C   UNL     1       5.186   5.967  17.414  0.00  0.00    +0.000 A 
ATOM      7  C   UNL     1       5.160   5.482  18.717  0.00  0.00    +0.000 A 
ATOM      8  C   UNL     1       4.123   5.852  19.568  0.00  0.00    +0.000 A 
ATOM      9  C   UNL     1       3.088   6.684  19.114  0.00  0.00    +0.000 A 
ATOM     10  C   UNL     1       1.775   6.934  19.852  0.00  0.00    +0.000 C 
ENDROOT
BRANCH   1  11
ATOM     11  S   UNL     1       0.827   9.160  21.296  0.00  0.00    +0.000 S 
ATOM     12  O   UNL     1       1.744   9.382  22.387  0.00  0.00    +0.000 OA
ATOM     13  O   UNL     1      -0.412   8.431  21.550  0.00  0.00    +0.000 OA
BRANCH  11  18
ATOM     14  C   UNL     1      -1.177  14.778  20.308  0.00  0.00    +0.000 C 
ATOM     15  C   UNL     1      -0.624  13.382  20.353  0.00  0.00    +0.000 A 
ATOM     16  C   UNL     1      -1.432  12.281  20.065  0.00  0.00    +0.000 A 
ATOM     17  C   UNL     1      -0.947  10.979  20.257  0.00  0.00    +0.000 A 
ATOM     18  C   UNL     1       0.359  10.774  20.684  0.00  0.00    +0.000 A 
ATOM     19  C   UNL     1       1.221  11.866  20.854  0.00  0.00    +0.000 A 
ATOM     20  C   UNL     1       0.706  13.166  20.739  0.00  0.00    +0.000 A 
ENDBRANCH  11  18
ENDBRANCH   1  11
BRANCH  10  21
ATOM     21  C   UNL     1       1.594   6.059  21.085  0.00  0.00    +0.000 C 
BRANCH  21  22
ATOM     22  C   UNL     1       1.390   4.591  20.785  0.00  0.00    +0.000 C 
ATOM     23  O   UNL     1       0.555   4.138  20.004  0.00  0.00    +0.000 OA
ATOM     24  N   UNL     1       2.274   3.812  21.490  0.00  0.00    +0.000 N 
ATOM     25  H   UNL     1       2.863   4.238  22.198  0.00  0.00    +0.000 HD
BRANCH  24  26
ATOM     26  C   UNL     1       2.280   2.375  21.362  0.00  0.00    +0.000 C 
BRANCH  26  27
ATOM     27  C   UNL     1       3.697   1.809  21.387  0.00  0.00    +0.000 C 
BRANCH  27  28
ATOM     28  C   UNL     1       4.421   2.229  20.113  0.00  0.00    +0.000 C 
BRANCH  28  29
ATOM     29  C   UNL     1       3.960   1.439  18.894  0.00  0.00    +0.000 C 
BRANCH  29  30
ATOM     30  C   UNL     1       3.597   2.393  17.755  0.00  0.00    +0.000 C 
BRANCH  30  31
ATOM     31  C   UNL     1       2.086   2.521  17.606  0.00  0.00    +0.000 C 
BRANCH  31  32
ATOM     32  N   UNL     1       1.727   3.907  17.333  0.00  0.00    +0.000 NA
ATOM     33  H   UNL     1       1.607   4.410  18.211  0.00  0.00    +0.000 HD
ATOM     34  H   UNL     1       0.826   3.935  16.860  0.00  0.00    +0.000 HD
ENDBRANCH  31  32
ENDBRANCH  30  31
ENDBRANCH  29  30
ENDBRANCH  28  29
ENDBRANCH  27  28
ENDBRANCH  26  27
ENDBRANCH  24  26
ENDBRANCH  21  22
ENDBRANCH  10  21
TORSDOF 11
ENDMDL
MODEL 7
REMARK VINA RESULT:      -6.0      3.305      7.210
REMARK  Name = 
REMARK  12 active torsions:
REMARK  status: ('A' for Active; 'I' for Inactive)
REMARK    1  A    between atoms: C_1  and  C_2
REMARK    2  A    between atoms: C_5  and  S_6
REMARK    3  A    between atoms: S_6  and  N_9
REMARK    4  A    between atoms: C_18  and  C_19
REMARK    5  A    between atoms: C_19  and  C_20
REMARK    6  A    between atoms: N_22  and  C_23
REMARK    7  A    between atoms: C_23  and  C_24
REMARK    8  A    between atoms: C_24  and  C_25
REMARK    9  A    between atoms: C_25  and  C_26
REMARK   10  A    between atoms: C_26  and  C_27
REMARK   11  A    between atoms: C_27  and  C_28
REMARK   12  A    between atoms: C_28  and  N_29
REMARK                            x       y       z     vdW  Elec       q    Type
REMARK                         _______ _______ _______ _____ _____    ______ ____
ROOT
ATOM      1  N   UNL     1       4.547   4.336  17.336  0.00  0.00    +0.000 NA
ATOM      2  C   UNL     1       4.051   3.002  16.869  0.00  0.00    +0.000 C 
ATOM      3  C   UNL     1       2.939   2.357  17.735  0.00  0.00    +0.000 C 
ATOM      4  C   UNL     1       2.543   3.101  18.983  0.00  0.00    +0.000 A 
ATOM      5  C   UNL     1       1.818   2.481  20.007  0.00  0.00    +0.000 A 
ATOM      6  C   UNL     1       1.593   3.148  21.213  0.00  0.00    +0.000 A 
ATOM      7  C   UNL     1       2.161   4.399  21.429  0.00  0.00    +0.000 A 
ATOM      8  C   UNL     1       2.840   5.034  20.394  0.00  0.00    +0.000 A 
ATOM      9  C   UNL     1       2.929   4.440  19.126  0.00  0.00    +0.000 A 
ATOM     10  C   UNL     1       3.399   5.145  17.856  0.00  0.00    +0.000 C 
ENDROOT
BRANCH   1  11
ATOM     11  S   UNL     1       5.799   4.970  16.390  0.00  0.00    +0.000 S 
ATOM     12  O   UNL     1       5.208   5.586  15.228  0.00  0.00    +0.000 OA
ATOM     13  O   UNL     1       6.840   3.964  16.207  0.00  0.00    +0.000 OA
BRANCH  11  18
ATOM     14  C   UNL     1       9.130   9.353  18.890  0.00  0.00    +0.000 C 
ATOM     15  C   UNL     1       8.168   8.296  18.425  0.00  0.00    +0.000 A 
ATOM     16  C   UNL     1       8.277   6.980  18.877  0.00  0.00    +0.000 A 
ATOM     17  C   UNL     1       7.471   5.975  18.322  0.00  0.00    +0.000 A 
ATOM     18  C   UNL     1       6.523   6.290  17.356  0.00  0.00    +0.000 A 
ATOM     19  C   UNL     1       6.316   7.626  16.986  0.00  0.00    +0.000 A 
ATOM     20  C   UNL     1       7.179   8.613  17.485  0.00  0.00    +0.000 A 
ENDBRANCH  11  18
ENDBRANCH   1  11
BRANCH  10  21
ATOM     21  C   UNL     1       3.622   6.640  18.039  0.00  0.00    +0.000 C 
BRANCH  21  22
ATOM     22  C   UNL     1       2.394   7.489  17.797  0.00  0.00    +0.000 C 
ATOM     23  O   UNL     1       1.283   7.056  17.497  0.00  0.00    +0.000 OA
ATOM     24  N   UNL     1       2.670   8.824  17.970  0.00  0.00    +0.000 N 
ATOM     25  H   UNL     1       3.629   9.122  18.110  0.00  0.00    +0.000 HD
BRANCH  24  26
ATOM     26  C   UNL     1       1.651   9.831  17.804  0.00  0.00    +0.000 C 
BRANCH  26  27
ATOM     27  C   UNL     1       1.340  10.545  19.115  0.00  0.00    +0.000 C 
BRANCH  27  28
ATOM     28  C   UNL     1      -0.150  10.410  19.411  0.00  0.00    +0.000 C 
BRANCH  28  29
ATOM     29  C   UNL     1      -0.420   9.618  20.685  0.00  0.00    +0.000 C 
BRANCH  29  30
ATOM     30  C   UNL     1       0.897   9.291  21.389  0.00  0.00    +0.000 C 
BRANCH  30  31
ATOM     31  C   UNL     1       0.727   9.304  22.904  0.00  0.00    +0.000 C 
BRANCH  31  32
ATOM     32  N   UNL     1      -0.247  10.318  23.288  0.00  0.00    +0.000 NA
ATOM     33  H   UNL     1      -0.730  10.027  24.137  0.00  0.00    +0.000 HD
ATOM     34  H   UNL     1      -0.960  10.393  22.564  0.00  0.00    +0.000 HD
ENDBRANCH  31  32
ENDBRANCH  30  31
ENDBRANCH  29  30
ENDBRANCH  28  29
ENDBRANCH  27  28
ENDBRANCH  26  27
ENDBRANCH  24  26
ENDBRANCH  21  22
ENDBRANCH  10  21
TORSDOF 11
ENDMDL
MODEL 8
REMARK VINA RESULT:      -6.0      3.285      8.280
REMARK  Name = 
REMARK  12 active torsions:
REMARK  status: ('A' for Active; 'I' for Inactive)
REMARK    1  A    between atoms: C_1  and  C_2
REMARK    2  A    between atoms: C_5  and  S_6
REMARK    3  A    between atoms: S_6  and  N_9
REMARK    4  A    between atoms: C_18  and  C_19
REMARK    5  A    between atoms: C_19  and  C_20
REMARK    6  A    between atoms: N_22  and  C_23
REMARK    7  A    between atoms: C_23  and  C_24
REMARK    8  A    between atoms: C_24  and  C_25
REMARK    9  A    between atoms: C_25  and  C_26
REMARK   10  A    between atoms: C_26  and  C_27
REMARK   11  A    between atoms: C_27  and  C_28
REMARK   12  A    between atoms: C_28  and  N_29
REMARK                            x       y       z     vdW  Elec       q    Type
REMARK                         _______ _______ _______ _____ _____    ______ ____
ROOT
ATOM      1  N   UNL     1       3.923   5.050  17.770  0.00  0.00    +0.000 NA
ATOM      2  C   UNL     1       3.372   3.968  16.893  0.00  0.00    +0.000 C 
ATOM      3  C   UNL     1       2.342   3.021  17.560  0.00  0.00    +0.000 C 
ATOM      4  C   UNL     1       2.074   3.244  19.026  0.00  0.00    +0.000 A 
ATOM      5  C   UNL     1       1.445   2.273  19.812  0.00  0.00    +0.000 A 
ATOM      6  C   UNL     1       1.344   2.445  21.194  0.00  0.00    +0.000 A 
ATOM      7  C   UNL     1       1.942   3.543  21.802  0.00  0.00    +0.000 A 
ATOM      8  C   UNL     1       2.524   4.532  21.015  0.00  0.00    +0.000 A 
ATOM      9  C   UNL     1       2.485   4.447  19.615  0.00  0.00    +0.000 A 
ATOM     10  C   UNL     1       2.838   5.581  18.656  0.00  0.00    +0.000 C 
ENDROOT
BRANCH   1  11
ATOM     11  S   UNL     1       5.084   6.020  17.012  0.00  0.00    +0.000 S 
ATOM     12  O   UNL     1       6.176   6.207  17.935  0.00  0.00    +0.000 OA
ATOM     13  O   UNL     1       4.444   7.194  16.426  0.00  0.00    +0.000 OA
BRANCH  11  18
ATOM     14  C   UNL     1       7.034   3.698  11.782  0.00  0.00    +0.000 C 
ATOM     15  C   UNL     1       6.589   4.088  13.163  0.00  0.00    +0.000 A 
ATOM     16  C   UNL     1       5.265   3.911  13.565  0.00  0.00    +0.000 A 
ATOM     17  C   UNL     1       4.829   4.416  14.799  0.00  0.00    +0.000 A 
ATOM     18  C   UNL     1       5.723   5.049  15.653  0.00  0.00    +0.000 A 
ATOM     19  C   UNL     1       7.082   5.120  15.317  0.00  0.00    +0.000 A 
ATOM     20  C   UNL     1       7.495   4.686  14.049  0.00  0.00    +0.000 A 
ENDBRANCH  11  18
ENDBRANCH   1  11
BRANCH  10  21
ATOM     21  C   UNL     1       3.092   6.911  19.354  0.00  0.00    +0.000 C 
BRANCH  21  22
ATOM     22  C   UNL     1       2.012   7.947  19.136  0.00  0.00    +0.000 C 
ATOM     23  O   UNL     1       1.642   8.362  18.039  0.00  0.00    +0.000 OA
ATOM     24  N   UNL     1       1.476   8.365  20.329  0.00  0.00    +0.000 N 
ATOM     25  H   UNL     1       1.899   8.065  21.201  0.00  0.00    +0.000 HD
BRANCH  24  26
ATOM     26  C   UNL     1       0.419   9.345  20.377  0.00  0.00    +0.000 C 
BRANCH  26  27
ATOM     27  C   UNL     1       0.953  10.742  20.682  0.00  0.00    +0.000 C 
BRANCH  27  28
ATOM     28  C   UNL     1       0.990  11.550  19.389  0.00  0.00    +0.000 C 
BRANCH  28  29
ATOM     29  C   UNL     1       0.558  12.997  19.596  0.00  0.00    +0.000 C 
BRANCH  29  30
ATOM     30  C   UNL     1      -0.451  13.403  18.521  0.00  0.00    +0.000 C 
BRANCH  30  31
ATOM     31  C   UNL     1      -1.559  12.365  18.388  0.00  0.00    +0.000 C 
BRANCH  31  32
ATOM     32  N   UNL     1      -1.830  12.102  16.980  0.00  0.00    +0.000 NA
ATOM     33  H   UNL     1      -1.691  12.954  16.439  0.00  0.00    +0.000 HD
ATOM     34  H   UNL     1      -2.809  11.845  16.867  0.00  0.00    +0.000 HD
ENDBRANCH  31  32
ENDBRANCH  30  31
ENDBRANCH  29  30
ENDBRANCH  28  29
ENDBRANCH  27  28
ENDBRANCH  26  27
ENDBRANCH  24  26
ENDBRANCH  21  22
ENDBRANCH  10  21
TORSDOF 11
ENDMDL
MODEL 9
REMARK VINA RESULT:      -6.0      0.885      1.304
REMARK  Name = 
REMARK  12 active torsions:
REMARK  status: ('A' for Active; 'I' for Inactive)
REMARK    1  A    between atoms: C_1  and  C_2
REMARK    2  A    between atoms: C_5  and  S_6
REMARK    3  A    between atoms: S_6  and  N_9
REMARK    4  A    between atoms: C_18  and  C_19
REMARK    5  A    between atoms: C_19  and  C_20
REMARK    6  A    between atoms: N_22  and  C_23
REMARK    7  A    between atoms: C_23  and  C_24
REMARK    8  A    between atoms: C_24  and  C_25
REMARK    9  A    between atoms: C_25  and  C_26
REMARK   10  A    between atoms: C_26  and  C_27
REMARK   11  A    between atoms: C_27  and  C_28
REMARK   12  A    between atoms: C_28  and  N_29
REMARK                            x       y       z     vdW  Elec       q    Type
REMARK                         _______ _______ _______ _____ _____    ______ ____
ROOT
ATOM      1  N   UNL     1       1.822   8.214  19.978  0.00  0.00    +0.000 NA
ATOM      2  C   UNL     1       1.493   8.734  18.613  0.00  0.00    +0.000 C 
ATOM      3  C   UNL     1       2.314   8.128  17.446  0.00  0.00    +0.000 C 
ATOM      4  C   UNL     1       3.398   7.152  17.824  0.00  0.00    +0.000 A 
ATOM      5  C   UNL     1       4.414   6.802  16.926  0.00  0.00    +0.000 A 
ATOM      6  C   UNL     1       5.484   6.013  17.350  0.00  0.00    +0.000 A 
ATOM      7  C   UNL     1       5.586   5.642  18.687  0.00  0.00    +0.000 A 
ATOM      8  C   UNL     1       4.553   5.949  19.566  0.00  0.00    +0.000 A 
ATOM      9  C   UNL     1       3.396   6.600  19.111  0.00  0.00    +0.000 A 
ATOM     10  C   UNL     1       2.099   6.744  19.904  0.00  0.00    +0.000 C 
ENDROOT
BRANCH   1  11
ATOM     11  S   UNL     1       0.938   8.947  21.221  0.00  0.00    +0.000 S 
ATOM     12  O   UNL     1       1.841   9.204  22.316  0.00  0.00    +0.000 OA
ATOM     13  O   UNL     1      -0.284   8.190  21.474  0.00  0.00    +0.000 OA
BRANCH  11  18
ATOM     14  C   UNL     1      -1.226  14.490  20.152  0.00  0.00    +0.000 C 
ATOM     15  C   UNL     1      -0.627  13.114  20.219  0.00  0.00    +0.000 A 
ATOM     16  C   UNL     1      -1.389  11.986  19.913  0.00  0.00    +0.000 A 
ATOM     17  C   UNL     1      -0.866  10.702  20.124  0.00  0.00    +0.000 A 
ATOM     18  C   UNL     1       0.433  10.542  20.590  0.00  0.00    +0.000 A 
ATOM     19  C   UNL     1       1.252  11.664  20.779  0.00  0.00    +0.000 A 
ATOM     20  C   UNL     1       0.697  12.945  20.644  0.00  0.00    +0.000 A 
ENDBRANCH  11  18
ENDBRANCH   1  11
BRANCH  10  21
ATOM     21  C   UNL     1       2.096   5.963  21.211  0.00  0.00    +0.000 C 
BRANCH  21  22
ATOM     22  C   UNL     1       1.919   4.470  21.047  0.00  0.00    +0.000 C 
ATOM     23  O   UNL     1       2.665   3.613  21.518  0.00  0.00    +0.000 OA
ATOM     24  N   UNL     1       0.798   4.180  20.309  0.00  0.00    +0.000 N 
ATOM     25  H   UNL     1       0.287   4.932  19.859  0.00  0.00    +0.000 HD
BRANCH  24  26
ATOM     26  C   UNL     1       0.412   2.820  20.027  0.00  0.00    +0.000 C 
BRANCH  26  27
ATOM     27  C   UNL     1       0.576   2.477  18.549  0.00  0.00    +0.000 C 
BRANCH  27  28
ATOM     28  C   UNL     1       1.518   3.490  17.907  0.00  0.00    +0.000 C 
BRANCH  28  29
ATOM     29  C   UNL     1       2.660   2.824  17.150  0.00  0.00    +0.000 C 
BRANCH  29  30
ATOM     30  C   UNL     1       3.965   2.970  17.934  0.00  0.00    +0.000 C 
BRANCH  30  31
ATOM     31  C   UNL     1       4.059   1.930  19.044  0.00  0.00    +0.000 C 
BRANCH  31  32
ATOM     32  N   UNL     1       4.043   0.589  18.474  0.00  0.00    +0.000 NA
ATOM     33  H   UNL     1       3.084   0.319  18.257  0.00  0.00    +0.000 HD
ATOM     34  H   UNL     1       4.379  -0.077  19.167  0.00  0.00    +0.000 HD
ENDBRANCH  31  32
ENDBRANCH  30  31
ENDBRANCH  29  30
ENDBRANCH  28  29
ENDBRANCH  27  28
ENDBRANCH  26  27
ENDBRANCH  24  26
ENDBRANCH  21  22
ENDBRANCH  10  21
TORSDOF 11
ENDMDL
