MODEL 1
REMARK VINA RESULT:      -8.0      0.000      0.000
REMARK  Name = 
REMARK  3 active torsions:
REMARK  status: ('A' for Active; 'I' for Inactive)
REMARK    1  A    between atoms: C_2  and  C_3
REMARK    2  A    between atoms: C_2  and  C_10
REMARK    3  A    between atoms: C_3  and  N_4
REMARK                            x       y       z     vdW  Elec       q    Type
REMARK                         _______ _______ _______ _____ _____    ______ ____
ROOT
ATOM      1  C   UNL     1       2.885   4.577  18.560  0.00  0.00    +0.000 C 
ATOM      2  C   UNL     1       1.514   4.159  17.985  0.00  0.00    +0.000 C 
ATOM      3  C   UNL     1       0.904   3.013  18.827  0.00  0.00    +0.000 C 
ATOM      4  C   UNL     1       1.861   1.808  18.834  0.00  0.00    +0.000 C 
ATOM      5  C   UNL     1       3.211   2.212  19.449  0.00  0.00    +0.000 C 
ATOM      6  C   UNL     1       3.015   2.725  20.881  0.00  0.00    +0.000 C 
ATOM      7  C   UNL     1       2.050   3.919  20.879  0.00  0.00    +0.000 C 
ATOM      8  C   UNL     1       0.704   3.481  20.279  0.00  0.00    +0.000 C 
ATOM      9  C   UNL     1       2.645   5.050  20.021  0.00  0.00    +0.000 C 
ATOM     10  C   UNL     1       3.810   3.333  18.599  0.00  0.00    +0.000 C 
ENDROOT
BRANCH   1  12
ATOM     11  O   UNL     1       3.173   6.873  17.809  0.00  0.00    +0.000 OA
ATOM     12  C   UNL     1       3.576   5.706  17.750  0.00  0.00    +0.000 C 
BRANCH  12  13
ATOM     13  C   UNL     1       4.826   5.365  16.956  0.00  0.00    +0.000 C 
BRANCH  13  14
ATOM     14  N   UNL     1       6.060   5.960  17.520  0.00  0.00    +0.000 N 
ATOM     15  C   UNL     1       6.697   5.353  18.546  0.00  0.00    +0.000 A 
ATOM     16  C   UNL     1       7.817   5.940  19.131  0.00  0.00    +0.000 A 
ATOM     17  C   UNL     1       8.283   7.158  18.653  0.00  0.00    +0.000 A 
ATOM     18  C   UNL     1       7.630   7.763  17.589  0.00  0.00    +0.000 A 
ATOM     19  C   UNL     1       6.518   7.143  17.036  0.00  0.00    +0.000 A 
ENDBRANCH  13  14
ENDBRANCH  12  13
ENDBRANCH   1  12
TORSDOF 3
ENDMDL
MODEL 2
REMARK VINA RESULT:      -8.0      0.103      1.695
REMARK  Name = 
REMARK  3 active torsions:
REMARK  status: ('A' for Active; 'I' for Inactive)
REMARK    1  A    between atoms: C_2  and  C_3
REMARK    2  A    between atoms: C_2  and  C_10
REMARK    3  A    between atoms: C_3  and  N_4
REMARK                            x       y       z     vdW  Elec       q    Type
REMARK                         _______ _______ _______ _____ _____    ______ ____
ROOT
ATOM      1  C   UNL     1       2.972   4.568  18.580  0.00  0.00    +0.000 C 
ATOM      2  C   UNL     1       3.802   3.266  18.558  0.00  0.00    +0.000 C 
ATOM      3  C   UNL     1       3.134   2.187  19.444  0.00  0.00    +0.000 C 
ATOM      4  C   UNL     1       3.009   2.707  20.887  0.00  0.00    +0.000 C 
ATOM      5  C   UNL     1       2.143   3.978  20.916  0.00  0.00    +0.000 C 
ATOM      6  C   UNL     1       0.749   3.690  20.347  0.00  0.00    +0.000 C 
ATOM      7  C   UNL     1       0.872   3.159  18.912  0.00  0.00    +0.000 C 
ATOM      8  C   UNL     1       1.722   1.878  18.916  0.00  0.00    +0.000 C 
ATOM      9  C   UNL     1       1.559   4.222  18.035  0.00  0.00    +0.000 C 
ATOM     10  C   UNL     1       2.823   5.039  20.050  0.00  0.00    +0.000 C 
ENDROOT
BRANCH   1  12
ATOM     11  O   UNL     1       3.140   6.859  17.780  0.00  0.00    +0.000 OA
ATOM     12  C   UNL     1       3.595   5.711  17.736  0.00  0.00    +0.000 C 
BRANCH  12  13
ATOM     13  C   UNL     1       4.845   5.414  16.925  0.00  0.00    +0.000 C 
BRANCH  13  14
ATOM     14  N   UNL     1       6.077   5.995  17.508  0.00  0.00    +0.000 N 
ATOM     15  C   UNL     1       6.706   5.367  18.526  0.00  0.00    +0.000 A 
ATOM     16  C   UNL     1       7.823   5.941  19.129  0.00  0.00    +0.000 A 
ATOM     17  C   UNL     1       8.294   7.168  18.679  0.00  0.00    +0.000 A 
ATOM     18  C   UNL     1       7.648   7.794  17.623  0.00  0.00    +0.000 A 
ATOM     19  C   UNL     1       6.539   7.187  17.051  0.00  0.00    +0.000 A 
ENDBRANCH  13  14
ENDBRANCH  12  13
ENDBRANCH   1  12
TORSDOF 3
ENDMDL
MODEL 3
REMARK VINA RESULT:      -8.0      0.102      1.728
REMARK  Name = 
REMARK  3 active torsions:
REMARK  status: ('A' for Active; 'I' for Inactive)
REMARK    1  A    between atoms: C_2  and  C_3
REMARK    2  A    between atoms: C_2  and  C_10
REMARK    3  A    between atoms: C_3  and  N_4
REMARK                            x       y       z     vdW  Elec       q    Type
REMARK                         _______ _______ _______ _____ _____    ______ ____
ROOT
ATOM      1  C   UNL     1       2.911   4.587  18.702  0.00  0.00    +0.000 C 
ATOM      2  C   UNL     1       2.686   5.058  20.155  0.00  0.00    +0.000 C 
ATOM      3  C   UNL     1       2.016   3.939  20.987  0.00  0.00    +0.000 C 
ATOM      4  C   UNL     1       0.672   3.551  20.346  0.00  0.00    +0.000 C 
ATOM      5  C   UNL     1       0.900   3.037  18.915  0.00  0.00    +0.000 C 
ATOM      6  C   UNL     1       1.837   1.824  18.924  0.00  0.00    +0.000 C 
ATOM      7  C   UNL     1       3.175   2.204  19.575  0.00  0.00    +0.000 C 
ATOM      8  C   UNL     1       2.919   2.693  21.010  0.00  0.00    +0.000 C 
ATOM      9  C   UNL     1       3.831   3.335  18.762  0.00  0.00    +0.000 C 
ATOM     10  C   UNL     1       1.548   4.158  18.101  0.00  0.00    +0.000 C 
ENDROOT
BRANCH   1  12
ATOM     11  O   UNL     1       3.118   6.824  17.769  0.00  0.00    +0.000 OA
ATOM     12  C   UNL     1       3.555   5.668  17.795  0.00  0.00    +0.000 C 
BRANCH  12  13
ATOM     13  C   UNL     1       4.803   5.303  17.008  0.00  0.00    +0.000 C 
BRANCH  13  14
ATOM     14  N   UNL     1       6.038   5.919  17.547  0.00  0.00    +0.000 N 
ATOM     15  C   UNL     1       6.682   5.346  18.588  0.00  0.00    +0.000 A 
ATOM     16  C   UNL     1       7.803   5.955  19.148  0.00  0.00    +0.000 A 
ATOM     17  C   UNL     1       8.263   7.159  18.630  0.00  0.00    +0.000 A 
ATOM     18  C   UNL     1       7.602   7.728  17.551  0.00  0.00    +0.000 A 
ATOM     19  C   UNL     1       6.490   7.087  17.024  0.00  0.00    +0.000 A 
ENDBRANCH  13  14
ENDBRANCH  12  13
ENDBRANCH   1  12
TORSDOF 3
ENDMDL
MODEL 4
REMARK VINA RESULT:      -8.0      0.169      1.101
REMARK  Name = 
REMARK  3 active torsions:
REMARK  status: ('A' for Active; 'I' for Inactive)
REMARK    1  A    between atoms: C_2  and  C_3
REMARK    2  A    between atoms: C_2  and  C_10
REMARK    3  A    between atoms: C_3  and  N_4
REMARK                            x       y       z     vdW  Elec       q    Type
REMARK                         _______ _______ _______ _____ _____    ______ ____
ROOT
ATOM      1  C   UNL     1       2.783   4.596  18.650  0.00  0.00    +0.000 C 
ATOM      2  C   UNL     1       1.493   4.070  17.984  0.00  0.00    +0.000 C 
ATOM      3  C   UNL     1       0.896   2.905  18.810  0.00  0.00    +0.000 C 
ATOM      4  C   UNL     1       1.929   1.770  18.926  0.00  0.00    +0.000 C 
ATOM      5  C   UNL     1       3.196   2.281  19.632  0.00  0.00    +0.000 C 
ATOM      6  C   UNL     1       2.854   2.814  21.028  0.00  0.00    +0.000 C 
ATOM      7  C   UNL     1       1.814   3.938  20.916  0.00  0.00    +0.000 C 
ATOM      8  C   UNL     1       0.552   3.394  20.229  0.00  0.00    +0.000 C 
ATOM      9  C   UNL     1       2.397   5.086  20.073  0.00  0.00    +0.000 C 
ATOM     10  C   UNL     1       3.783   3.420  18.797  0.00  0.00    +0.000 C 
ENDROOT
BRANCH   1  12
ATOM     11  O   UNL     1       3.037   6.908  17.939  0.00  0.00    +0.000 OA
ATOM     12  C   UNL     1       3.458   5.749  17.862  0.00  0.00    +0.000 C 
BRANCH  12  13
ATOM     13  C   UNL     1       4.716   5.443  17.068  0.00  0.00    +0.000 C 
BRANCH  13  14
ATOM     14  N   UNL     1       5.936   6.063  17.635  0.00  0.00    +0.000 N 
ATOM     15  C   UNL     1       6.423   7.208  17.106  0.00  0.00    +0.000 A 
ATOM     16  C   UNL     1       7.609   7.761  17.586  0.00  0.00    +0.000 A 
ATOM     17  C   UNL     1       8.295   7.130  18.616  0.00  0.00    +0.000 A 
ATOM     18  C   UNL     1       7.776   5.964  19.161  0.00  0.00    +0.000 A 
ATOM     19  C   UNL     1       6.591   5.448  18.654  0.00  0.00    +0.000 A 
ENDBRANCH  13  14
ENDBRANCH  12  13
ENDBRANCH   1  12
TORSDOF 3
ENDMDL
MODEL 5
REMARK VINA RESULT:      -7.9      0.122      2.057
REMARK  Name = 
REMARK  3 active torsions:
REMARK  status: ('A' for Active; 'I' for Inactive)
REMARK    1  A    between atoms: C_2  and  C_3
REMARK    2  A    between atoms: C_2  and  C_10
REMARK    3  A    between atoms: C_3  and  N_4
REMARK                            x       y       z     vdW  Elec       q    Type
REMARK                         _______ _______ _______ _____ _____    ______ ____
ROOT
ATOM      1  C   UNL     1       2.875   4.557  18.689  0.00  0.00    +0.000 C 
ATOM      2  C   UNL     1       2.702   5.008  20.155  0.00  0.00    +0.000 C 
ATOM      3  C   UNL     1       2.054   3.879  20.993  0.00  0.00    +0.000 C 
ATOM      4  C   UNL     1       0.687   3.509  20.392  0.00  0.00    +0.000 C 
ATOM      5  C   UNL     1       0.863   3.015  18.946  0.00  0.00    +0.000 C 
ATOM      6  C   UNL     1       1.793   1.797  18.906  0.00  0.00    +0.000 C 
ATOM      7  C   UNL     1       3.154   2.160  19.517  0.00  0.00    +0.000 C 
ATOM      8  C   UNL     1       2.950   2.628  20.967  0.00  0.00    +0.000 C 
ATOM      9  C   UNL     1       3.789   3.299  18.699  0.00  0.00    +0.000 C 
ATOM     10  C   UNL     1       1.490   4.145  18.127  0.00  0.00    +0.000 C 
ENDROOT
BRANCH   1  12
ATOM     11  O   UNL     1       3.004   6.780  17.711  0.00  0.00    +0.000 OA
ATOM     12  C   UNL     1       3.495   5.648  17.776  0.00  0.00    +0.000 C 
BRANCH  12  13
ATOM     13  C   UNL     1       4.782   5.328  17.037  0.00  0.00    +0.000 C 
BRANCH  13  14
ATOM     14  N   UNL     1       5.977   5.977  17.626  0.00  0.00    +0.000 N 
ATOM     15  C   UNL     1       6.451   7.129  17.101  0.00  0.00    +0.000 A 
ATOM     16  C   UNL     1       7.614   7.709  17.602  0.00  0.00    +0.000 A 
ATOM     17  C   UNL     1       8.291   7.098  18.651  0.00  0.00    +0.000 A 
ATOM     18  C   UNL     1       7.785   5.925  19.191  0.00  0.00    +0.000 A 
ATOM     19  C   UNL     1       6.622   5.381  18.662  0.00  0.00    +0.000 A 
ENDBRANCH  13  14
ENDBRANCH  12  13
ENDBRANCH   1  12
TORSDOF 3
ENDMDL
MODEL 6
REMARK VINA RESULT:      -7.9      0.190      1.975
REMARK  Name = 
REMARK  3 active torsions:
REMARK  status: ('A' for Active; 'I' for Inactive)
REMARK    1  A    between atoms: C_2  and  C_3
REMARK    2  A    between atoms: C_2  and  C_10
REMARK    3  A    between atoms: C_3  and  N_4
REMARK                            x       y       z     vdW  Elec       q    Type
REMARK                         _______ _______ _______ _____ _____    ______ ____
ROOT
ATOM      1  C   UNL     1       2.982   4.550  18.559  0.00  0.00    +0.000 C 
ATOM      2  C   UNL     1       3.785   3.240  18.404  0.00  0.00    +0.000 C 
ATOM      3  C   UNL     1       3.179   2.128  19.293  0.00  0.00    +0.000 C 
ATOM      4  C   UNL     1       3.187   2.579  20.764  0.00  0.00    +0.000 C 
ATOM      5  C   UNL     1       2.348   3.857  20.928  0.00  0.00    +0.000 C 
ATOM      6  C   UNL     1       0.906   3.613  20.469  0.00  0.00    +0.000 C 
ATOM      7  C   UNL     1       0.895   3.151  19.006  0.00  0.00    +0.000 C 
ATOM      8  C   UNL     1       1.722   1.861  18.876  0.00  0.00    +0.000 C 
ATOM      9  C   UNL     1       1.521   4.246  18.123  0.00  0.00    +0.000 C 
ATOM     10  C   UNL     1       2.967   4.951  20.056  0.00  0.00    +0.000 C 
ENDROOT
BRANCH   1  12
ATOM     11  O   UNL     1       3.019   6.841  17.745  0.00  0.00    +0.000 OA
ATOM     12  C   UNL     1       3.547   5.724  17.718  0.00  0.00    +0.000 C 
BRANCH  12  13
ATOM     13  C   UNL     1       4.828   5.501  16.933  0.00  0.00    +0.000 C 
BRANCH  13  14
ATOM     14  N   UNL     1       6.021   6.106  17.570  0.00  0.00    +0.000 N 
ATOM     15  C   UNL     1       6.519   7.274  17.105  0.00  0.00    +0.000 A 
ATOM     16  C   UNL     1       7.682   7.815  17.650  0.00  0.00    +0.000 A 
ATOM     17  C   UNL     1       8.333   7.148  18.680  0.00  0.00    +0.000 A 
ATOM     18  C   UNL     1       7.803   5.958  19.158  0.00  0.00    +0.000 A 
ATOM     19  C   UNL     1       6.642   5.455  18.587  0.00  0.00    +0.000 A 
ENDBRANCH  13  14
ENDBRANCH  12  13
ENDBRANCH   1  12
TORSDOF 3
ENDMDL
MODEL 7
REMARK VINA RESULT:      -7.7      1.417      2.137
REMARK  Name = 
REMARK  3 active torsions:
REMARK  status: ('A' for Active; 'I' for Inactive)
REMARK    1  A    between atoms: C_2  and  C_3
REMARK    2  A    between atoms: C_2  and  C_10
REMARK    3  A    between atoms: C_3  and  N_4
REMARK                            x       y       z     vdW  Elec       q    Type
REMARK                         _______ _______ _______ _____ _____    ______ ____
ROOT
ATOM      1  C   UNL     1       2.867   4.699  18.925  0.00  0.00    +0.000 C 
ATOM      2  C   UNL     1       2.371   3.892  17.705  0.00  0.00    +0.000 C 
ATOM      3  C   UNL     1       1.860   2.501  18.151  0.00  0.00    +0.000 C 
ATOM      4  C   UNL     1       2.991   1.737  18.861  0.00  0.00    +0.000 C 
ATOM      5  C   UNL     1       3.454   2.517  20.103  0.00  0.00    +0.000 C 
ATOM      6  C   UNL     1       2.284   2.727  21.071  0.00  0.00    +0.000 C 
ATOM      7  C   UNL     1       1.148   3.478  20.361  0.00  0.00    +0.000 C 
ATOM      8  C   UNL     1       0.691   2.666  19.138  0.00  0.00    +0.000 C 
ATOM      9  C   UNL     1       1.663   4.852  19.895  0.00  0.00    +0.000 C 
ATOM     10  C   UNL     1       3.970   3.882  19.646  0.00  0.00    +0.000 C 
ENDROOT
BRANCH   1  12
ATOM     11  O   UNL     1       2.667   7.054  18.353  0.00  0.00    +0.000 OA
ATOM     12  C   UNL     1       3.424   6.098  18.554  0.00  0.00    +0.000 C 
BRANCH  12  13
ATOM     13  C   UNL     1       4.930   6.298  18.542  0.00  0.00    +0.000 C 
BRANCH  13  14
ATOM     14  N   UNL     1       5.587   5.742  17.336  0.00  0.00    +0.000 N 
ATOM     15  C   UNL     1       5.053   5.956  16.113  0.00  0.00    +0.000 A 
ATOM     16  C   UNL     1       5.622   5.378  14.981  0.00  0.00    +0.000 A 
ATOM     17  C   UNL     1       6.749   4.575  15.111  0.00  0.00    +0.000 A 
ATOM     18  C   UNL     1       7.296   4.376  16.370  0.00  0.00    +0.000 A 
ATOM     19  C   UNL     1       6.698   4.972  17.471  0.00  0.00    +0.000 A 
ENDBRANCH  13  14
ENDBRANCH  12  13
ENDBRANCH   1  12
TORSDOF 3
ENDMDL
MODEL 8
REMARK VINA RESULT:      -7.7      1.176      1.708
REMARK  Name = 
REMARK  3 active torsions:
REMARK  status: ('A' for Active; 'I' for Inactive)
REMARK    1  A    between atoms: C_2  and  C_3
REMARK    2  A    between atoms: C_2  and  C_10
REMARK    3  A    between atoms: C_3  and  N_4
REMARK                            x       y       z     vdW  Elec       q    Type
REMARK                         _______ _______ _______ _____ _____    ______ ____
ROOT
ATOM      1  C   UNL     1       2.614   4.771  19.037  0.00  0.00    +0.000 C 
ATOM      2  C   UNL     1       2.093   4.000  17.805  0.00  0.00    +0.000 C 
ATOM      3  C   UNL     1       1.718   2.550  18.197  0.00  0.00    +0.000 C 
ATOM      4  C   UNL     1       2.949   1.836  18.782  0.00  0.00    +0.000 C 
ATOM      5  C   UNL     1       3.441   2.578  20.036  0.00  0.00    +0.000 C 
ATOM      6  C   UNL     1       2.331   2.641  21.091  0.00  0.00    +0.000 C 
ATOM      7  C   UNL     1       1.096   3.341  20.506  0.00  0.00    +0.000 C 
ATOM      8  C   UNL     1       0.613   2.567  19.268  0.00  0.00    +0.000 C 
ATOM      9  C   UNL     1       1.474   4.775  20.093  0.00  0.00    +0.000 C 
ATOM     10  C   UNL     1       3.823   4.003  19.631  0.00  0.00    +0.000 C 
ENDROOT
BRANCH   1  12
ATOM     11  O   UNL     1       2.909   7.130  19.554  0.00  0.00    +0.000 OA
ATOM     12  C   UNL     1       3.040   6.229  18.718  0.00  0.00    +0.000 C 
BRANCH  12  13
ATOM     13  C   UNL     1       3.716   6.510  17.387  0.00  0.00    +0.000 C 
BRANCH  13  14
ATOM     14  N   UNL     1       5.051   5.880  17.260  0.00  0.00    +0.000 N 
ATOM     15  C   UNL     1       5.259   4.915  16.337  0.00  0.00    +0.000 A 
ATOM     16  C   UNL     1       6.490   4.266  16.258  0.00  0.00    +0.000 A 
ATOM     17  C   UNL     1       7.510   4.615  17.134  0.00  0.00    +0.000 A 
ATOM     18  C   UNL     1       7.287   5.618  18.066  0.00  0.00    +0.000 A 
ATOM     19  C   UNL     1       6.047   6.239  18.110  0.00  0.00    +0.000 A 
ENDBRANCH  13  14
ENDBRANCH  12  13
ENDBRANCH   1  12
TORSDOF 3
ENDMDL
MODEL 9
REMARK VINA RESULT:      -7.7      1.416      2.371
REMARK  Name = 
REMARK  3 active torsions:
REMARK  status: ('A' for Active; 'I' for Inactive)
REMARK    1  A    between atoms: C_2  and  C_3
REMARK    2  A    between atoms: C_2  and  C_10
REMARK    3  A    between atoms: C_3  and  N_4
REMARK                            x       y       z     vdW  Elec       q    Type
REMARK                         _______ _______ _______ _____ _____    ______ ____
ROOT
ATOM      1  C   UNL     1       2.788   4.750  18.947  0.00  0.00    +0.000 C 
ATOM      2  C   UNL     1       1.598   4.874  19.923  0.00  0.00    +0.000 C 
ATOM      3  C   UNL     1       1.104   3.472  20.351  0.00  0.00    +0.000 C 
ATOM      4  C   UNL     1       0.682   2.669  19.108  0.00  0.00    +0.000 C 
ATOM      5  C   UNL     1       1.879   2.505  18.157  0.00  0.00    +0.000 C 
ATOM      6  C   UNL     1       3.034   1.789  18.867  0.00  0.00    +0.000 C 
ATOM      7  C   UNL     1       3.448   2.581  20.116  0.00  0.00    +0.000 C 
ATOM      8  C   UNL     1       2.240   2.710  21.058  0.00  0.00    +0.000 C 
ATOM      9  C   UNL     1       3.916   3.985  19.694  0.00  0.00    +0.000 C 
ATOM     10  C   UNL     1       2.347   3.897  17.730  0.00  0.00    +0.000 C 
ENDROOT
BRANCH   1  12
ATOM     11  O   UNL     1       2.550   7.024  18.117  0.00  0.00    +0.000 OA
ATOM     12  C   UNL     1       3.323   6.119  18.449  0.00  0.00    +0.000 C 
BRANCH  12  13
ATOM     13  C   UNL     1       4.822   6.361  18.471  0.00  0.00    +0.000 C 
BRANCH  13  14
ATOM     14  N   UNL     1       5.530   5.777  17.307  0.00  0.00    +0.000 N 
ATOM     15  C   UNL     1       5.037   5.948  16.060  0.00  0.00    +0.000 A 
ATOM     16  C   UNL     1       5.654   5.343  14.966  0.00  0.00    +0.000 A 
ATOM     17  C   UNL     1       6.785   4.560  15.161  0.00  0.00    +0.000 A 
ATOM     18  C   UNL     1       7.289   4.407  16.444  0.00  0.00    +0.000 A 
ATOM     19  C   UNL     1       6.644   5.027  17.505  0.00  0.00    +0.000 A 
ENDBRANCH  13  14
ENDBRANCH  12  13
ENDBRANCH   1  12
TORSDOF 3
ENDMDL
