MODEL 1
REMARK VINA RESULT:      -8.4      0.000      0.000
REMARK  Name = 
REMARK  14 active torsions:
REMARK  status: ('A' for Active; 'I' for Inactive)
REMARK    1  A    between atoms: C_1  and  C_2
REMARK    2  A    between atoms: C_2  and  C_3
REMARK    3  A    between atoms: C_3  and  C_4
REMARK    4  A    between atoms: C_4  and  C_5
REMARK    5  A    between atoms: C_5  and  C_6
REMARK    6  A    between atoms: C_6  and  C_7
REMARK    7  A    between atoms: C_7  and  C_8
REMARK    8  A    between atoms: C_8  and  C_9
REMARK    9  A    between atoms: C_12  and  C_13
REMARK   10  A    between atoms: N_15  and  C_16
REMARK   11  A    between atoms: N_25  and  C_26
REMARK   12  A    between atoms: C_26  and  C_27
REMARK   13  A    between atoms: C_27  and  C_28
REMARK   14  A    between atoms: C_28  and  C_29
REMARK                            x       y       z     vdW  Elec       q    Type
REMARK                         _______ _______ _______ _____ _____    ______ ____
ROOT
ATOM      1  C   UNL     1       0.215  10.300  20.150  0.00  0.00    +0.000 A 
ATOM      2  C   UNL     1      -0.437  11.056  19.159  0.00  0.00    +0.000 A 
ATOM      3  C   UNL     1      -1.491  11.981  19.454  0.00  0.00    +0.000 A 
ATOM      4  C   UNL     1      -1.848  12.131  20.815  0.00  0.00    +0.000 A 
ATOM      5  C   UNL     1      -1.026  11.532  21.787  0.00  0.00    +0.000 A 
ATOM      6  C   UNL     1      -0.025  10.618  21.465  0.00  0.00    +0.000 A 
ATOM      7  N   UNL     1      -1.425  11.783  23.040  0.00  0.00    +0.000 NA
ATOM      8  C   UNL     1      -2.631  12.199  22.891  0.00  0.00    +0.000 A 
ATOM      9  N   UNL     1      -3.585  11.926  23.796  0.00  0.00    +0.000 N 
ATOM     10  N   UNL     1      -2.897  12.659  21.604  0.00  0.00    +0.000 N 
ATOM     11  H   UNL     1      -3.180  11.321  24.522  0.00  0.00    +0.000 HD
ATOM     12  H   UNL     1      -3.984  12.724  24.274  0.00  0.00    +0.000 HD
ENDROOT
BRANCH   1  15
ATOM     13  C   UNL     1       1.789   8.992  18.766  0.00  0.00    +0.000 C 
ATOM     14  O   UNL     1       1.831   9.768  17.835  0.00  0.00    +0.000 OA
ATOM     15  N   UNL     1       1.037   9.177  19.935  0.00  0.00    +0.000 N 
ATOM     16  H   UNL     1       0.936   8.403  20.568  0.00  0.00    +0.000 HD
BRANCH  13  20
ATOM     17  C   UNL     1       4.113   5.439  18.148  0.00  0.00    +0.000 A 
ATOM     18  C   UNL     1       4.143   6.507  17.248  0.00  0.00    +0.000 A 
ATOM     19  C   UNL     1       3.395   7.651  17.482  0.00  0.00    +0.000 A 
ATOM     20  C   UNL     1       2.570   7.736  18.635  0.00  0.00    +0.000 A 
ATOM     21  C   UNL     1       2.506   6.653  19.513  0.00  0.00    +0.000 A 
ATOM     22  C   UNL     1       3.275   5.512  19.271  0.00  0.00    +0.000 A 
BRANCH  17  23
ATOM     23  C   UNL     1       4.969   4.227  17.906  0.00  0.00    +0.000 C 
BRANCH  23  24
ATOM     24  C   UNL     1       5.182   3.969  16.414  0.00  0.00    +0.000 C 
BRANCH  24  25
ATOM     25  C   UNL     1       6.607   4.327  16.016  0.00  0.00    +0.000 C 
BRANCH  25  26
ATOM     26  C   UNL     1       6.670   4.801  14.569  0.00  0.00    +0.000 C 
BRANCH  26  27
ATOM     27  C   UNL     1       5.698   4.003  13.707  0.00  0.00    +0.000 C 
BRANCH  27  28
ATOM     28  C   UNL     1       6.404   3.436  12.481  0.00  0.00    +0.000 C 
BRANCH  28  30
ATOM     29  C   UNL     1       4.145   3.308  11.405  0.00  0.00    +0.000 C 
ATOM     30  C   UNL     1       5.456   2.581  11.648  0.00  0.00    +0.000 C 
ENDBRANCH  28  30
ENDBRANCH  27  28
ENDBRANCH  26  27
ENDBRANCH  25  26
ENDBRANCH  24  25
ENDBRANCH  23  24
ENDBRANCH  17  23
ENDBRANCH  13  20
ENDBRANCH   1  15
BRANCH  10  31
ATOM     31  C   UNL     1      -4.228  13.139  21.218  0.00  0.00    +0.000 C 
BRANCH  31  32
ATOM     32  C   UNL     1      -4.666  13.122  19.712  0.00  0.00    +0.000 C 
BRANCH  32  33
ATOM     33  C   UNL     1      -5.152  11.734  19.286  0.00  0.00    +0.000 C 
BRANCH  33  34
ATOM     34  C   UNL     1      -4.510  11.091  18.078  0.00  0.00    +0.000 A 
ATOM     35  C   UNL     1      -4.608  11.760  16.845  0.00  0.00    +0.000 A 
ATOM     36  C   UNL     1      -3.981  11.258  15.705  0.00  0.00    +0.000 A 
ATOM     37  C   UNL     1      -3.236  10.088  15.788  0.00  0.00    +0.000 A 
ATOM     38  C   UNL     1      -3.099   9.431  17.011  0.00  0.00    +0.000 A 
ATOM     39  C   UNL     1      -3.729   9.934  18.153  0.00  0.00    +0.000 A 
ENDBRANCH  33  34
ENDBRANCH  32  33
ENDBRANCH  31  32
ENDBRANCH  10  31
TORSDOF 13
ENDMDL
MODEL 2
REMARK VINA RESULT:      -8.0      2.671     10.494
REMARK  Name = 
REMARK  14 active torsions:
REMARK  status: ('A' for Active; 'I' for Inactive)
REMARK    1  A    between atoms: C_1  and  C_2
REMARK    2  A    between atoms: C_2  and  C_3
REMARK    3  A    between atoms: C_3  and  C_4
REMARK    4  A    between atoms: C_4  and  C_5
REMARK    5  A    between atoms: C_5  and  C_6
REMARK    6  A    between atoms: C_6  and  C_7
REMARK    7  A    between atoms: C_7  and  C_8
REMARK    8  A    between atoms: C_8  and  C_9
REMARK    9  A    between atoms: C_12  and  C_13
REMARK   10  A    between atoms: N_15  and  C_16
REMARK   11  A    between atoms: N_25  and  C_26
REMARK   12  A    between atoms: C_26  and  C_27
REMARK   13  A    between atoms: C_27  and  C_28
REMARK   14  A    between atoms: C_28  and  C_29
REMARK                            x       y       z     vdW  Elec       q    Type
REMARK                         _______ _______ _______ _____ _____    ______ ____
ROOT
ATOM      1  C   UNL     1       2.251   7.939  19.043  0.00  0.00    +0.000 A 
ATOM      2  C   UNL     1       2.333   6.696  19.696  0.00  0.00    +0.000 A 
ATOM      3  C   UNL     1       3.201   5.643  19.257  0.00  0.00    +0.000 A 
ATOM      4  C   UNL     1       4.012   5.911  18.130  0.00  0.00    +0.000 A 
ATOM      5  C   UNL     1       4.066   7.232  17.649  0.00  0.00    +0.000 A 
ATOM      6  C   UNL     1       3.189   8.225  18.082  0.00  0.00    +0.000 A 
ATOM      7  N   UNL     1       4.904   7.383  16.616  0.00  0.00    +0.000 NA
ATOM      8  C   UNL     1       5.097   6.179  16.211  0.00  0.00    +0.000 A 
ATOM      9  N   UNL     1       5.269   5.895  14.910  0.00  0.00    +0.000 N 
ATOM     10  N   UNL     1       4.800   5.221  17.177  0.00  0.00    +0.000 N 
ATOM     11  H   UNL     1       5.161   6.763  14.371  0.00  0.00    +0.000 HD
ATOM     12  H   UNL     1       6.169   5.508  14.656  0.00  0.00    +0.000 HD
ENDROOT
BRANCH   1  15
ATOM     13  C   UNL     1       0.899   9.439  20.466  0.00  0.00    +0.000 C 
ATOM     14  O   UNL     1       1.434   9.152  21.515  0.00  0.00    +0.000 OA
ATOM     15  N   UNL     1       1.241   8.905  19.215  0.00  0.00    +0.000 N 
ATOM     16  H   UNL     1       0.629   9.077  18.436  0.00  0.00    +0.000 HD
BRANCH  13  20
ATOM     17  C   UNL     1      -2.352  12.238  20.367  0.00  0.00    +0.000 A 
ATOM     18  C   UNL     1      -1.885  11.607  19.211  0.00  0.00    +0.000 A 
ATOM     19  C   UNL     1      -0.844  10.693  19.276  0.00  0.00    +0.000 A 
ATOM     20  C   UNL     1      -0.226  10.407  20.522  0.00  0.00    +0.000 A 
ATOM     21  C   UNL     1      -0.663  11.069  21.671  0.00  0.00    +0.000 A 
ATOM     22  C   UNL     1      -1.721  11.978  21.593  0.00  0.00    +0.000 A 
BRANCH  17  23
ATOM     23  C   UNL     1      -3.514  13.189  20.288  0.00  0.00    +0.000 C 
BRANCH  23  24
ATOM     24  C   UNL     1      -4.715  12.690  21.091  0.00  0.00    +0.000 C 
BRANCH  24  25
ATOM     25  C   UNL     1      -5.965  12.687  20.223  0.00  0.00    +0.000 C 
BRANCH  25  26
ATOM     26  C   UNL     1      -5.606  12.762  18.745  0.00  0.00    +0.000 C 
BRANCH  26  27
ATOM     27  C   UNL     1      -5.982  11.463  18.040  0.00  0.00    +0.000 C 
BRANCH  27  28
ATOM     28  C   UNL     1      -4.736  10.660  17.688  0.00  0.00    +0.000 C 
BRANCH  28  30
ATOM     29  C   UNL     1      -3.054  10.149  15.902  0.00  0.00    +0.000 C 
ATOM     30  C   UNL     1      -4.194  11.061  16.320  0.00  0.00    +0.000 C 
ENDBRANCH  28  30
ENDBRANCH  27  28
ENDBRANCH  26  27
ENDBRANCH  25  26
ENDBRANCH  24  25
ENDBRANCH  23  24
ENDBRANCH  17  23
ENDBRANCH  13  20
ENDBRANCH   1  15
BRANCH  10  31
ATOM     31  C   UNL     1       4.915   3.786  16.900  0.00  0.00    +0.000 C 
BRANCH  31  32
ATOM     32  C   UNL     1       3.628   2.893  16.814  0.00  0.00    +0.000 C 
BRANCH  32  33
ATOM     33  C   UNL     1       3.562   1.894  17.972  0.00  0.00    +0.000 C 
BRANCH  33  34
ATOM     34  C   UNL     1       2.708   2.241  19.169  0.00  0.00    +0.000 A 
ATOM     35  C   UNL     1       3.341   2.351  20.420  0.00  0.00    +0.000 A 
ATOM     36  C   UNL     1       2.627   2.734  21.554  0.00  0.00    +0.000 A 
ATOM     37  C   UNL     1       1.272   3.028  21.448  0.00  0.00    +0.000 A 
ATOM     38  C   UNL     1       0.637   2.958  20.208  0.00  0.00    +0.000 A 
ATOM     39  C   UNL     1       1.354   2.572  19.072  0.00  0.00    +0.000 A 
ENDBRANCH  33  34
ENDBRANCH  32  33
ENDBRANCH  31  32
ENDBRANCH  10  31
TORSDOF 13
ENDMDL
MODEL 3
REMARK VINA RESULT:      -8.0      2.307      3.610
REMARK  Name = 
REMARK  14 active torsions:
REMARK  status: ('A' for Active; 'I' for Inactive)
REMARK    1  A    between atoms: C_1  and  C_2
REMARK    2  A    between atoms: C_2  and  C_3
REMARK    3  A    between atoms: C_3  and  C_4
REMARK    4  A    between atoms: C_4  and  C_5
REMARK    5  A    between atoms: C_5  and  C_6
REMARK    6  A    between atoms: C_6  and  C_7
REMARK    7  A    between atoms: C_7  and  C_8
REMARK    8  A    between atoms: C_8  and  C_9
REMARK    9  A    between atoms: C_12  and  C_13
REMARK   10  A    between atoms: N_15  and  C_16
REMARK   11  A    between atoms: N_25  and  C_26
REMARK   12  A    between atoms: C_26  and  C_27
REMARK   13  A    between atoms: C_27  and  C_28
REMARK   14  A    between atoms: C_28  and  C_29
REMARK                            x       y       z     vdW  Elec       q    Type
REMARK                         _______ _______ _______ _____ _____    ______ ____
ROOT
ATOM      1  C   UNL     1       0.283  11.227  20.210  0.00  0.00    +0.000 A 
ATOM      2  C   UNL     1      -0.159  12.188  19.284  0.00  0.00    +0.000 A 
ATOM      3  C   UNL     1      -1.277  13.051  19.531  0.00  0.00    +0.000 A 
ATOM      4  C   UNL     1      -1.923  12.917  20.782  0.00  0.00    +0.000 A 
ATOM      5  C   UNL     1      -1.315  12.110  21.761  0.00  0.00    +0.000 A 
ATOM      6  C   UNL     1      -0.244  11.264  21.479  0.00  0.00    +0.000 A 
ATOM      7  N   UNL     1      -1.982  12.099  22.922  0.00  0.00    +0.000 NA
ATOM      8  C   UNL     1      -3.139  12.560  22.605  0.00  0.00    +0.000 A 
ATOM      9  N   UNL     1      -4.258  12.120  23.203  0.00  0.00    +0.000 N 
ATOM     10  N   UNL     1      -3.132  13.287  21.418  0.00  0.00    +0.000 N 
ATOM     11  H   UNL     1      -4.003  11.369  23.856  0.00  0.00    +0.000 HD
ATOM     12  H   UNL     1      -4.772  12.807  23.740  0.00  0.00    +0.000 HD
ENDROOT
BRANCH   1  15
ATOM     13  C   UNL     1       1.158   9.442  18.742  0.00  0.00    +0.000 C 
ATOM     14  O   UNL     1       0.426   9.667  17.802  0.00  0.00    +0.000 OA
ATOM     15  N   UNL     1       1.162  10.159  19.948  0.00  0.00    +0.000 N 
ATOM     16  H   UNL     1       1.684   9.789  20.724  0.00  0.00    +0.000 HD
BRANCH  13  20
ATOM     17  C   UNL     1       3.819   6.080  18.616  0.00  0.00    +0.000 A 
ATOM     18  C   UNL     1       2.993   6.328  19.716  0.00  0.00    +0.000 A 
ATOM     19  C   UNL     1       2.130   7.413  19.722  0.00  0.00    +0.000 A 
ATOM     20  C   UNL     1       2.095   8.298  18.612  0.00  0.00    +0.000 A 
ATOM     21  C   UNL     1       2.950   8.076  17.531  0.00  0.00    +0.000 A 
ATOM     22  C   UNL     1       3.805   6.972  17.534  0.00  0.00    +0.000 A 
BRANCH  17  23
ATOM     23  C   UNL     1       4.714   4.871  18.605  0.00  0.00    +0.000 C 
BRANCH  23  24
ATOM     24  C   UNL     1       3.917   3.573  18.478  0.00  0.00    +0.000 C 
BRANCH  24  25
ATOM     25  C   UNL     1       2.842   3.716  17.410  0.00  0.00    +0.000 C 
BRANCH  25  26
ATOM     26  C   UNL     1       1.450   3.717  18.028  0.00  0.00    +0.000 C 
BRANCH  26  27
ATOM     27  C   UNL     1       1.048   2.303  18.434  0.00  0.00    +0.000 C 
BRANCH  27  28
ATOM     28  C   UNL     1       1.312   2.073  19.917  0.00  0.00    +0.000 C 
BRANCH  28  30
ATOM     29  C   UNL     1       2.174   3.523  21.770  0.00  0.00    +0.000 C 
ATOM     30  C   UNL     1       1.091   3.351  20.719  0.00  0.00    +0.000 C 
ENDBRANCH  28  30
ENDBRANCH  27  28
ENDBRANCH  26  27
ENDBRANCH  25  26
ENDBRANCH  24  25
ENDBRANCH  23  24
ENDBRANCH  17  23
ENDBRANCH  13  20
ENDBRANCH   1  15
BRANCH  10  31
ATOM     31  C   UNL     1      -4.361  13.863  20.861  0.00  0.00    +0.000 C 
BRANCH  31  32
ATOM     32  C   UNL     1      -4.930  13.341  19.496  0.00  0.00    +0.000 C 
BRANCH  32  33
ATOM     33  C   UNL     1      -4.770  11.824  19.367  0.00  0.00    +0.000 C 
BRANCH  33  34
ATOM     34  C   UNL     1      -4.165  11.274  18.096  0.00  0.00    +0.000 A 
ATOM     35  C   UNL     1      -3.220  10.239  18.210  0.00  0.00    +0.000 A 
ATOM     36  C   UNL     1      -2.673   9.639  17.077  0.00  0.00    +0.000 A 
ATOM     37  C   UNL     1      -3.077  10.056  15.814  0.00  0.00    +0.000 A 
ATOM     38  C   UNL     1      -4.040  11.057  15.683  0.00  0.00    +0.000 A 
ATOM     39  C   UNL     1      -4.587  11.659  16.820  0.00  0.00    +0.000 A 
ENDBRANCH  33  34
ENDBRANCH  32  33
ENDBRANCH  31  32
ENDBRANCH  10  31
TORSDOF 13
ENDMDL
MODEL 4
REMARK VINA RESULT:      -7.9      2.257      3.778
REMARK  Name = 
REMARK  14 active torsions:
REMARK  status: ('A' for Active; 'I' for Inactive)
REMARK    1  A    between atoms: C_1  and  C_2
REMARK    2  A    between atoms: C_2  and  C_3
REMARK    3  A    between atoms: C_3  and  C_4
REMARK    4  A    between atoms: C_4  and  C_5
REMARK    5  A    between atoms: C_5  and  C_6
REMARK    6  A    between atoms: C_6  and  C_7
REMARK    7  A    between atoms: C_7  and  C_8
REMARK    8  A    between atoms: C_8  and  C_9
REMARK    9  A    between atoms: C_12  and  C_13
REMARK   10  A    between atoms: N_15  and  C_16
REMARK   11  A    between atoms: N_25  and  C_26
REMARK   12  A    between atoms: C_26  and  C_27
REMARK   13  A    between atoms: C_27  and  C_28
REMARK   14  A    between atoms: C_28  and  C_29
REMARK                            x       y       z     vdW  Elec       q    Type
REMARK                         _______ _______ _______ _____ _____    ______ ____
ROOT
ATOM      1  C   UNL     1       0.844  10.417  18.474  0.00  0.00    +0.000 A 
ATOM      2  C   UNL     1      -0.502  10.376  18.880  0.00  0.00    +0.000 A 
ATOM      3  C   UNL     1      -1.115  11.418  19.650  0.00  0.00    +0.000 A 
ATOM      4  C   UNL     1      -0.305  12.531  19.978  0.00  0.00    +0.000 A 
ATOM      5  C   UNL     1       0.957  12.637  19.366  0.00  0.00    +0.000 A 
ATOM      6  C   UNL     1       1.532  11.594  18.643  0.00  0.00    +0.000 A 
ATOM      7  N   UNL     1       1.614  13.753  19.704  0.00  0.00    +0.000 NA
ATOM      8  C   UNL     1       0.990  14.160  20.752  0.00  0.00    +0.000 A 
ATOM      9  N   UNL     1       1.634  14.771  21.760  0.00  0.00    +0.000 N 
ATOM     10  N   UNL     1      -0.296  13.637  20.860  0.00  0.00    +0.000 N 
ATOM     11  H   UNL     1       2.639  14.778  21.546  0.00  0.00    +0.000 HD
ATOM     12  H   UNL     1       1.368  15.731  21.937  0.00  0.00    +0.000 HD
ENDROOT
BRANCH   1  15
ATOM     13  C   UNL     1       2.016   8.264  18.785  0.00  0.00    +0.000 C 
ATOM     14  O   UNL     1       1.764   8.140  19.965  0.00  0.00    +0.000 OA
ATOM     15  N   UNL     1       1.598   9.335  17.981  0.00  0.00    +0.000 N 
ATOM     16  H   UNL     1       1.999   9.431  17.064  0.00  0.00    +0.000 HD
BRANCH  13  20
ATOM     17  C   UNL     1       4.311   5.053  17.102  0.00  0.00    +0.000 A 
ATOM     18  C   UNL     1       3.147   4.822  17.840  0.00  0.00    +0.000 A 
ATOM     19  C   UNL     1       2.415   5.880  18.358  0.00  0.00    +0.000 A 
ATOM     20  C   UNL     1       2.859   7.215  18.159  0.00  0.00    +0.000 A 
ATOM     21  C   UNL     1       4.045   7.445  17.458  0.00  0.00    +0.000 A 
ATOM     22  C   UNL     1       4.764   6.370  16.932  0.00  0.00    +0.000 A 
BRANCH  17  23
ATOM     23  C   UNL     1       5.065   3.897  16.506  0.00  0.00    +0.000 C 
BRANCH  23  24
ATOM     24  C   UNL     1       6.544   4.229  16.298  0.00  0.00    +0.000 C 
BRANCH  24  25
ATOM     25  C   UNL     1       6.826   4.478  14.824  0.00  0.00    +0.000 C 
BRANCH  25  26
ATOM     26  C   UNL     1       5.715   3.910  13.950  0.00  0.00    +0.000 C 
BRANCH  26  27
ATOM     27  C   UNL     1       6.256   3.547  12.571  0.00  0.00    +0.000 C 
BRANCH  27  28
ATOM     28  C   UNL     1       5.244   2.710  11.798  0.00  0.00    +0.000 C 
BRANCH  28  30
ATOM     29  C   UNL     1       2.997   3.104  10.760  0.00  0.00    +0.000 C 
ATOM     30  C   UNL     1       4.440   3.574  10.833  0.00  0.00    +0.000 C 
ENDBRANCH  28  30
ENDBRANCH  27  28
ENDBRANCH  26  27
ENDBRANCH  25  26
ENDBRANCH  24  25
ENDBRANCH  23  24
ENDBRANCH  17  23
ENDBRANCH  13  20
ENDBRANCH   1  15
BRANCH  10  31
ATOM     31  C   UNL     1      -1.158  13.947  22.005  0.00  0.00    +0.000 C 
BRANCH  31  32
ATOM     32  C   UNL     1      -1.242  12.958  23.220  0.00  0.00    +0.000 C 
BRANCH  32  33
ATOM     33  C   UNL     1      -2.424  11.996  23.078  0.00  0.00    +0.000 C 
BRANCH  33  34
ATOM     34  C   UNL     1      -3.797  12.580  22.833  0.00  0.00    +0.000 A 
ATOM     35  C   UNL     1      -4.447  13.207  23.911  0.00  0.00    +0.000 A 
ATOM     36  C   UNL     1      -5.685  13.826  23.739  0.00  0.00    +0.000 A 
ATOM     37  C   UNL     1      -6.280  13.838  22.483  0.00  0.00    +0.000 A 
ATOM     38  C   UNL     1      -5.631  13.252  21.396  0.00  0.00    +0.000 A 
ATOM     39  C   UNL     1      -4.391  12.630  21.569  0.00  0.00    +0.000 A 
ENDBRANCH  33  34
ENDBRANCH  32  33
ENDBRANCH  31  32
ENDBRANCH  10  31
TORSDOF 13
ENDMDL
MODEL 5
REMARK VINA RESULT:      -7.9      2.639      3.978
REMARK  Name = 
REMARK  14 active torsions:
REMARK  status: ('A' for Active; 'I' for Inactive)
REMARK    1  A    between atoms: C_1  and  C_2
REMARK    2  A    between atoms: C_2  and  C_3
REMARK    3  A    between atoms: C_3  and  C_4
REMARK    4  A    between atoms: C_4  and  C_5
REMARK    5  A    between atoms: C_5  and  C_6
REMARK    6  A    between atoms: C_6  and  C_7
REMARK    7  A    between atoms: C_7  and  C_8
REMARK    8  A    between atoms: C_8  and  C_9
REMARK    9  A    between atoms: C_12  and  C_13
REMARK   10  A    between atoms: N_15  and  C_16
REMARK   11  A    between atoms: N_25  and  C_26
REMARK   12  A    between atoms: C_26  and  C_27
REMARK   13  A    between atoms: C_27  and  C_28
REMARK   14  A    between atoms: C_28  and  C_29
REMARK                            x       y       z     vdW  Elec       q    Type
REMARK                         _______ _______ _______ _____ _____    ______ ____
ROOT
ATOM      1  C   UNL     1       0.485  10.355  19.563  0.00  0.00    +0.000 A 
ATOM      2  C   UNL     1      -0.905  10.377  19.352  0.00  0.00    +0.000 A 
ATOM      3  C   UNL     1      -1.738  11.466  19.771  0.00  0.00    +0.000 A 
ATOM      4  C   UNL     1      -1.095  12.559  20.398  0.00  0.00    +0.000 A 
ATOM      5  C   UNL     1       0.311  12.598  20.385  0.00  0.00    +0.000 A 
ATOM      6  C   UNL     1       1.090  11.511  19.994  0.00  0.00    +0.000 A 
ATOM      7  N   UNL     1       0.812  13.700  20.957  0.00  0.00    +0.000 NA
ATOM      8  C   UNL     1      -0.180  14.164  21.630  0.00  0.00    +0.000 A 
ATOM      9  N   UNL     1      -0.002  14.784  22.807  0.00  0.00    +0.000 N 
ATOM     10  N   UNL     1      -1.412  13.693  21.183  0.00  0.00    +0.000 N 
ATOM     11  H   UNL     1       0.997  14.747  23.045  0.00  0.00    +0.000 HD
ATOM     12  H   UNL     1      -0.271  15.758  22.840  0.00  0.00    +0.000 HD
ENDROOT
BRANCH   1  15
ATOM     13  C   UNL     1       2.046   8.922  18.293  0.00  0.00    +0.000 C 
ATOM     14  O   UNL     1       2.041   9.581  17.276  0.00  0.00    +0.000 OA
ATOM     15  N   UNL     1       1.326   9.231  19.456  0.00  0.00    +0.000 N 
ATOM     16  H   UNL     1       1.262   8.536  20.180  0.00  0.00    +0.000 HD
BRANCH  13  20
ATOM     17  C   UNL     1       4.304   5.281  18.525  0.00  0.00    +0.000 A 
ATOM     18  C   UNL     1       3.442   5.682  19.548  0.00  0.00    +0.000 A 
ATOM     19  C   UNL     1       2.711   6.856  19.439  0.00  0.00    +0.000 A 
ATOM     20  C   UNL     1       2.851   7.674  18.287  0.00  0.00    +0.000 A 
ATOM     21  C   UNL     1       3.744   7.296  17.282  0.00  0.00    +0.000 A 
ATOM     22  C   UNL     1       4.464   6.106  17.401  0.00  0.00    +0.000 A 
BRANCH  17  23
ATOM     23  C   UNL     1       5.052   3.981  18.637  0.00  0.00    +0.000 C 
BRANCH  23  24
ATOM     24  C   UNL     1       4.317   2.976  19.523  0.00  0.00    +0.000 C 
BRANCH  24  25
ATOM     25  C   UNL     1       3.614   1.933  18.666  0.00  0.00    +0.000 C 
BRANCH  25  26
ATOM     26  C   UNL     1       2.883   2.586  17.499  0.00  0.00    +0.000 C 
BRANCH  26  27
ATOM     27  C   UNL     1       1.563   3.188  17.969  0.00  0.00    +0.000 C 
BRANCH  27  28
ATOM     28  C   UNL     1       1.006   2.408  19.154  0.00  0.00    +0.000 C 
BRANCH  28  30
ATOM     29  C   UNL     1       1.377   2.743  21.610  0.00  0.00    +0.000 C 
ATOM     30  C   UNL     1       0.763   3.324  20.348  0.00  0.00    +0.000 C 
ENDBRANCH  28  30
ENDBRANCH  27  28
ENDBRANCH  26  27
ENDBRANCH  25  26
ENDBRANCH  24  25
ENDBRANCH  23  24
ENDBRANCH  17  23
ENDBRANCH  13  20
ENDBRANCH   1  15
BRANCH  10  31
ATOM     31  C   UNL     1      -2.665  14.071  21.843  0.00  0.00    +0.000 C 
BRANCH  31  32
ATOM     32  C   UNL     1      -3.892  14.552  20.991  0.00  0.00    +0.000 C 
BRANCH  32  33
ATOM     33  C   UNL     1      -4.971  13.469  20.904  0.00  0.00    +0.000 C 
BRANCH  33  34
ATOM     34  C   UNL     1      -5.609  13.202  19.560  0.00  0.00    +0.000 A 
ATOM     35  C   UNL     1      -6.517  14.152  19.061  0.00  0.00    +0.000 A 
ATOM     36  C   UNL     1      -7.091  14.003  17.799  0.00  0.00    +0.000 A 
ATOM     37  C   UNL     1      -6.750  12.908  17.014  0.00  0.00    +0.000 A 
ATOM     38  C   UNL     1      -5.824  11.974  17.479  0.00  0.00    +0.000 A 
ATOM     39  C   UNL     1      -5.250  12.125  18.745  0.00  0.00    +0.000 A 
ENDBRANCH  33  34
ENDBRANCH  32  33
ENDBRANCH  31  32
ENDBRANCH  10  31
TORSDOF 13
ENDMDL
MODEL 6
REMARK VINA RESULT:      -7.9      2.825      4.238
REMARK  Name = 
REMARK  14 active torsions:
REMARK  status: ('A' for Active; 'I' for Inactive)
REMARK    1  A    between atoms: C_1  and  C_2
REMARK    2  A    between atoms: C_2  and  C_3
REMARK    3  A    between atoms: C_3  and  C_4
REMARK    4  A    between atoms: C_4  and  C_5
REMARK    5  A    between atoms: C_5  and  C_6
REMARK    6  A    between atoms: C_6  and  C_7
REMARK    7  A    between atoms: C_7  and  C_8
REMARK    8  A    between atoms: C_8  and  C_9
REMARK    9  A    between atoms: C_12  and  C_13
REMARK   10  A    between atoms: N_15  and  C_16
REMARK   11  A    between atoms: N_25  and  C_26
REMARK   12  A    between atoms: C_26  and  C_27
REMARK   13  A    between atoms: C_27  and  C_28
REMARK   14  A    between atoms: C_28  and  C_29
REMARK                            x       y       z     vdW  Elec       q    Type
REMARK                         _______ _______ _______ _____ _____    ______ ____
ROOT
ATOM      1  C   UNL     1      -0.006  11.980  21.482  0.00  0.00    +0.000 A 
ATOM      2  C   UNL     1       0.025  13.379  21.345  0.00  0.00    +0.000 A 
ATOM      3  C   UNL     1      -1.006  14.234  21.856  0.00  0.00    +0.000 A 
ATOM      4  C   UNL     1      -2.072  13.609  22.544  0.00  0.00    +0.000 A 
ATOM      5  C   UNL     1      -1.952  12.242  22.854  0.00  0.00    +0.000 A 
ATOM      6  C   UNL     1      -0.950  11.435  22.319  0.00  0.00    +0.000 A 
ATOM      7  N   UNL     1      -2.991  11.767  23.552  0.00  0.00    +0.000 NA
ATOM      8  C   UNL     1      -3.898  12.662  23.382  0.00  0.00    +0.000 A 
ATOM      9  N   UNL     1      -5.198  12.338  23.297  0.00  0.00    +0.000 N 
ATOM     10  N   UNL     1      -3.382  13.897  22.996  0.00  0.00    +0.000 N 
ATOM     11  H   UNL     1      -5.280  11.315  23.333  0.00  0.00    +0.000 HD
ATOM     12  H   UNL     1      -5.794  12.702  24.030  0.00  0.00    +0.000 HD
ENDROOT
BRANCH   1  15
ATOM     13  C   UNL     1       0.268  10.184  19.807  0.00  0.00    +0.000 C 
ATOM     14  O   UNL     1      -0.894  10.141  19.462  0.00  0.00    +0.000 OA
ATOM     15  N   UNL     1       0.787  11.056  20.775  0.00  0.00    +0.000 N 
ATOM     16  H   UNL     1       1.722  10.898  21.111  0.00  0.00    +0.000 HD
BRANCH  13  20
ATOM     17  C   UNL     1       2.988   7.272  18.219  0.00  0.00    +0.000 A 
ATOM     18  C   UNL     1       2.499   7.191  19.525  0.00  0.00    +0.000 A 
ATOM     19  C   UNL     1       1.606   8.137  20.006  0.00  0.00    +0.000 A 
ATOM     20  C   UNL     1       1.198   9.215  19.177  0.00  0.00    +0.000 A 
ATOM     21  C   UNL     1       1.720   9.321  17.885  0.00  0.00    +0.000 A 
ATOM     22  C   UNL     1       2.608   8.354  17.410  0.00  0.00    +0.000 A 
BRANCH  17  23
ATOM     23  C   UNL     1       3.917   6.211  17.696  0.00  0.00    +0.000 C 
BRANCH  23  24
ATOM     24  C   UNL     1       4.227   5.153  18.754  0.00  0.00    +0.000 C 
BRANCH  24  25
ATOM     25  C   UNL     1       3.906   3.764  18.221  0.00  0.00    +0.000 C 
BRANCH  25  26
ATOM     26  C   UNL     1       2.473   3.691  17.709  0.00  0.00    +0.000 C 
BRANCH  26  27
ATOM     27  C   UNL     1       1.660   2.706  18.542  0.00  0.00    +0.000 C 
BRANCH  27  28
ATOM     28  C   UNL     1       0.820   3.441  19.579  0.00  0.00    +0.000 C 
BRANCH  28  30
ATOM     29  C   UNL     1       1.531   2.554  21.813  0.00  0.00    +0.000 C 
ATOM     30  C   UNL     1       1.627   3.719  20.843  0.00  0.00    +0.000 C 
ENDBRANCH  28  30
ENDBRANCH  27  28
ENDBRANCH  26  27
ENDBRANCH  25  26
ENDBRANCH  24  25
ENDBRANCH  23  24
ENDBRANCH  17  23
ENDBRANCH  13  20
ENDBRANCH   1  15
BRANCH  10  31
ATOM     31  C   UNL     1      -4.255  15.041  22.713  0.00  0.00    +0.000 C 
BRANCH  31  32
ATOM     32  C   UNL     1      -4.620  15.409  21.233  0.00  0.00    +0.000 C 
BRANCH  32  33
ATOM     33  C   UNL     1      -6.020  14.914  20.862  0.00  0.00    +0.000 C 
BRANCH  33  34
ATOM     34  C   UNL     1      -6.150  13.904  19.745  0.00  0.00    +0.000 A 
ATOM     35  C   UNL     1      -5.210  12.859  19.689  0.00  0.00    +0.000 A 
ATOM     36  C   UNL     1      -5.310  11.855  18.727  0.00  0.00    +0.000 A 
ATOM     37  C   UNL     1      -6.362  11.875  17.818  0.00  0.00    +0.000 A 
ATOM     38  C   UNL     1      -7.323  12.883  17.883  0.00  0.00    +0.000 A 
ATOM     39  C   UNL     1      -7.221  13.891  18.848  0.00  0.00    +0.000 A 
ENDBRANCH  33  34
ENDBRANCH  32  33
ENDBRANCH  31  32
ENDBRANCH  10  31
TORSDOF 13
ENDMDL
MODEL 7
REMARK VINA RESULT:      -7.8      2.542      3.258
REMARK  Name = 
REMARK  14 active torsions:
REMARK  status: ('A' for Active; 'I' for Inactive)
REMARK    1  A    between atoms: C_1  and  C_2
REMARK    2  A    between atoms: C_2  and  C_3
REMARK    3  A    between atoms: C_3  and  C_4
REMARK    4  A    between atoms: C_4  and  C_5
REMARK    5  A    between atoms: C_5  and  C_6
REMARK    6  A    between atoms: C_6  and  C_7
REMARK    7  A    between atoms: C_7  and  C_8
REMARK    8  A    between atoms: C_8  and  C_9
REMARK    9  A    between atoms: C_12  and  C_13
REMARK   10  A    between atoms: N_15  and  C_16
REMARK   11  A    between atoms: N_25  and  C_26
REMARK   12  A    between atoms: C_26  and  C_27
REMARK   13  A    between atoms: C_27  and  C_28
REMARK   14  A    between atoms: C_28  and  C_29
REMARK                            x       y       z     vdW  Elec       q    Type
REMARK                         _______ _______ _______ _____ _____    ______ ____
ROOT
ATOM      1  C   UNL     1      -0.069  11.036  20.109  0.00  0.00    +0.000 A 
ATOM      2  C   UNL     1      -0.433  11.845  19.018  0.00  0.00    +0.000 A 
ATOM      3  C   UNL     1      -1.567  12.722  19.044  0.00  0.00    +0.000 A 
ATOM      4  C   UNL     1      -2.314  12.765  20.244  0.00  0.00    +0.000 A 
ATOM      5  C   UNL     1      -1.789  12.117  21.377  0.00  0.00    +0.000 A 
ATOM      6  C   UNL     1      -0.698  11.252  21.311  0.00  0.00    +0.000 A 
ATOM      7  N   UNL     1      -2.549  12.268  22.469  0.00  0.00    +0.000 NA
ATOM      8  C   UNL     1      -3.676  12.663  21.995  0.00  0.00    +0.000 A 
ATOM      9  N   UNL     1      -4.841  12.303  22.558  0.00  0.00    +0.000 N 
ATOM     10  N   UNL     1      -3.572  13.209  20.718  0.00  0.00    +0.000 N 
ATOM     11  H   UNL     1      -4.640  11.658  23.333  0.00  0.00    +0.000 HD
ATOM     12  H   UNL     1      -5.397  13.055  22.945  0.00  0.00    +0.000 HD
ENDROOT
BRANCH   1  15
ATOM     13  C   UNL     1       1.154   9.259  18.903  0.00  0.00    +0.000 C 
ATOM     14  O   UNL     1       0.723   9.521  17.800  0.00  0.00    +0.000 OA
ATOM     15  N   UNL     1       0.830   9.952  20.079  0.00  0.00    +0.000 N 
ATOM     16  H   UNL     1       1.103   9.554  20.961  0.00  0.00    +0.000 HD
BRANCH  13  20
ATOM     17  C   UNL     1       3.855   5.927  18.972  0.00  0.00    +0.000 A 
ATOM     18  C   UNL     1       3.766   6.783  17.871  0.00  0.00    +0.000 A 
ATOM     19  C   UNL     1       2.896   7.863  17.883  0.00  0.00    +0.000 A 
ATOM     20  C   UNL     1       2.068   8.095  19.014  0.00  0.00    +0.000 A 
ATOM     21  C   UNL     1       2.126   7.216  20.097  0.00  0.00    +0.000 A 
ATOM     22  C   UNL     1       3.015   6.140  20.076  0.00  0.00    +0.000 A 
BRANCH  17  23
ATOM     23  C   UNL     1       4.838   4.789  18.962  0.00  0.00    +0.000 C 
BRANCH  23  24
ATOM     24  C   UNL     1       4.169   3.460  18.611  0.00  0.00    +0.000 C 
BRANCH  24  25
ATOM     25  C   UNL     1       4.230   2.509  19.798  0.00  0.00    +0.000 C 
BRANCH  25  26
ATOM     26  C   UNL     1       3.240   2.920  20.881  0.00  0.00    +0.000 C 
BRANCH  26  27
ATOM     27  C   UNL     1       1.885   2.266  20.637  0.00  0.00    +0.000 C 
BRANCH  27  28
ATOM     28  C   UNL     1       0.924   3.247  19.976  0.00  0.00    +0.000 C 
BRANCH  28  30
ATOM     29  C   UNL     1       1.055   4.097  17.622  0.00  0.00    +0.000 C 
ATOM     30  C   UNL     1       0.719   2.907  18.504  0.00  0.00    +0.000 C 
ENDBRANCH  28  30
ENDBRANCH  27  28
ENDBRANCH  26  27
ENDBRANCH  25  26
ENDBRANCH  24  25
ENDBRANCH  23  24
ENDBRANCH  17  23
ENDBRANCH  13  20
ENDBRANCH   1  15
BRANCH  10  31
ATOM     31  C   UNL     1      -4.750  13.683  19.985  0.00  0.00    +0.000 C 
BRANCH  31  32
ATOM     32  C   UNL     1      -5.503  12.725  18.997  0.00  0.00    +0.000 C 
BRANCH  32  33
ATOM     33  C   UNL     1      -4.913  11.313  19.028  0.00  0.00    +0.000 C 
BRANCH  33  34
ATOM     34  C   UNL     1      -4.206  10.806  17.792  0.00  0.00    +0.000 A 
ATOM     35  C   UNL     1      -4.469  11.452  16.570  0.00  0.00    +0.000 A 
ATOM     36  C   UNL     1      -3.801  11.081  15.405  0.00  0.00    +0.000 A 
ATOM     37  C   UNL     1      -2.849  10.069  15.449  0.00  0.00    +0.000 A 
ATOM     38  C   UNL     1      -2.550   9.443  16.659  0.00  0.00    +0.000 A 
ATOM     39  C   UNL     1      -3.221   9.815  17.827  0.00  0.00    +0.000 A 
ENDBRANCH  33  34
ENDBRANCH  32  33
ENDBRANCH  31  32
ENDBRANCH  10  31
TORSDOF 13
ENDMDL
MODEL 8
REMARK VINA RESULT:      -7.8      2.879     10.690
REMARK  Name = 
REMARK  14 active torsions:
REMARK  status: ('A' for Active; 'I' for Inactive)
REMARK    1  A    between atoms: C_1  and  C_2
REMARK    2  A    between atoms: C_2  and  C_3
REMARK    3  A    between atoms: C_3  and  C_4
REMARK    4  A    between atoms: C_4  and  C_5
REMARK    5  A    between atoms: C_5  and  C_6
REMARK    6  A    between atoms: C_6  and  C_7
REMARK    7  A    between atoms: C_7  and  C_8
REMARK    8  A    between atoms: C_8  and  C_9
REMARK    9  A    between atoms: C_12  and  C_13
REMARK   10  A    between atoms: N_15  and  C_16
REMARK   11  A    between atoms: N_25  and  C_26
REMARK   12  A    between atoms: C_26  and  C_27
REMARK   13  A    between atoms: C_27  and  C_28
REMARK   14  A    between atoms: C_28  and  C_29
REMARK                            x       y       z     vdW  Elec       q    Type
REMARK                         _______ _______ _______ _____ _____    ______ ____
ROOT
ATOM      1  C   UNL     1       2.424   7.709  19.017  0.00  0.00    +0.000 A 
ATOM      2  C   UNL     1       2.641   6.537  19.763  0.00  0.00    +0.000 A 
ATOM      3  C   UNL     1       3.525   5.493  19.333  0.00  0.00    +0.000 A 
ATOM      4  C   UNL     1       4.210   5.698  18.112  0.00  0.00    +0.000 A 
ATOM      5  C   UNL     1       4.140   6.971  17.517  0.00  0.00    +0.000 A 
ATOM      6  C   UNL     1       3.251   7.954  17.946  0.00  0.00    +0.000 A 
ATOM      7  N   UNL     1       4.868   7.069  16.398  0.00  0.00    +0.000 NA
ATOM      8  C   UNL     1       5.093   5.845  16.080  0.00  0.00    +0.000 A 
ATOM      9  N   UNL     1       5.160   5.452  14.798  0.00  0.00    +0.000 N 
ATOM     10  N   UNL     1       4.945   4.966  17.150  0.00  0.00    +0.000 N 
ATOM     11  H   UNL     1       4.951   6.261  14.200  0.00  0.00    +0.000 HD
ATOM     12  H   UNL     1       6.054   5.090  14.491  0.00  0.00    +0.000 HD
ENDROOT
BRANCH   1  15
ATOM     13  C   UNL     1       1.258   9.813  18.452  0.00  0.00    +0.000 C 
ATOM     14  O   UNL     1       2.011  10.152  17.565  0.00  0.00    +0.000 OA
ATOM     15  N   UNL     1       1.379   8.634  19.203  0.00  0.00    +0.000 N 
ATOM     16  H   UNL     1       0.809   8.527  20.024  0.00  0.00    +0.000 HD
BRANCH  13  20
ATOM     17  C   UNL     1      -2.124  12.307  19.315  0.00  0.00    +0.000 A 
ATOM     18  C   UNL     1      -2.271  10.997  18.855  0.00  0.00    +0.000 A 
ATOM     19  C   UNL     1      -1.160  10.207  18.601  0.00  0.00    +0.000 A 
ATOM     20  C   UNL     1       0.145  10.736  18.787  0.00  0.00    +0.000 A 
ATOM     21  C   UNL     1       0.294  12.060  19.206  0.00  0.00    +0.000 A 
ATOM     22  C   UNL     1      -0.835  12.839  19.470  0.00  0.00    +0.000 A 
BRANCH  17  23
ATOM     23  C   UNL     1      -3.339  13.134  19.633  0.00  0.00    +0.000 C 
BRANCH  23  24
ATOM     24  C   UNL     1      -3.962  12.740  20.973  0.00  0.00    +0.000 C 
BRANCH  24  25
ATOM     25  C   UNL     1      -3.794  13.866  21.983  0.00  0.00    +0.000 C 
BRANCH  25  26
ATOM     26  C   UNL     1      -2.716  13.528  23.006  0.00  0.00    +0.000 C 
BRANCH  26  27
ATOM     27  C   UNL     1      -2.471  12.023  23.042  0.00  0.00    +0.000 C 
BRANCH  27  28
ATOM     28  C   UNL     1      -0.988  11.714  22.879  0.00  0.00    +0.000 C 
BRANCH  28  30
ATOM     29  C   UNL     1       0.053   9.474  23.299  0.00  0.00    +0.000 C 
ATOM     30  C   UNL     1      -0.778  10.305  22.337  0.00  0.00    +0.000 C 
ENDBRANCH  28  30
ENDBRANCH  27  28
ENDBRANCH  26  27
ENDBRANCH  25  26
ENDBRANCH  24  25
ENDBRANCH  23  24
ENDBRANCH  17  23
ENDBRANCH  13  20
ENDBRANCH   1  15
BRANCH  10  31
ATOM     31  C   UNL     1       5.119   3.519  16.987  0.00  0.00    +0.000 C 
BRANCH  31  32
ATOM     32  C   UNL     1       3.866   2.582  16.868  0.00  0.00    +0.000 C 
BRANCH  32  33
ATOM     33  C   UNL     1       3.717   1.688  18.101  0.00  0.00    +0.000 C 
BRANCH  33  34
ATOM     34  C   UNL     1       2.788   2.138  19.204  0.00  0.00    +0.000 A 
ATOM     35  C   UNL     1       3.317   2.267  20.501  0.00  0.00    +0.000 A 
ATOM     36  C   UNL     1       2.534   2.743  21.551  0.00  0.00    +0.000 A 
ATOM     37  C   UNL     1       1.215   3.111  21.315  0.00  0.00    +0.000 A 
ATOM     38  C   UNL     1       0.684   3.023  20.027  0.00  0.00    +0.000 A 
ATOM     39  C   UNL     1       1.470   2.544  18.975  0.00  0.00    +0.000 A 
ENDBRANCH  33  34
ENDBRANCH  32  33
ENDBRANCH  31  32
ENDBRANCH  10  31
TORSDOF 13
ENDMDL
MODEL 9
REMARK VINA RESULT:      -7.8      1.858      3.613
REMARK  Name = 
REMARK  14 active torsions:
REMARK  status: ('A' for Active; 'I' for Inactive)
REMARK    1  A    between atoms: C_1  and  C_2
REMARK    2  A    between atoms: C_2  and  C_3
REMARK    3  A    between atoms: C_3  and  C_4
REMARK    4  A    between atoms: C_4  and  C_5
REMARK    5  A    between atoms: C_5  and  C_6
REMARK    6  A    between atoms: C_6  and  C_7
REMARK    7  A    between atoms: C_7  and  C_8
REMARK    8  A    between atoms: C_8  and  C_9
REMARK    9  A    between atoms: C_12  and  C_13
REMARK   10  A    between atoms: N_15  and  C_16
REMARK   11  A    between atoms: N_25  and  C_26
REMARK   12  A    between atoms: C_26  and  C_27
REMARK   13  A    between atoms: C_27  and  C_28
REMARK   14  A    between atoms: C_28  and  C_29
REMARK                            x       y       z     vdW  Elec       q    Type
REMARK                         _______ _______ _______ _____ _____    ______ ____
ROOT
ATOM      1  C   UNL     1       0.669   9.866  18.447  0.00  0.00    +0.000 A 
ATOM      2  C   UNL     1      -0.496  10.370  17.842  0.00  0.00    +0.000 A 
ATOM      3  C   UNL     1      -1.418  11.229  18.525  0.00  0.00    +0.000 A 
ATOM      4  C   UNL     1      -1.096  11.583  19.857  0.00  0.00    +0.000 A 
ATOM      5  C   UNL     1       0.180  11.245  20.343  0.00  0.00    +0.000 A 
ATOM      6  C   UNL     1       1.042  10.387  19.663  0.00  0.00    +0.000 A 
ATOM      7  N   UNL     1       0.397  11.674  21.593  0.00  0.00    +0.000 NA
ATOM      8  C   UNL     1      -0.783  11.941  22.026  0.00  0.00    +0.000 A 
ATOM      9  N   UNL     1      -1.122  11.742  23.310  0.00  0.00    +0.000 N 
ATOM     10  N   UNL     1      -1.709  12.139  21.005  0.00  0.00    +0.000 N 
ATOM     11  H   UNL     1      -0.322  11.317  23.794  0.00  0.00    +0.000 HD
ATOM     12  H   UNL     1      -1.370  12.571  23.835  0.00  0.00    +0.000 HD
ENDROOT
BRANCH   1  15
ATOM     13  C   UNL     1       1.973   7.798  18.800  0.00  0.00    +0.000 C 
ATOM     14  O   UNL     1       1.776   7.714  19.993  0.00  0.00    +0.000 OA
ATOM     15  N   UNL     1       1.464   8.807  17.969  0.00  0.00    +0.000 N 
ATOM     16  H   UNL     1       1.822   8.883  17.033  0.00  0.00    +0.000 HD
BRANCH  13  20
ATOM     17  C   UNL     1       4.614   5.014  16.881  0.00  0.00    +0.000 A 
ATOM     18  C   UNL     1       4.755   6.395  16.723  0.00  0.00    +0.000 A 
ATOM     19  C   UNL     1       3.897   7.273  17.370  0.00  0.00    +0.000 A 
ATOM     20  C   UNL     1       2.849   6.769  18.185  0.00  0.00    +0.000 A 
ATOM     21  C   UNL     1       2.680   5.388  18.309  0.00  0.00    +0.000 A 
ATOM     22  C   UNL     1       3.560   4.517  17.662  0.00  0.00    +0.000 A 
BRANCH  17  23
ATOM     23  C   UNL     1       5.582   4.078  16.212  0.00  0.00    +0.000 C 
BRANCH  23  24
ATOM     24  C   UNL     1       6.869   4.791  15.797  0.00  0.00    +0.000 C 
BRANCH  24  25
ATOM     25  C   UNL     1       7.015   4.775  14.282  0.00  0.00    +0.000 C 
BRANCH  25  26
ATOM     26  C   UNL     1       5.939   3.911  13.637  0.00  0.00    +0.000 C 
BRANCH  26  27
ATOM     27  C   UNL     1       6.312   3.585  12.195  0.00  0.00    +0.000 C 
BRANCH  27  28
ATOM     28  C   UNL     1       5.337   2.577  11.600  0.00  0.00    +0.000 C 
BRANCH  28  30
ATOM     29  C   UNL     1       3.657   3.808  10.205  0.00  0.00    +0.000 C 
ATOM     30  C   UNL     1       3.923   3.146  11.546  0.00  0.00    +0.000 C 
ENDBRANCH  28  30
ENDBRANCH  27  28
ENDBRANCH  26  27
ENDBRANCH  25  26
ENDBRANCH  24  25
ENDBRANCH  23  24
ENDBRANCH  17  23
ENDBRANCH  13  20
ENDBRANCH   1  15
BRANCH  10  31
ATOM     31  C   UNL     1      -3.121  12.415  21.289  0.00  0.00    +0.000 C 
BRANCH  31  32
ATOM     32  C   UNL     1      -3.782  13.745  20.785  0.00  0.00    +0.000 C 
BRANCH  32  33
ATOM     33  C   UNL     1      -5.305  13.615  20.700  0.00  0.00    +0.000 C 
BRANCH  33  34
ATOM     34  C   UNL     1      -6.109  13.771  21.970  0.00  0.00    +0.000 A 
ATOM     35  C   UNL     1      -6.681  15.027  22.238  0.00  0.00    +0.000 A 
ATOM     36  C   UNL     1      -7.490  15.223  23.356  0.00  0.00    +0.000 A 
ATOM     37  C   UNL     1      -7.751  14.160  24.212  0.00  0.00    +0.000 A 
ATOM     38  C   UNL     1      -7.221  12.898  23.942  0.00  0.00    +0.000 A 
ATOM     39  C   UNL     1      -6.408  12.703  22.821  0.00  0.00    +0.000 A 
ENDBRANCH  33  34
ENDBRANCH  32  33
ENDBRANCH  31  32
ENDBRANCH  10  31
TORSDOF 13
ENDMDL
