MODEL 1
REMARK VINA RESULT:      -7.4      0.000      0.000
REMARK  Name = 
REMARK  10 active torsions:
REMARK  status: ('A' for Active; 'I' for Inactive)
REMARK    1  A    between atoms: C_2  and  C_3
REMARK    2  A    between atoms: C_3  and  N_4
REMARK    3  A    between atoms: C_9  and  C_10
REMARK    4  A    between atoms: C_10  and  C_11
REMARK    5  A    between atoms: C_10  and  O_12
REMARK    6  A    between atoms: O_12  and  C_13
REMARK    7  A    between atoms: C_13  and  C_15
REMARK    8  A    between atoms: C_15  and  O_16
REMARK    9  A    between atoms: O_16  and  C_17
REMARK   10  A    between atoms: C_17  and  C_18
REMARK                            x       y       z     vdW  Elec       q    Type
REMARK                         _______ _______ _______ _____ _____    ______ ____
ROOT
ATOM      1  C   UNL     1       6.245   6.120  16.393  0.00  0.00    +0.000 C 
ATOM      2  C   UNL     1       5.157   6.554  15.414  0.00  0.00    +0.000 C 
ENDROOT
BRANCH   1   8
ATOM      3  N   UNL     1       2.390   3.835  19.068  0.00  0.00    +0.000 N 
ATOM      4  C   UNL     1       2.788   3.603  17.781  0.00  0.00    +0.000 C 
ATOM      5  O   UNL     1       2.087   3.041  16.943  0.00  0.00    +0.000 OA
ATOM      6  N   UNL     1       4.059   4.041  17.486  0.00  0.00    +0.000 N 
ATOM      7  C   UNL     1       4.805   3.929  16.246  0.00  0.00    +0.000 C 
ATOM      8  C   UNL     1       5.946   4.723  16.933  0.00  0.00    +0.000 C 
ATOM      9  C   UNL     1       5.062   4.628  18.203  0.00  0.00    +0.000 C 
ATOM     10  O   UNL     1       5.122   4.931  19.372  0.00  0.00    +0.000 OA
ATOM     11  H   UNL     1       2.930   4.501  19.613  0.00  0.00    +0.000 HD
BRANCH   3  12
ATOM     12  C   UNL     1       1.071   3.484  19.517  0.00  0.00    +0.000 C 
BRANCH  12  14
ATOM     13  C   UNL     1       2.315   2.883  21.613  0.00  0.00    +0.000 C 
ATOM     14  C   UNL     1       1.167   3.050  20.944  0.00  0.00    +0.000 C 
ENDBRANCH  12  14
ENDBRANCH   3  12
ENDBRANCH   1   8
BRANCH   1  15
ATOM     15  O   UNL     1       6.281   7.082  17.466  0.00  0.00    +0.000 OA
BRANCH  15  16
ATOM     16  C   UNL     1       7.526   7.281  17.993  0.00  0.00    +0.000 C 
ATOM     17  O   UNL     1       8.064   6.522  18.784  0.00  0.00    +0.000 OA
BRANCH  16  18
ATOM     18  C   UNL     1       8.151   8.561  17.449  0.00  0.00    +0.000 C 
BRANCH  18  19
ATOM     19  O   UNL     1       8.391   9.551  18.442  0.00  0.00    +0.000 OA
BRANCH  19  20
ATOM     20  C   UNL     1       8.614  10.840  17.868  0.00  0.00    +0.000 C 
BRANCH  20  21
ATOM     21  C   UNL     1       9.890  11.413  18.412  0.00  0.00    +0.000 A 
ATOM     22  C   UNL     1      10.253  11.190  19.749  0.00  0.00    +0.000 A 
ATOM     23  C   UNL     1      11.451  11.699  20.247  0.00  0.00    +0.000 A 
ATOM     24  C   UNL     1      12.295  12.431  19.413  0.00  0.00    +0.000 A 
ATOM     25  C   UNL     1      11.946  12.650  18.082  0.00  0.00    +0.000 A 
ATOM     26  C   UNL     1      10.749  12.141  17.581  0.00  0.00    +0.000 A 
ENDBRANCH  20  21
ENDBRANCH  19  20
ENDBRANCH  18  19
ENDBRANCH  16  18
ENDBRANCH  15  16
ENDBRANCH   1  15
TORSDOF 9
ENDMDL
MODEL 2
REMARK VINA RESULT:      -7.2      0.838      1.301
REMARK  Name = 
REMARK  10 active torsions:
REMARK  status: ('A' for Active; 'I' for Inactive)
REMARK    1  A    between atoms: C_2  and  C_3
REMARK    2  A    between atoms: C_3  and  N_4
REMARK    3  A    between atoms: C_9  and  C_10
REMARK    4  A    between atoms: C_10  and  C_11
REMARK    5  A    between atoms: C_10  and  O_12
REMARK    6  A    between atoms: O_12  and  C_13
REMARK    7  A    between atoms: C_13  and  C_15
REMARK    8  A    between atoms: C_15  and  O_16
REMARK    9  A    between atoms: O_16  and  C_17
REMARK   10  A    between atoms: C_17  and  C_18
REMARK                            x       y       z     vdW  Elec       q    Type
REMARK                         _______ _______ _______ _____ _____    ______ ____
ROOT
ATOM      1  C   UNL     1       6.131   6.012  16.405  0.00  0.00    +0.000 C 
ATOM      2  C   UNL     1       5.224   6.823  17.327  0.00  0.00    +0.000 C 
ENDROOT
BRANCH   1   8
ATOM      3  N   UNL     1       2.998   2.984  19.276  0.00  0.00    +0.000 N 
ATOM      4  C   UNL     1       3.140   3.016  17.917  0.00  0.00    +0.000 C 
ATOM      5  O   UNL     1       2.311   2.557  17.134  0.00  0.00    +0.000 OA
ATOM      6  N   UNL     1       4.305   3.602  17.476  0.00  0.00    +0.000 N 
ATOM      7  C   UNL     1       4.792   3.772  16.119  0.00  0.00    +0.000 C 
ATOM      8  C   UNL     1       6.010   4.522  16.716  0.00  0.00    +0.000 C 
ATOM      9  C   UNL     1       5.404   4.132  18.089  0.00  0.00    +0.000 C 
ATOM     10  O   UNL     1       5.684   4.227  19.261  0.00  0.00    +0.000 OA
ATOM     11  H   UNL     1       3.606   3.584  19.826  0.00  0.00    +0.000 HD
BRANCH   3  12
ATOM     12  C   UNL     1       1.812   2.452  19.890  0.00  0.00    +0.000 C 
BRANCH  12  14
ATOM     13  C   UNL     1       1.542   4.828  20.657  0.00  0.00    +0.000 C 
ATOM     14  C   UNL     1       1.188   3.537  20.708  0.00  0.00    +0.000 C 
ENDBRANCH  12  14
ENDBRANCH   3  12
ENDBRANCH   1   8
BRANCH   1  15
ATOM     15  O   UNL     1       7.485   6.466  16.609  0.00  0.00    +0.000 OA
BRANCH  15  16
ATOM     16  C   UNL     1       7.701   7.039  17.831  0.00  0.00    +0.000 C 
ATOM     17  O   UNL     1       8.012   6.416  18.834  0.00  0.00    +0.000 OA
BRANCH  16  18
ATOM     18  C   UNL     1       7.518   8.551  17.764  0.00  0.00    +0.000 C 
BRANCH  18  19
ATOM     19  O   UNL     1       8.740   9.276  17.680  0.00  0.00    +0.000 OA
BRANCH  19  20
ATOM     20  C   UNL     1       8.558  10.664  17.961  0.00  0.00    +0.000 C 
BRANCH  20  21
ATOM     21  C   UNL     1       9.784  11.199  18.642  0.00  0.00    +0.000 A 
ATOM     22  C   UNL     1      10.910  11.563  17.888  0.00  0.00    +0.000 A 
ATOM     23  C   UNL     1      12.039  12.085  18.517  0.00  0.00    +0.000 A 
ATOM     24  C   UNL     1      12.050  12.248  19.901  0.00  0.00    +0.000 A 
ATOM     25  C   UNL     1      10.933  11.897  20.656  0.00  0.00    +0.000 A 
ATOM     26  C   UNL     1       9.802  11.376  20.030  0.00  0.00    +0.000 A 
ENDBRANCH  20  21
ENDBRANCH  19  20
ENDBRANCH  18  19
ENDBRANCH  16  18
ENDBRANCH  15  16
ENDBRANCH   1  15
TORSDOF 9
ENDMDL
MODEL 3
REMARK VINA RESULT:      -7.1      1.455      2.037
REMARK  Name = 
REMARK  10 active torsions:
REMARK  status: ('A' for Active; 'I' for Inactive)
REMARK    1  A    between atoms: C_2  and  C_3
REMARK    2  A    between atoms: C_3  and  N_4
REMARK    3  A    between atoms: C_9  and  C_10
REMARK    4  A    between atoms: C_10  and  C_11
REMARK    5  A    between atoms: C_10  and  O_12
REMARK    6  A    between atoms: O_12  and  C_13
REMARK    7  A    between atoms: C_13  and  C_15
REMARK    8  A    between atoms: C_15  and  O_16
REMARK    9  A    between atoms: O_16  and  C_17
REMARK   10  A    between atoms: C_17  and  C_18
REMARK                            x       y       z     vdW  Elec       q    Type
REMARK                         _______ _______ _______ _____ _____    ______ ____
ROOT
ATOM      1  C   UNL     1       6.586   5.456  16.335  0.00  0.00    +0.000 C 
ATOM      2  C   UNL     1       7.255   5.082  15.015  0.00  0.00    +0.000 C 
ENDROOT
BRANCH   1   8
ATOM      3  N   UNL     1       2.297   4.888  19.254  0.00  0.00    +0.000 N 
ATOM      4  C   UNL     1       2.817   6.033  18.718  0.00  0.00    +0.000 C 
ATOM      5  O   UNL     1       2.529   7.161  19.111  0.00  0.00    +0.000 OA
ATOM      6  N   UNL     1       3.696   5.831  17.678  0.00  0.00    +0.000 N 
ATOM      7  C   UNL     1       4.398   6.808  16.865  0.00  0.00    +0.000 C 
ATOM      8  C   UNL     1       5.080   5.621  16.138  0.00  0.00    +0.000 C 
ATOM      9  C   UNL     1       4.151   4.733  17.005  0.00  0.00    +0.000 C 
ATOM     10  O   UNL     1       3.880   3.562  17.134  0.00  0.00    +0.000 OA
ATOM     11  H   UNL     1       2.760   4.012  19.029  0.00  0.00    +0.000 HD
BRANCH   3  12
ATOM     12  C   UNL     1       1.405   4.929  20.380  0.00  0.00    +0.000 C 
BRANCH  12  14
ATOM     13  C   UNL     1       1.100   2.496  19.840  0.00  0.00    +0.000 C 
ATOM     14  C   UNL     1       0.976   3.530  20.683  0.00  0.00    +0.000 C 
ENDBRANCH  12  14
ENDBRANCH   3  12
ENDBRANCH   1   8
BRANCH   1  15
ATOM     15  O   UNL     1       7.176   6.689  16.795  0.00  0.00    +0.000 OA
BRANCH  15  16
ATOM     16  C   UNL     1       7.500   6.689  18.123  0.00  0.00    +0.000 C 
ATOM     17  O   UNL     1       7.063   5.887  18.934  0.00  0.00    +0.000 OA
BRANCH  16  18
ATOM     18  C   UNL     1       8.485   7.807  18.444  0.00  0.00    +0.000 C 
BRANCH  18  19
ATOM     19  O   UNL     1       8.392   8.926  17.569  0.00  0.00    +0.000 OA
BRANCH  19  20
ATOM     20  C   UNL     1       8.071  10.128  18.271  0.00  0.00    +0.000 C 
BRANCH  20  21
ATOM     21  C   UNL     1       9.335  10.760  18.778  0.00  0.00    +0.000 A 
ATOM     22  C   UNL     1      10.401  11.013  17.901  0.00  0.00    +0.000 A 
ATOM     23  C   UNL     1      11.564  11.625  18.365  0.00  0.00    +0.000 A 
ATOM     24  C   UNL     1      11.669  11.990  19.706  0.00  0.00    +0.000 A 
ATOM     25  C   UNL     1      10.611  11.750  20.582  0.00  0.00    +0.000 A 
ATOM     26  C   UNL     1       9.447  11.140  20.119  0.00  0.00    +0.000 A 
ENDBRANCH  20  21
ENDBRANCH  19  20
ENDBRANCH  18  19
ENDBRANCH  16  18
ENDBRANCH  15  16
ENDBRANCH   1  15
TORSDOF 9
ENDMDL
MODEL 4
REMARK VINA RESULT:      -7.1      4.616      6.746
REMARK  Name = 
REMARK  10 active torsions:
REMARK  status: ('A' for Active; 'I' for Inactive)
REMARK    1  A    between atoms: C_2  and  C_3
REMARK    2  A    between atoms: C_3  and  N_4
REMARK    3  A    between atoms: C_9  and  C_10
REMARK    4  A    between atoms: C_10  and  C_11
REMARK    5  A    between atoms: C_10  and  O_12
REMARK    6  A    between atoms: O_12  and  C_13
REMARK    7  A    between atoms: C_13  and  C_15
REMARK    8  A    between atoms: C_15  and  O_16
REMARK    9  A    between atoms: O_16  and  C_17
REMARK   10  A    between atoms: C_17  and  C_18
REMARK                            x       y       z     vdW  Elec       q    Type
REMARK                         _______ _______ _______ _____ _____    ______ ____
ROOT
ATOM      1  C   UNL     1       3.831   3.325  18.621  0.00  0.00    +0.000 C 
ATOM      2  C   UNL     1       3.676   1.929  18.021  0.00  0.00    +0.000 C 
ENDROOT
BRANCH   1   8
ATOM      3  N   UNL     1       1.671   7.446  20.984  0.00  0.00    +0.000 N 
ATOM      4  C   UNL     1       2.057   7.318  19.679  0.00  0.00    +0.000 C 
ATOM      5  O   UNL     1       2.251   8.272  18.930  0.00  0.00    +0.000 OA
ATOM      6  N   UNL     1       2.205   6.019  19.250  0.00  0.00    +0.000 N 
ATOM      7  C   UNL     1       2.565   5.520  17.935  0.00  0.00    +0.000 C 
ATOM      8  C   UNL     1       2.513   4.090  18.531  0.00  0.00    +0.000 C 
ATOM      9  C   UNL     1       2.010   4.792  19.819  0.00  0.00    +0.000 C 
ATOM     10  O   UNL     1       1.614   4.488  20.920  0.00  0.00    +0.000 OA
ATOM     11  H   UNL     1       1.760   6.629  21.582  0.00  0.00    +0.000 HD
BRANCH   3  12
ATOM     12  C   UNL     1       1.523   8.738  21.596  0.00  0.00    +0.000 C 
BRANCH  12  14
ATOM     13  C   UNL     1      -0.425   9.472  23.000  0.00  0.00    +0.000 C 
ATOM     14  C   UNL     1       0.070   8.960  21.865  0.00  0.00    +0.000 C 
ENDBRANCH  12  14
ENDBRANCH   3  12
ENDBRANCH   1   8
BRANCH   1  15
ATOM     15  O   UNL     1       4.867   4.008  17.886  0.00  0.00    +0.000 OA
BRANCH  15  16
ATOM     16  C   UNL     1       5.836   4.560  18.675  0.00  0.00    +0.000 C 
ATOM     17  O   UNL     1       5.898   4.415  19.887  0.00  0.00    +0.000 OA
BRANCH  16  18
ATOM     18  C   UNL     1       6.830   5.358  17.841  0.00  0.00    +0.000 C 
BRANCH  18  19
ATOM     19  O   UNL     1       7.317   4.659  16.701  0.00  0.00    +0.000 OA
BRANCH  19  20
ATOM     20  C   UNL     1       7.451   5.516  15.565  0.00  0.00    +0.000 C 
BRANCH  20  21
ATOM     21  C   UNL     1       6.890   4.828  14.355  0.00  0.00    +0.000 A 
ATOM     22  C   UNL     1       7.589   4.855  13.138  0.00  0.00    +0.000 A 
ATOM     23  C   UNL     1       7.082   4.194  12.021  0.00  0.00    +0.000 A 
ATOM     24  C   UNL     1       5.877   3.501  12.111  0.00  0.00    +0.000 A 
ATOM     25  C   UNL     1       5.181   3.462  13.319  0.00  0.00    +0.000 A 
ATOM     26  C   UNL     1       5.686   4.121  14.437  0.00  0.00    +0.000 A 
ENDBRANCH  20  21
ENDBRANCH  19  20
ENDBRANCH  18  19
ENDBRANCH  16  18
ENDBRANCH  15  16
ENDBRANCH   1  15
TORSDOF 9
ENDMDL
MODEL 5
REMARK VINA RESULT:      -7.1      5.437      7.524
REMARK  Name = 
REMARK  10 active torsions:
REMARK  status: ('A' for Active; 'I' for Inactive)
REMARK    1  A    between atoms: C_2  and  C_3
REMARK    2  A    between atoms: C_3  and  N_4
REMARK    3  A    between atoms: C_9  and  C_10
REMARK    4  A    between atoms: C_10  and  C_11
REMARK    5  A    between atoms: C_10  and  O_12
REMARK    6  A    between atoms: O_12  and  C_13
REMARK    7  A    between atoms: C_13  and  C_15
REMARK    8  A    between atoms: C_15  and  O_16
REMARK    9  A    between atoms: O_16  and  C_17
REMARK   10  A    between atoms: C_17  and  C_18
REMARK                            x       y       z     vdW  Elec       q    Type
REMARK                         _______ _______ _______ _____ _____    ______ ____
ROOT
ATOM      1  C   UNL     1       2.206   3.785  20.229  0.00  0.00    +0.000 C 
ATOM      2  C   UNL     1       1.915   3.084  21.553  0.00  0.00    +0.000 C 
ENDROOT
BRANCH   1   8
ATOM      3  N   UNL     1       4.877   4.355  15.782  0.00  0.00    +0.000 N 
ATOM      4  C   UNL     1       5.358   4.137  17.042  0.00  0.00    +0.000 C 
ATOM      5  O   UNL     1       6.519   4.361  17.377  0.00  0.00    +0.000 OA
ATOM      6  N   UNL     1       4.436   3.626  17.927  0.00  0.00    +0.000 N 
ATOM      7  C   UNL     1       4.609   3.246  19.318  0.00  0.00    +0.000 C 
ATOM      8  C   UNL     1       3.096   2.910  19.349  0.00  0.00    +0.000 C 
ATOM      9  C   UNL     1       3.131   3.232  17.833  0.00  0.00    +0.000 C 
ATOM     10  O   UNL     1       2.382   3.207  16.885  0.00  0.00    +0.000 OA
ATOM     11  H   UNL     1       3.868   4.364  15.659  0.00  0.00    +0.000 HD
BRANCH   3  12
ATOM     12  C   UNL     1       5.702   4.935  14.757  0.00  0.00    +0.000 C 
BRANCH  12  14
ATOM     13  C   UNL     1       5.955   3.561  12.671  0.00  0.00    +0.000 C 
ATOM     14  C   UNL     1       6.280   3.822  13.944  0.00  0.00    +0.000 C 
ENDBRANCH  12  14
ENDBRANCH   3  12
ENDBRANCH   1   8
BRANCH   1  15
ATOM     15  O   UNL     1       2.860   5.036  20.527  0.00  0.00    +0.000 OA
BRANCH  15  16
ATOM     16  C   UNL     1       2.094   6.138  20.271  0.00  0.00    +0.000 C 
ATOM     17  O   UNL     1       1.191   6.527  20.996  0.00  0.00    +0.000 OA
BRANCH  16  18
ATOM     18  C   UNL     1       2.529   6.818  18.979  0.00  0.00    +0.000 C 
BRANCH  18  19
ATOM     19  O   UNL     1       2.373   8.233  18.991  0.00  0.00    +0.000 OA
BRANCH  19  20
ATOM     20  C   UNL     1       1.736   8.710  17.805  0.00  0.00    +0.000 C 
BRANCH  20  21
ATOM     21  C   UNL     1       0.859   9.879  18.148  0.00  0.00    +0.000 A 
ATOM     22  C   UNL     1       1.422  11.070  18.632  0.00  0.00    +0.000 A 
ATOM     23  C   UNL     1       0.611  12.164  18.924  0.00  0.00    +0.000 A 
ATOM     24  C   UNL     1      -0.767  12.078  18.734  0.00  0.00    +0.000 A 
ATOM     25  C   UNL     1      -1.334  10.902  18.245  0.00  0.00    +0.000 A 
ATOM     26  C   UNL     1      -0.524   9.807  17.950  0.00  0.00    +0.000 A 
ENDBRANCH  20  21
ENDBRANCH  19  20
ENDBRANCH  18  19
ENDBRANCH  16  18
ENDBRANCH  15  16
ENDBRANCH   1  15
TORSDOF 9
ENDMDL
MODEL 6
REMARK VINA RESULT:      -7.0      4.614      8.530
REMARK  Name = 
REMARK  10 active torsions:
REMARK  status: ('A' for Active; 'I' for Inactive)
REMARK    1  A    between atoms: C_2  and  C_3
REMARK    2  A    between atoms: C_3  and  N_4
REMARK    3  A    between atoms: C_9  and  C_10
REMARK    4  A    between atoms: C_10  and  C_11
REMARK    5  A    between atoms: C_10  and  O_12
REMARK    6  A    between atoms: O_12  and  C_13
REMARK    7  A    between atoms: C_13  and  C_15
REMARK    8  A    between atoms: C_15  and  O_16
REMARK    9  A    between atoms: O_16  and  C_17
REMARK   10  A    between atoms: C_17  and  C_18
REMARK                            x       y       z     vdW  Elec       q    Type
REMARK                         _______ _______ _______ _____ _____    ______ ____
ROOT
ATOM      1  C   UNL     1       4.825   6.026  17.936  0.00  0.00    +0.000 C 
ATOM      2  C   UNL     1       5.037   7.473  17.498  0.00  0.00    +0.000 C 
ENDROOT
BRANCH   1   8
ATOM      3  N   UNL     1       6.430   3.632  13.586  0.00  0.00    +0.000 N 
ATOM      4  C   UNL     1       7.009   4.681  14.243  0.00  0.00    +0.000 C 
ATOM      5  O   UNL     1       7.830   5.437  13.730  0.00  0.00    +0.000 OA
ATOM      6  N   UNL     1       6.608   4.829  15.552  0.00  0.00    +0.000 N 
ATOM      7  C   UNL     1       7.038   5.800  16.541  0.00  0.00    +0.000 C 
ATOM      8  C   UNL     1       6.015   5.165  17.518  0.00  0.00    +0.000 C 
ATOM      9  C   UNL     1       5.781   4.132  16.387  0.00  0.00    +0.000 C 
ATOM     10  O   UNL     1       5.145   3.121  16.202  0.00  0.00    +0.000 OA
ATOM     11  H   UNL     1       5.605   3.213  14.005  0.00  0.00    +0.000 HD
BRANCH   3  12
ATOM     12  C   UNL     1       6.706   3.376  12.198  0.00  0.00    +0.000 C 
BRANCH  12  14
ATOM     13  C   UNL     1       4.330   3.230  11.400  0.00  0.00    +0.000 C 
ATOM     14  C   UNL     1       5.527   2.668  11.614  0.00  0.00    +0.000 C 
ENDBRANCH  12  14
ENDBRANCH   3  12
ENDBRANCH   1   8
BRANCH   1  15
ATOM     15  O   UNL     1       3.612   5.551  17.317  0.00  0.00    +0.000 OA
BRANCH  15  16
ATOM     16  C   UNL     1       2.569   5.395  18.185  0.00  0.00    +0.000 C 
ATOM     17  O   UNL     1       2.468   5.989  19.248  0.00  0.00    +0.000 OA
BRANCH  16  18
ATOM     18  C   UNL     1       1.550   4.401  17.642  0.00  0.00    +0.000 C 
BRANCH  18  19
ATOM     19  O   UNL     1       2.130   3.312  16.932  0.00  0.00    +0.000 OA
BRANCH  19  20
ATOM     20  C   UNL     1       2.027   2.086  17.658  0.00  0.00    +0.000 C 
BRANCH  20  21
ATOM     21  C   UNL     1       2.185   2.361  19.125  0.00  0.00    +0.000 A 
ATOM     22  C   UNL     1       1.060   2.618  19.923  0.00  0.00    +0.000 A 
ATOM     23  C   UNL     1       1.203   2.847  21.290  0.00  0.00    +0.000 A 
ATOM     24  C   UNL     1       2.470   2.819  21.869  0.00  0.00    +0.000 A 
ATOM     25  C   UNL     1       3.593   2.556  21.086  0.00  0.00    +0.000 A 
ATOM     26  C   UNL     1       3.451   2.325  19.719  0.00  0.00    +0.000 A 
ENDBRANCH  20  21
ENDBRANCH  19  20
ENDBRANCH  18  19
ENDBRANCH  16  18
ENDBRANCH  15  16
ENDBRANCH   1  15
TORSDOF 9
ENDMDL
MODEL 7
REMARK VINA RESULT:      -7.0      3.521      7.530
REMARK  Name = 
REMARK  10 active torsions:
REMARK  status: ('A' for Active; 'I' for Inactive)
REMARK    1  A    between atoms: C_2  and  C_3
REMARK    2  A    between atoms: C_3  and  N_4
REMARK    3  A    between atoms: C_9  and  C_10
REMARK    4  A    between atoms: C_10  and  C_11
REMARK    5  A    between atoms: C_10  and  O_12
REMARK    6  A    between atoms: O_12  and  C_13
REMARK    7  A    between atoms: C_13  and  C_15
REMARK    8  A    between atoms: C_15  and  O_16
REMARK    9  A    between atoms: O_16  and  C_17
REMARK   10  A    between atoms: C_17  and  C_18
REMARK                            x       y       z     vdW  Elec       q    Type
REMARK                         _______ _______ _______ _____ _____    ______ ____
ROOT
ATOM      1  C   UNL     1       2.858   3.196  18.170  0.00  0.00    +0.000 C 
ATOM      2  C   UNL     1       3.329   1.745  18.212  0.00  0.00    +0.000 C 
ENDROOT
BRANCH   1   8
ATOM      3  N   UNL     1       6.807   6.598  17.913  0.00  0.00    +0.000 N 
ATOM      4  C   UNL     1       6.751   5.320  17.431  0.00  0.00    +0.000 C 
ATOM      5  O   UNL     1       7.745   4.657  17.142  0.00  0.00    +0.000 OA
ATOM      6  N   UNL     1       5.478   4.820  17.278  0.00  0.00    +0.000 N 
ATOM      7  C   UNL     1       5.052   3.531  16.766  0.00  0.00    +0.000 C 
ATOM      8  C   UNL     1       3.594   3.960  17.071  0.00  0.00    +0.000 C 
ATOM      9  C   UNL     1       4.221   5.325  17.455  0.00  0.00    +0.000 C 
ATOM     10  O   UNL     1       3.855   6.424  17.802  0.00  0.00    +0.000 OA
ATOM     11  H   UNL     1       5.966   6.977  18.338  0.00  0.00    +0.000 HD
BRANCH   3  12
ATOM     12  C   UNL     1       8.065   7.242  18.176  0.00  0.00    +0.000 C 
BRANCH  12  14
ATOM     13  C   UNL     1       8.628   9.685  18.324  0.00  0.00    +0.000 C 
ATOM     14  C   UNL     1       7.947   8.675  17.767  0.00  0.00    +0.000 C 
ENDBRANCH  12  14
ENDBRANCH   3  12
ENDBRANCH   1   8
BRANCH   1  15
ATOM     15  O   UNL     1       3.121   3.783  19.461  0.00  0.00    +0.000 OA
BRANCH  15  16
ATOM     16  C   UNL     1       2.095   3.645  20.353  0.00  0.00    +0.000 C 
ATOM     17  O   UNL     1       1.884   2.632  21.002  0.00  0.00    +0.000 OA
BRANCH  16  18
ATOM     18  C   UNL     1       1.270   4.924  20.438  0.00  0.00    +0.000 C 
BRANCH  18  19
ATOM     19  O   UNL     1       2.009   6.106  20.153  0.00  0.00    +0.000 OA
BRANCH  19  20
ATOM     20  C   UNL     1       1.651   7.183  21.019  0.00  0.00    +0.000 C 
BRANCH  20  21
ATOM     21  C   UNL     1       1.315   8.393  20.197  0.00  0.00    +0.000 A 
ATOM     22  C   UNL     1       1.834   8.535  18.901  0.00  0.00    +0.000 A 
ATOM     23  C   UNL     1       1.501   9.645  18.128  0.00  0.00    +0.000 A 
ATOM     24  C   UNL     1       0.647  10.619  18.641  0.00  0.00    +0.000 A 
ATOM     25  C   UNL     1       0.119  10.481  19.924  0.00  0.00    +0.000 A 
ATOM     26  C   UNL     1       0.450   9.371  20.699  0.00  0.00    +0.000 A 
ENDBRANCH  20  21
ENDBRANCH  19  20
ENDBRANCH  18  19
ENDBRANCH  16  18
ENDBRANCH  15  16
ENDBRANCH   1  15
TORSDOF 9
ENDMDL
MODEL 8
REMARK VINA RESULT:      -7.0      3.866      7.733
REMARK  Name = 
REMARK  10 active torsions:
REMARK  status: ('A' for Active; 'I' for Inactive)
REMARK    1  A    between atoms: C_2  and  C_3
REMARK    2  A    between atoms: C_3  and  N_4
REMARK    3  A    between atoms: C_9  and  C_10
REMARK    4  A    between atoms: C_10  and  C_11
REMARK    5  A    between atoms: C_10  and  O_12
REMARK    6  A    between atoms: O_12  and  C_13
REMARK    7  A    between atoms: C_13  and  C_15
REMARK    8  A    between atoms: C_15  and  O_16
REMARK    9  A    between atoms: O_16  and  C_17
REMARK   10  A    between atoms: C_17  and  C_18
REMARK                            x       y       z     vdW  Elec       q    Type
REMARK                         _______ _______ _______ _____ _____    ______ ____
ROOT
ATOM      1  C   UNL     1       2.070   3.737  18.738  0.00  0.00    +0.000 C 
ATOM      2  C   UNL     1       1.170   2.541  18.438  0.00  0.00    +0.000 C 
ENDROOT
BRANCH   1   8
ATOM      3  N   UNL     1       6.500   6.387  17.973  0.00  0.00    +0.000 N 
ATOM      4  C   UNL     1       6.299   5.035  17.938  0.00  0.00    +0.000 C 
ATOM      5  O   UNL     1       7.203   4.210  18.038  0.00  0.00    +0.000 OA
ATOM      6  N   UNL     1       4.987   4.655  17.768  0.00  0.00    +0.000 N 
ATOM      7  C   UNL     1       4.424   3.322  17.652  0.00  0.00    +0.000 C 
ATOM      8  C   UNL     1       3.025   3.987  17.574  0.00  0.00    +0.000 C 
ATOM      9  C   UNL     1       3.811   5.324  17.575  0.00  0.00    +0.000 C 
ATOM     10  O   UNL     1       3.584   6.507  17.480  0.00  0.00    +0.000 OA
ATOM     11  H   UNL     1       5.687   6.979  18.117  0.00  0.00    +0.000 HD
BRANCH   3  12
ATOM     12  C   UNL     1       7.807   6.942  18.196  0.00  0.00    +0.000 C 
BRANCH  12  14
ATOM     13  C   UNL     1       8.458   9.367  18.181  0.00  0.00    +0.000 C 
ATOM     14  C   UNL     1       7.828   8.323  17.626  0.00  0.00    +0.000 C 
ENDBRANCH  12  14
ENDBRANCH   3  12
ENDBRANCH   1   8
BRANCH   1  15
ATOM     15  O   UNL     1       2.803   3.445  19.944  0.00  0.00    +0.000 OA
BRANCH  15  16
ATOM     16  C   UNL     1       2.225   3.938  21.080  0.00  0.00    +0.000 C 
ATOM     17  O   UNL     1       1.610   3.256  21.886  0.00  0.00    +0.000 OA
BRANCH  16  18
ATOM     18  C   UNL     1       2.465   5.437  21.209  0.00  0.00    +0.000 C 
BRANCH  18  19
ATOM     19  O   UNL     1       1.383   6.236  20.743  0.00  0.00    +0.000 OA
BRANCH  19  20
ATOM     20  C   UNL     1       1.832   7.471  20.185  0.00  0.00    +0.000 C 
BRANCH  20  21
ATOM     21  C   UNL     1       1.046   8.602  20.782  0.00  0.00    +0.000 A 
ATOM     22  C   UNL     1       0.911   8.714  22.174  0.00  0.00    +0.000 A 
ATOM     23  C   UNL     1       0.204   9.778  22.729  0.00  0.00    +0.000 A 
ATOM     24  C   UNL     1      -0.371  10.739  21.899  0.00  0.00    +0.000 A 
ATOM     25  C   UNL     1      -0.234  10.640  20.515  0.00  0.00    +0.000 A 
ATOM     26  C   UNL     1       0.473   9.577  19.958  0.00  0.00    +0.000 A 
ENDBRANCH  20  21
ENDBRANCH  19  20
ENDBRANCH  18  19
ENDBRANCH  16  18
ENDBRANCH  15  16
ENDBRANCH   1  15
TORSDOF 9
ENDMDL
MODEL 9
REMARK VINA RESULT:      -6.9      4.949      7.830
REMARK  Name = 
REMARK  10 active torsions:
REMARK  status: ('A' for Active; 'I' for Inactive)
REMARK    1  A    between atoms: C_2  and  C_3
REMARK    2  A    between atoms: C_3  and  N_4
REMARK    3  A    between atoms: C_9  and  C_10
REMARK    4  A    between atoms: C_10  and  C_11
REMARK    5  A    between atoms: C_10  and  O_12
REMARK    6  A    between atoms: O_12  and  C_13
REMARK    7  A    between atoms: C_13  and  C_15
REMARK    8  A    between atoms: C_15  and  O_16
REMARK    9  A    between atoms: O_16  and  C_17
REMARK   10  A    between atoms: C_17  and  C_18
REMARK                            x       y       z     vdW  Elec       q    Type
REMARK                         _______ _______ _______ _____ _____    ______ ____
ROOT
ATOM      1  C   UNL     1       4.082   5.951  18.407  0.00  0.00    +0.000 C 
ATOM      2  C   UNL     1       4.385   7.195  17.575  0.00  0.00    +0.000 C 
ENDROOT
BRANCH   1   8
ATOM      3  N   UNL     1       5.926   3.787  14.031  0.00  0.00    +0.000 N 
ATOM      4  C   UNL     1       6.604   4.502  14.978  0.00  0.00    +0.000 C 
ATOM      5  O   UNL     1       7.699   5.024  14.784  0.00  0.00    +0.000 OA
ATOM      6  N   UNL     1       5.966   4.589  16.195  0.00  0.00    +0.000 N 
ATOM      7  C   UNL     1       6.407   5.233  17.420  0.00  0.00    +0.000 C 
ATOM      8  C   UNL     1       5.050   4.825  18.049  0.00  0.00    +0.000 C 
ATOM      9  C   UNL     1       4.808   4.081  16.710  0.00  0.00    +0.000 C 
ATOM     10  O   UNL     1       3.977   3.356  16.215  0.00  0.00    +0.000 OA
ATOM     11  H   UNL     1       4.943   3.595  14.201  0.00  0.00    +0.000 HD
BRANCH   3  12
ATOM     12  C   UNL     1       6.436   3.648  12.694  0.00  0.00    +0.000 C 
BRANCH  12  14
ATOM     13  C   UNL     1       4.283   3.357  11.436  0.00  0.00    +0.000 C 
ATOM     14  C   UNL     1       5.441   2.868  11.897  0.00  0.00    +0.000 C 
ENDBRANCH  12  14
ENDBRANCH   3  12
ENDBRANCH   1   8
BRANCH   1  15
ATOM     15  O   UNL     1       2.722   5.558  18.132  0.00  0.00    +0.000 OA
BRANCH  15  16
ATOM     16  C   UNL     1       2.051   5.077  19.222  0.00  0.00    +0.000 C 
ATOM     17  O   UNL     1       1.294   4.119  19.191  0.00  0.00    +0.000 OA
BRANCH  16  18
ATOM     18  C   UNL     1       2.390   5.882  20.470  0.00  0.00    +0.000 C 
BRANCH  18  19
ATOM     19  O   UNL     1       1.373   6.800  20.857  0.00  0.00    +0.000 OA
BRANCH  19  20
ATOM     20  C   UNL     1       1.623   8.116  20.362  0.00  0.00    +0.000 C 
BRANCH  20  21
ATOM     21  C   UNL     1       0.760   9.098  21.099  0.00  0.00    +0.000 A 
ATOM     22  C   UNL     1       0.323   8.817  22.402  0.00  0.00    +0.000 A 
ATOM     23  C   UNL     1      -0.456   9.741  23.097  0.00  0.00    +0.000 A 
ATOM     24  C   UNL     1      -0.802  10.950  22.497  0.00  0.00    +0.000 A 
ATOM     25  C   UNL     1      -0.365  11.239  21.205  0.00  0.00    +0.000 A 
ATOM     26  C   UNL     1       0.415  10.318  20.509  0.00  0.00    +0.000 A 
ENDBRANCH  20  21
ENDBRANCH  19  20
ENDBRANCH  18  19
ENDBRANCH  16  18
ENDBRANCH  15  16
ENDBRANCH   1  15
TORSDOF 9
ENDMDL
