MODEL 1
REMARK VINA RESULT:      -8.8      0.000      0.000
REMARK  Name = 
REMARK  8 active torsions:
REMARK  status: ('A' for Active; 'I' for Inactive)
REMARK    1  A    between atoms: C_1  and  C_2
REMARK    2  A    between atoms: C_5  and  C_6
REMARK    3  A    between atoms: C_6  and  N_7
REMARK    4  A    between atoms: C_8  and  C_10
REMARK    5  A    between atoms: C_10  and  N_11
REMARK    6  A    between atoms: N_11  and  C_12
REMARK    7  A    between atoms: N_11  and  S_20
REMARK    8  A    between atoms: S_20  and  C_23
REMARK                            x       y       z     vdW  Elec       q    Type
REMARK                         _______ _______ _______ _____ _____    ______ ____
ROOT
ATOM      1  N   UNL     1       4.379   4.397  17.453  0.00  0.00    +0.000 N 
ENDROOT
BRANCH   1   2
ATOM      2  C   UNL     1       5.312   4.463  16.367  0.00  0.00    +0.000 A 
ATOM      3  C   UNL     1       4.794   4.374  15.072  0.00  0.00    +0.000 A 
ATOM      4  C   UNL     1       5.623   4.559  13.963  0.00  0.00    +0.000 A 
ATOM      5  C   UNL     1       6.976   4.829  14.146  0.00  0.00    +0.000 A 
ATOM      6 CL   UNL     1       7.972   5.100  12.768  0.00  0.00    +0.000 Cl
ATOM      7  C   UNL     1       7.517   4.903  15.424  0.00  0.00    +0.000 A 
ATOM      8  C   UNL     1       6.687   4.717  16.539  0.00  0.00    +0.000 A 
ATOM      9 CL   UNL     1       7.408   4.841  18.103  0.00  0.00    +0.000 Cl
ENDBRANCH   1   2
BRANCH   1  10
ATOM     10  S   UNL     1       3.355   3.066  17.610  0.00  0.00    +0.000 S 
ATOM     11  O   UNL     1       2.226   3.248  16.719  0.00  0.00    +0.000 OA
ATOM     12  O   UNL     1       4.151   1.857  17.549  0.00  0.00    +0.000 OA
BRANCH  10  13
ATOM     13  C   UNL     1       2.683   3.171  19.273  0.00  0.00    +0.000 A 
ATOM     14  C   UNL     1       1.358   3.595  19.449  0.00  0.00    +0.000 A 
ATOM     15  C   UNL     1       0.739   3.457  20.696  0.00  0.00    +0.000 A 
ATOM     16  C   UNL     1       1.429   2.874  21.759  0.00  0.00    +0.000 A 
ATOM     17  C   UNL     1       2.751   2.462  21.590  0.00  0.00    +0.000 A 
ATOM     18  C   UNL     1       3.379   2.608  20.348  0.00  0.00    +0.000 A 
ENDBRANCH  10  13
ENDBRANCH   1  10
BRANCH   1  19
ATOM     19  C   UNL     1       4.362   5.473  18.462  0.00  0.00    +0.000 C 
BRANCH  19  21
ATOM     20  N   UNL     1       2.655   7.201  18.779  0.00  0.00    +0.000 N 
ATOM     21  C   UNL     1       3.690   6.752  17.988  0.00  0.00    +0.000 C 
ATOM     22  O   UNL     1       4.052   7.349  16.973  0.00  0.00    +0.000 OA
ATOM     23  H   UNL     1       2.288   6.615  19.515  0.00  0.00    +0.000 HD
BRANCH  20  24
ATOM     24  C   UNL     1       1.992   8.459  18.512  0.00  0.00    +0.000 C 
BRANCH  24  29
ATOM     25  C   UNL     1      -0.954  10.538  23.081  0.00  0.00    +0.000 C 
ATOM     26  C   UNL     1      -0.223   9.970  21.901  0.00  0.00    +0.000 A 
ATOM     27  C   UNL     1       0.592   8.840  22.033  0.00  0.00    +0.000 A 
ATOM     28  C   UNL     1       1.286   8.335  20.931  0.00  0.00    +0.000 A 
ATOM     29  C   UNL     1       1.186   8.958  19.680  0.00  0.00    +0.000 A 
ATOM     30  C   UNL     1       0.353  10.076  19.546  0.00  0.00    +0.000 A 
ATOM     31  C   UNL     1      -0.345  10.582  20.651  0.00  0.00    +0.000 A 
ENDBRANCH  24  29
ENDBRANCH  20  24
ENDBRANCH  19  21
ENDBRANCH   1  19
TORSDOF 7
ENDMDL
MODEL 2
REMARK VINA RESULT:      -8.6      0.218      1.261
REMARK  Name = 
REMARK  8 active torsions:
REMARK  status: ('A' for Active; 'I' for Inactive)
REMARK    1  A    between atoms: C_1  and  C_2
REMARK    2  A    between atoms: C_5  and  C_6
REMARK    3  A    between atoms: C_6  and  N_7
REMARK    4  A    between atoms: C_8  and  C_10
REMARK    5  A    between atoms: C_10  and  N_11
REMARK    6  A    between atoms: N_11  and  C_12
REMARK    7  A    between atoms: N_11  and  S_20
REMARK    8  A    between atoms: S_20  and  C_23
REMARK                            x       y       z     vdW  Elec       q    Type
REMARK                         _______ _______ _______ _____ _____    ______ ____
ROOT
ATOM      1  N   UNL     1       4.312   4.286  17.433  0.00  0.00    +0.000 N 
ENDROOT
BRANCH   1   2
ATOM      2  C   UNL     1       5.279   4.403  16.381  0.00  0.00    +0.000 A 
ATOM      3  C   UNL     1       4.808   4.320  15.067  0.00  0.00    +0.000 A 
ATOM      4  C   UNL     1       5.667   4.552  13.991  0.00  0.00    +0.000 A 
ATOM      5  C   UNL     1       7.003   4.865  14.225  0.00  0.00    +0.000 A 
ATOM      6 CL   UNL     1       8.035   5.195  12.886  0.00  0.00    +0.000 Cl
ATOM      7  C   UNL     1       7.497   4.935  15.522  0.00  0.00    +0.000 A 
ATOM      8  C   UNL     1       6.637   4.701  16.605  0.00  0.00    +0.000 A 
ATOM      9 CL   UNL     1       7.301   4.822  18.194  0.00  0.00    +0.000 Cl
ENDBRANCH   1   2
BRANCH   1  10
ATOM     10  S   UNL     1       3.286   2.948  17.496  0.00  0.00    +0.000 S 
ATOM     11  O   UNL     1       2.190   3.168  16.574  0.00  0.00    +0.000 OA
ATOM     12  O   UNL     1       4.087   1.744  17.410  0.00  0.00    +0.000 OA
BRANCH  10  13
ATOM     13  C   UNL     1       2.556   2.981  19.137  0.00  0.00    +0.000 A 
ATOM     14  C   UNL     1       3.265   2.428  20.211  0.00  0.00    +0.000 A 
ATOM     15  C   UNL     1       2.835   2.653  21.524  0.00  0.00    +0.000 A 
ATOM     16  C   UNL     1       1.714   3.447  21.766  0.00  0.00    +0.000 A 
ATOM     17  C   UNL     1       0.999   3.989  20.698  0.00  0.00    +0.000 A 
ATOM     18  C   UNL     1       1.418   3.758  19.383  0.00  0.00    +0.000 A 
ENDBRANCH  10  13
ENDBRANCH   1  10
BRANCH   1  19
ATOM     19  C   UNL     1       4.262   5.314  18.490  0.00  0.00    +0.000 C 
BRANCH  19  21
ATOM     20  N   UNL     1       2.583   7.082  18.727  0.00  0.00    +0.000 N 
ATOM     21  C   UNL     1       3.689   6.644  18.030  0.00  0.00    +0.000 C 
ATOM     22  O   UNL     1       4.183   7.289  17.104  0.00  0.00    +0.000 OA
ATOM     23  H   UNL     1       2.117   6.465  19.377  0.00  0.00    +0.000 HD
BRANCH  20  24
ATOM     24  C   UNL     1       1.994   8.379  18.471  0.00  0.00    +0.000 C 
BRANCH  24  29
ATOM     25  C   UNL     1      -0.909  10.460  23.066  0.00  0.00    +0.000 C 
ATOM     26  C   UNL     1      -0.132   9.954  21.888  0.00  0.00    +0.000 A 
ATOM     27  C   UNL     1      -0.147  10.637  20.667  0.00  0.00    +0.000 A 
ATOM     28  C   UNL     1       0.563  10.142  19.570  0.00  0.00    +0.000 A 
ATOM     29  C   UNL     1       1.292   8.951  19.672  0.00  0.00    +0.000 A 
ATOM     30  C   UNL     1       1.323   8.281  20.902  0.00  0.00    +0.000 A 
ATOM     31  C   UNL     1       0.613   8.777  22.002  0.00  0.00    +0.000 A 
ENDBRANCH  24  29
ENDBRANCH  20  24
ENDBRANCH  19  21
ENDBRANCH   1  19
TORSDOF 7
ENDMDL
MODEL 3
REMARK VINA RESULT:      -8.2      2.279      7.008
REMARK  Name = 
REMARK  8 active torsions:
REMARK  status: ('A' for Active; 'I' for Inactive)
REMARK    1  A    between atoms: C_1  and  C_2
REMARK    2  A    between atoms: C_5  and  C_6
REMARK    3  A    between atoms: C_6  and  N_7
REMARK    4  A    between atoms: C_8  and  C_10
REMARK    5  A    between atoms: C_10  and  N_11
REMARK    6  A    between atoms: N_11  and  C_12
REMARK    7  A    between atoms: N_11  and  S_20
REMARK    8  A    between atoms: S_20  and  C_23
REMARK                            x       y       z     vdW  Elec       q    Type
REMARK                         _______ _______ _______ _____ _____    ______ ____
ROOT
ATOM      1  N   UNL     1       4.372   5.327  18.552  0.00  0.00    +0.000 N 
ENDROOT
BRANCH   1   2
ATOM      2  C   UNL     1       3.427   6.403  18.639  0.00  0.00    +0.000 A 
ATOM      3  C   UNL     1       2.720   6.537  19.837  0.00  0.00    +0.000 A 
ATOM      4  C   UNL     1       1.879   7.633  20.044  0.00  0.00    +0.000 A 
ATOM      5  C   UNL     1       1.738   8.597  19.050  0.00  0.00    +0.000 A 
ATOM      6 CL   UNL     1       0.734   9.964  19.342  0.00  0.00    +0.000 Cl
ATOM      7  C   UNL     1       2.417   8.473  17.843  0.00  0.00    +0.000 A 
ATOM      8  C   UNL     1       3.261   7.373  17.632  0.00  0.00    +0.000 A 
ATOM      9 CL   UNL     1       4.095   7.283  16.123  0.00  0.00    +0.000 Cl
ENDBRANCH   1   2
BRANCH   1  10
ATOM     10  S   UNL     1       3.869   3.796  18.054  0.00  0.00    +0.000 S 
ATOM     11  O   UNL     1       2.991   3.951  16.910  0.00  0.00    +0.000 OA
ATOM     12  O   UNL     1       5.026   2.928  17.979  0.00  0.00    +0.000 OA
BRANCH  10  13
ATOM     13  C   UNL     1       2.830   3.177  19.383  0.00  0.00    +0.000 A 
ATOM     14  C   UNL     1       3.427   2.770  20.584  0.00  0.00    +0.000 A 
ATOM     15  C   UNL     1       2.634   2.517  21.708  0.00  0.00    +0.000 A 
ATOM     16  C   UNL     1       1.252   2.692  21.645  0.00  0.00    +0.000 A 
ATOM     17  C   UNL     1       0.654   3.086  20.447  0.00  0.00    +0.000 A 
ATOM     18  C   UNL     1       1.440   3.330  19.316  0.00  0.00    +0.000 A 
ENDBRANCH  10  13
ENDBRANCH   1  10
BRANCH   1  19
ATOM     19  C   UNL     1       5.794   5.586  18.845  0.00  0.00    +0.000 C 
BRANCH  19  21
ATOM     20  N   UNL     1       6.879   4.828  16.783  0.00  0.00    +0.000 N 
ATOM     21  C   UNL     1       6.630   5.899  17.615  0.00  0.00    +0.000 C 
ATOM     22  O   UNL     1       7.047   7.033  17.373  0.00  0.00    +0.000 OA
ATOM     23  H   UNL     1       6.651   3.891  17.082  0.00  0.00    +0.000 HD
BRANCH  20  24
ATOM     24  C   UNL     1       7.570   4.995  15.523  0.00  0.00    +0.000 C 
BRANCH  24  29
ATOM     25  C   UNL     1       4.521   3.106  10.939  0.00  0.00    +0.000 C 
ATOM     26  C   UNL     1       5.309   3.553  12.134  0.00  0.00    +0.000 A 
ATOM     27  C   UNL     1       4.717   3.630  13.400  0.00  0.00    +0.000 A 
ATOM     28  C   UNL     1       5.457   4.070  14.501  0.00  0.00    +0.000 A 
ATOM     29  C   UNL     1       6.796   4.451  14.354  0.00  0.00    +0.000 A 
ATOM     30  C   UNL     1       7.392   4.351  13.089  0.00  0.00    +0.000 A 
ATOM     31  C   UNL     1       6.652   3.909  11.985  0.00  0.00    +0.000 A 
ENDBRANCH  24  29
ENDBRANCH  20  24
ENDBRANCH  19  21
ENDBRANCH   1  19
TORSDOF 7
ENDMDL
MODEL 4
REMARK VINA RESULT:      -8.1      2.712      7.084
REMARK  Name = 
REMARK  8 active torsions:
REMARK  status: ('A' for Active; 'I' for Inactive)
REMARK    1  A    between atoms: C_1  and  C_2
REMARK    2  A    between atoms: C_5  and  C_6
REMARK    3  A    between atoms: C_6  and  N_7
REMARK    4  A    between atoms: C_8  and  C_10
REMARK    5  A    between atoms: C_10  and  N_11
REMARK    6  A    between atoms: N_11  and  C_12
REMARK    7  A    between atoms: N_11  and  S_20
REMARK    8  A    between atoms: S_20  and  C_23
REMARK                            x       y       z     vdW  Elec       q    Type
REMARK                         _______ _______ _______ _____ _____    ______ ____
ROOT
ATOM      1  N   UNL     1       3.824   5.628  18.530  0.00  0.00    +0.000 N 
ENDROOT
BRANCH   1   2
ATOM      2  C   UNL     1       3.074   6.836  18.717  0.00  0.00    +0.000 A 
ATOM      3  C   UNL     1       3.029   7.734  17.647  0.00  0.00    +0.000 A 
ATOM      4  C   UNL     1       2.216   8.867  17.707  0.00  0.00    +0.000 A 
ATOM      5  C   UNL     1       1.446   9.110  18.842  0.00  0.00    +0.000 A 
ATOM      6 CL   UNL     1       0.415  10.488  18.877  0.00  0.00    +0.000 Cl
ATOM      7  C   UNL     1       1.490   8.241  19.925  0.00  0.00    +0.000 A 
ATOM      8  C   UNL     1       2.306   7.102  19.868  0.00  0.00    +0.000 A 
ATOM      9 CL   UNL     1       2.304   6.046  21.234  0.00  0.00    +0.000 Cl
ENDBRANCH   1   2
BRANCH   1  10
ATOM     10  S   UNL     1       3.069   4.247  17.924  0.00  0.00    +0.000 S 
ATOM     11  O   UNL     1       1.875   4.653  17.211  0.00  0.00    +0.000 OA
ATOM     12  O   UNL     1       4.066   3.419  17.277  0.00  0.00    +0.000 OA
BRANCH  10  13
ATOM     13  C   UNL     1       2.491   3.346  19.367  0.00  0.00    +0.000 A 
ATOM     14  C   UNL     1       3.429   2.832  20.273  0.00  0.00    +0.000 A 
ATOM     15  C   UNL     1       3.007   2.343  21.515  0.00  0.00    +0.000 A 
ATOM     16  C   UNL     1       1.658   2.389  21.864  0.00  0.00    +0.000 A 
ATOM     17  C   UNL     1       0.721   2.890  20.959  0.00  0.00    +0.000 A 
ATOM     18  C   UNL     1       1.134   3.369  19.712  0.00  0.00    +0.000 A 
ENDBRANCH  10  13
ENDBRANCH   1  10
BRANCH   1  19
ATOM     19  C   UNL     1       5.272   5.622  18.816  0.00  0.00    +0.000 C 
BRANCH  19  21
ATOM     20  N   UNL     1       6.695   4.970  16.932  0.00  0.00    +0.000 N 
ATOM     21  C   UNL     1       6.136   6.019  17.631  0.00  0.00    +0.000 C 
ATOM     22  O   UNL     1       6.317   7.195  17.312  0.00  0.00    +0.000 OA
ATOM     23  H   UNL     1       6.649   4.032  17.303  0.00  0.00    +0.000 HD
BRANCH  20  24
ATOM     24  C   UNL     1       7.453   5.189  15.720  0.00  0.00    +0.000 C 
BRANCH  24  29
ATOM     25  C   UNL     1       4.901   2.830  11.051  0.00  0.00    +0.000 C 
ATOM     26  C   UNL     1       5.553   3.477  12.236  0.00  0.00    +0.000 A 
ATOM     27  C   UNL     1       6.859   3.973  12.160  0.00  0.00    +0.000 A 
ATOM     28  C   UNL     1       7.464   4.552  13.279  0.00  0.00    +0.000 A 
ATOM     29  C   UNL     1       6.777   4.635  14.496  0.00  0.00    +0.000 A 
ATOM     30  C   UNL     1       5.461   4.158  14.564  0.00  0.00    +0.000 A 
ATOM     31  C   UNL     1       4.854   3.578  13.442  0.00  0.00    +0.000 A 
ENDBRANCH  24  29
ENDBRANCH  20  24
ENDBRANCH  19  21
ENDBRANCH   1  19
TORSDOF 7
ENDMDL
MODEL 5
REMARK VINA RESULT:      -8.1      2.810      6.980
REMARK  Name = 
REMARK  8 active torsions:
REMARK  status: ('A' for Active; 'I' for Inactive)
REMARK    1  A    between atoms: C_1  and  C_2
REMARK    2  A    between atoms: C_5  and  C_6
REMARK    3  A    between atoms: C_6  and  N_7
REMARK    4  A    between atoms: C_8  and  C_10
REMARK    5  A    between atoms: C_10  and  N_11
REMARK    6  A    between atoms: N_11  and  C_12
REMARK    7  A    between atoms: N_11  and  S_20
REMARK    8  A    between atoms: S_20  and  C_23
REMARK                            x       y       z     vdW  Elec       q    Type
REMARK                         _______ _______ _______ _____ _____    ______ ____
ROOT
ATOM      1  N   UNL     1       4.197   5.388  18.667  0.00  0.00    +0.000 N 
ENDROOT
BRANCH   1   2
ATOM      2  C   UNL     1       3.413   6.588  18.703  0.00  0.00    +0.000 A 
ATOM      3  C   UNL     1       3.478   7.429  17.589  0.00  0.00    +0.000 A 
ATOM      4  C   UNL     1       2.647   8.548  17.497  0.00  0.00    +0.000 A 
ATOM      5  C   UNL     1       1.749   8.832  18.522  0.00  0.00    +0.000 A 
ATOM      6 CL   UNL     1       0.701  10.189  18.368  0.00  0.00    +0.000 Cl
ATOM      7  C   UNL     1       1.681   8.020  19.648  0.00  0.00    +0.000 A 
ATOM      8  C   UNL     1       2.515   6.897  19.744  0.00  0.00    +0.000 A 
ATOM      9 CL   UNL     1       2.372   5.912  21.155  0.00  0.00    +0.000 Cl
ENDBRANCH   1   2
BRANCH   1  10
ATOM     10  S   UNL     1       3.548   3.972  18.020  0.00  0.00    +0.000 S 
ATOM     11  O   UNL     1       2.537   4.333  17.046  0.00  0.00    +0.000 OA
ATOM     12  O   UNL     1       4.636   3.087  17.656  0.00  0.00    +0.000 OA
BRANCH  10  13
ATOM     13  C   UNL     1       2.662   3.190  19.373  0.00  0.00    +0.000 A 
ATOM     14  C   UNL     1       3.383   2.717  20.479  0.00  0.00    +0.000 A 
ATOM     15  C   UNL     1       2.706   2.328  21.640  0.00  0.00    +0.000 A 
ATOM     16  C   UNL     1       1.317   2.433  21.710  0.00  0.00    +0.000 A 
ATOM     17  C   UNL     1       0.597   2.892  20.606  0.00  0.00    +0.000 A 
ATOM     18  C   UNL     1       1.267   3.272  19.439  0.00  0.00    +0.000 A 
ENDBRANCH  10  13
ENDBRANCH   1  10
BRANCH   1  19
ATOM     19  C   UNL     1       5.593   5.419  19.145  0.00  0.00    +0.000 C 
BRANCH  19  21
ATOM     20  N   UNL     1       6.342   5.714  16.832  0.00  0.00    +0.000 N 
ATOM     21  C   UNL     1       6.622   5.152  18.059  0.00  0.00    +0.000 C 
ATOM     22  O   UNL     1       7.640   4.489  18.265  0.00  0.00    +0.000 OA
ATOM     23  H   UNL     1       5.436   6.123  16.657  0.00  0.00    +0.000 HD
BRANCH  20  24
ATOM     24  C   UNL     1       7.281   5.634  15.733  0.00  0.00    +0.000 C 
BRANCH  24  29
ATOM     25  C   UNL     1       5.159   2.753  11.142  0.00  0.00    +0.000 C 
ATOM     26  C   UNL     1       5.715   3.458  12.344  0.00  0.00    +0.000 A 
ATOM     27  C   UNL     1       4.987   3.532  13.537  0.00  0.00    +0.000 A 
ATOM     28  C   UNL     1       5.506   4.212  14.642  0.00  0.00    +0.000 A 
ATOM     29  C   UNL     1       6.756   4.839  14.570  0.00  0.00    +0.000 A 
ATOM     30  C   UNL     1       7.492   4.744  13.381  0.00  0.00    +0.000 A 
ATOM     31  C   UNL     1       6.973   4.062  12.274  0.00  0.00    +0.000 A 
ENDBRANCH  24  29
ENDBRANCH  20  24
ENDBRANCH  19  21
ENDBRANCH   1  19
TORSDOF 7
ENDMDL
MODEL 6
REMARK VINA RESULT:      -8.0      1.024      1.683
REMARK  Name = 
REMARK  8 active torsions:
REMARK  status: ('A' for Active; 'I' for Inactive)
REMARK    1  A    between atoms: C_1  and  C_2
REMARK    2  A    between atoms: C_5  and  C_6
REMARK    3  A    between atoms: C_6  and  N_7
REMARK    4  A    between atoms: C_8  and  C_10
REMARK    5  A    between atoms: C_10  and  N_11
REMARK    6  A    between atoms: N_11  and  C_12
REMARK    7  A    between atoms: N_11  and  S_20
REMARK    8  A    between atoms: S_20  and  C_23
REMARK                            x       y       z     vdW  Elec       q    Type
REMARK                         _______ _______ _______ _____ _____    ______ ____
ROOT
ATOM      1  N   UNL     1       4.838   4.070  18.351  0.00  0.00    +0.000 N 
ENDROOT
BRANCH   1   2
ATOM      2  C   UNL     1       5.555   4.232  17.120  0.00  0.00    +0.000 A 
ATOM      3  C   UNL     1       4.836   4.058  15.934  0.00  0.00    +0.000 A 
ATOM      4  C   UNL     1       5.433   4.325  14.699  0.00  0.00    +0.000 A 
ATOM      5  C   UNL     1       6.753   4.762  14.646  0.00  0.00    +0.000 A 
ATOM      6 CL   UNL     1       7.455   5.130  13.118  0.00  0.00    +0.000 Cl
ATOM      7  C   UNL     1       7.492   4.923  15.812  0.00  0.00    +0.000 A 
ATOM      8  C   UNL     1       6.896   4.656  17.053  0.00  0.00    +0.000 A 
ATOM      9 CL   UNL     1       7.855   4.894  18.469  0.00  0.00    +0.000 Cl
ENDBRANCH   1   2
BRANCH   1  10
ATOM     10  S   UNL     1       4.462   2.525  18.916  0.00  0.00    +0.000 S 
ATOM     11  O   UNL     1       4.510   1.605  17.797  0.00  0.00    +0.000 OA
ATOM     12  O   UNL     1       5.235   2.268  20.113  0.00  0.00    +0.000 OA
BRANCH  10  13
ATOM     13  C   UNL     1       2.736   2.602  19.407  0.00  0.00    +0.000 A 
ATOM     14  C   UNL     1       2.410   3.077  20.685  0.00  0.00    +0.000 A 
ATOM     15  C   UNL     1       1.080   3.373  21.003  0.00  0.00    +0.000 A 
ATOM     16  C   UNL     1       0.079   3.220  20.044  0.00  0.00    +0.000 A 
ATOM     17  C   UNL     1       0.399   2.737  18.774  0.00  0.00    +0.000 A 
ATOM     18  C   UNL     1       1.726   2.428  18.454  0.00  0.00    +0.000 A 
ENDBRANCH  10  13
ENDBRANCH   1  10
BRANCH   1  19
ATOM     19  C   UNL     1       4.484   5.261  19.147  0.00  0.00    +0.000 C 
BRANCH  19  21
ATOM     20  N   UNL     1       3.065   7.258  19.176  0.00  0.00    +0.000 N 
ATOM     21  C   UNL     1       3.268   6.010  18.627  0.00  0.00    +0.000 C 
ATOM     22  O   UNL     1       2.521   5.538  17.767  0.00  0.00    +0.000 OA
ATOM     23  H   UNL     1       3.605   7.552  19.978  0.00  0.00    +0.000 HD
BRANCH  20  24
ATOM     24  C   UNL     1       2.011   8.130  18.703  0.00  0.00    +0.000 C 
BRANCH  24  29
ATOM     25  C   UNL     1      -0.974  10.711  22.981  0.00  0.00    +0.000 C 
ATOM     26  C   UNL     1      -0.175  10.077  21.881  0.00  0.00    +0.000 A 
ATOM     27  C   UNL     1      -0.175  10.613  20.589  0.00  0.00    +0.000 A 
ATOM     28  C   UNL     1       0.555   9.999  19.568  0.00  0.00    +0.000 A 
ATOM     29  C   UNL     1       1.287   8.833  19.818  0.00  0.00    +0.000 A 
ATOM     30  C   UNL     1       1.303   8.310  21.119  0.00  0.00    +0.000 A 
ATOM     31  C   UNL     1       0.573   8.926  22.143  0.00  0.00    +0.000 A 
ENDBRANCH  24  29
ENDBRANCH  20  24
ENDBRANCH  19  21
ENDBRANCH   1  19
TORSDOF 7
ENDMDL
MODEL 7
REMARK VINA RESULT:      -8.0      4.936      7.810
REMARK  Name = 
REMARK  8 active torsions:
REMARK  status: ('A' for Active; 'I' for Inactive)
REMARK    1  A    between atoms: C_1  and  C_2
REMARK    2  A    between atoms: C_5  and  C_6
REMARK    3  A    between atoms: C_6  and  N_7
REMARK    4  A    between atoms: C_8  and  C_10
REMARK    5  A    between atoms: C_10  and  N_11
REMARK    6  A    between atoms: N_11  and  C_12
REMARK    7  A    between atoms: N_11  and  S_20
REMARK    8  A    between atoms: S_20  and  C_23
REMARK                            x       y       z     vdW  Elec       q    Type
REMARK                         _______ _______ _______ _____ _____    ______ ____
ROOT
ATOM      1  N   UNL     1       6.208   5.937  17.049  0.00  0.00    +0.000 N 
ENDROOT
BRANCH   1   2
ATOM      2  C   UNL     1       5.053   6.049  17.892  0.00  0.00    +0.000 A 
ATOM      3  C   UNL     1       3.960   6.760  17.387  0.00  0.00    +0.000 A 
ATOM      4  C   UNL     1       2.757   6.803  18.095  0.00  0.00    +0.000 A 
ATOM      5  C   UNL     1       2.643   6.139  19.313  0.00  0.00    +0.000 A 
ATOM      6 CL   UNL     1       1.137   6.165  20.146  0.00  0.00    +0.000 Cl
ATOM      7  C   UNL     1       3.723   5.442  19.842  0.00  0.00    +0.000 A 
ATOM      8  C   UNL     1       4.933   5.397  19.134  0.00  0.00    +0.000 A 
ATOM      9 CL   UNL     1       6.233   4.499  19.829  0.00  0.00    +0.000 Cl
ENDBRANCH   1   2
BRANCH   1  10
ATOM     10  S   UNL     1       6.657   4.436  16.424  0.00  0.00    +0.000 S 
ATOM     11  O   UNL     1       8.015   4.152  16.846  0.00  0.00    +0.000 OA
ATOM     12  O   UNL     1       5.594   3.487  16.683  0.00  0.00    +0.000 OA
BRANCH  10  13
ATOM     13  C   UNL     1       6.739   4.663  14.644  0.00  0.00    +0.000 A 
ATOM     14  C   UNL     1       7.774   5.436  14.101  0.00  0.00    +0.000 A 
ATOM     15  C   UNL     1       8.002   5.430  12.720  0.00  0.00    +0.000 A 
ATOM     16  C   UNL     1       7.216   4.637  11.884  0.00  0.00    +0.000 A 
ATOM     17  C   UNL     1       6.177   3.876  12.421  0.00  0.00    +0.000 A 
ATOM     18  C   UNL     1       5.938   3.886  13.799  0.00  0.00    +0.000 A 
ENDBRANCH  10  13
ENDBRANCH   1  10
BRANCH   1  19
ATOM     19  C   UNL     1       6.963   7.151  16.688  0.00  0.00    +0.000 C 
BRANCH  19  21
ATOM     20  N   UNL     1       8.087   9.040  17.770  0.00  0.00    +0.000 N 
ATOM     21  C   UNL     1       7.846   7.683  17.805  0.00  0.00    +0.000 C 
ATOM     22  O   UNL     1       8.306   6.953  18.684  0.00  0.00    +0.000 OA
ATOM     23  H   UNL     1       7.821   9.581  16.960  0.00  0.00    +0.000 HD
BRANCH  20  24
ATOM     24  C   UNL     1       8.822   9.704  18.825  0.00  0.00    +0.000 C 
BRANCH  24  29
ATOM     25  C   UNL     1      11.361  14.552  16.844  0.00  0.00    +0.000 C 
ATOM     26  C   UNL     1      10.717  13.314  17.394  0.00  0.00    +0.000 A 
ATOM     27  C   UNL     1      11.490  12.238  17.844  0.00  0.00    +0.000 A 
ATOM     28  C   UNL     1      10.877  11.081  18.333  0.00  0.00    +0.000 A 
ATOM     29  C   UNL     1       9.481  10.976  18.370  0.00  0.00    +0.000 A 
ATOM     30  C   UNL     1       8.710  12.064  17.940  0.00  0.00    +0.000 A 
ATOM     31  C   UNL     1       9.323  13.224  17.451  0.00  0.00    +0.000 A 
ENDBRANCH  24  29
ENDBRANCH  20  24
ENDBRANCH  19  21
ENDBRANCH   1  19
TORSDOF 7
ENDMDL
MODEL 8
REMARK VINA RESULT:      -7.9      2.391      6.938
REMARK  Name = 
REMARK  8 active torsions:
REMARK  status: ('A' for Active; 'I' for Inactive)
REMARK    1  A    between atoms: C_1  and  C_2
REMARK    2  A    between atoms: C_5  and  C_6
REMARK    3  A    between atoms: C_6  and  N_7
REMARK    4  A    between atoms: C_8  and  C_10
REMARK    5  A    between atoms: C_10  and  N_11
REMARK    6  A    between atoms: N_11  and  C_12
REMARK    7  A    between atoms: N_11  and  S_20
REMARK    8  A    between atoms: S_20  and  C_23
REMARK                            x       y       z     vdW  Elec       q    Type
REMARK                         _______ _______ _______ _____ _____    ______ ____
ROOT
ATOM      1  N   UNL     1       4.924   5.412  18.672  0.00  0.00    +0.000 N 
ENDROOT
BRANCH   1   2
ATOM      2  C   UNL     1       3.865   6.375  18.599  0.00  0.00    +0.000 A 
ATOM      3  C   UNL     1       3.109   6.584  19.756  0.00  0.00    +0.000 A 
ATOM      4  C   UNL     1       2.146   7.595  19.800  0.00  0.00    +0.000 A 
ATOM      5  C   UNL     1       1.933   8.399  18.684  0.00  0.00    +0.000 A 
ATOM      6 CL   UNL     1       0.775   9.670  18.774  0.00  0.00    +0.000 Cl
ATOM      7  C   UNL     1       2.660   8.197  17.517  0.00  0.00    +0.000 A 
ATOM      8  C   UNL     1       3.626   7.182  17.469  0.00  0.00    +0.000 A 
ATOM      9 CL   UNL     1       4.514   6.991  16.001  0.00  0.00    +0.000 Cl
ENDBRANCH   1   2
BRANCH   1  10
ATOM     10  S   UNL     1       4.591   3.770  18.477  0.00  0.00    +0.000 S 
ATOM     11  O   UNL     1       4.483   3.489  17.059  0.00  0.00    +0.000 OA
ATOM     12  O   UNL     1       5.501   3.009  19.310  0.00  0.00    +0.000 OA
BRANCH  10  13
ATOM     13  C   UNL     1       2.940   3.533  19.146  0.00  0.00    +0.000 A 
ATOM     14  C   UNL     1       1.872   3.310  18.267  0.00  0.00    +0.000 A 
ATOM     15  C   UNL     1       0.635   2.886  18.763  0.00  0.00    +0.000 A 
ATOM     16  C   UNL     1       0.467   2.661  20.129  0.00  0.00    +0.000 A 
ATOM     17  C   UNL     1       1.526   2.894  21.008  0.00  0.00    +0.000 A 
ATOM     18  C   UNL     1       2.762   3.328  20.520  0.00  0.00    +0.000 A 
ENDBRANCH  10  13
ENDBRANCH   1  10
BRANCH   1  19
ATOM     19  C   UNL     1       6.313   5.873  18.862  0.00  0.00    +0.000 C 
BRANCH  19  21
ATOM     20  N   UNL     1       7.120   5.117  16.676  0.00  0.00    +0.000 N 
ATOM     21  C   UNL     1       7.046   6.169  17.564  0.00  0.00    +0.000 C 
ATOM     22  O   UNL     1       7.532   7.275  17.319  0.00  0.00    +0.000 OA
ATOM     23  H   UNL     1       6.845   4.190  16.965  0.00  0.00    +0.000 HD
BRANCH  20  24
ATOM     24  C   UNL     1       7.695   5.281  15.358  0.00  0.00    +0.000 C 
BRANCH  24  29
ATOM     25  C   UNL     1       4.524   2.870  11.115  0.00  0.00    +0.000 C 
ATOM     26  C   UNL     1       5.346   3.452  12.225  0.00  0.00    +0.000 A 
ATOM     27  C   UNL     1       4.810   3.619  13.507  0.00  0.00    +0.000 A 
ATOM     28  C   UNL     1       5.580   4.185  14.528  0.00  0.00    +0.000 A 
ATOM     29  C   UNL     1       6.893   4.603  14.281  0.00  0.00    +0.000 A 
ATOM     30  C   UNL     1       7.434   4.414  13.002  0.00  0.00    +0.000 A 
ATOM     31  C   UNL     1       6.664   3.846  11.980  0.00  0.00    +0.000 A 
ENDBRANCH  24  29
ENDBRANCH  20  24
ENDBRANCH  19  21
ENDBRANCH   1  19
TORSDOF 7
ENDMDL
MODEL 9
REMARK VINA RESULT:      -7.9      4.977      7.829
REMARK  Name = 
REMARK  8 active torsions:
REMARK  status: ('A' for Active; 'I' for Inactive)
REMARK    1  A    between atoms: C_1  and  C_2
REMARK    2  A    between atoms: C_5  and  C_6
REMARK    3  A    between atoms: C_6  and  N_7
REMARK    4  A    between atoms: C_8  and  C_10
REMARK    5  A    between atoms: C_10  and  N_11
REMARK    6  A    between atoms: N_11  and  C_12
REMARK    7  A    between atoms: N_11  and  S_20
REMARK    8  A    between atoms: S_20  and  C_23
REMARK                            x       y       z     vdW  Elec       q    Type
REMARK                         _______ _______ _______ _____ _____    ______ ____
ROOT
ATOM      1  N   UNL     1       6.146   5.828  17.119  0.00  0.00    +0.000 N 
ENDROOT
BRANCH   1   2
ATOM      2  C   UNL     1       4.942   5.878  17.897  0.00  0.00    +0.000 A 
ATOM      3  C   UNL     1       4.914   5.133  19.079  0.00  0.00    +0.000 A 
ATOM      4  C   UNL     1       3.828   5.232  19.952  0.00  0.00    +0.000 A 
ATOM      5  C   UNL     1       2.764   6.075  19.644  0.00  0.00    +0.000 A 
ATOM      6 CL   UNL     1       1.458   6.219  20.756  0.00  0.00    +0.000 Cl
ATOM      7  C   UNL     1       2.763   6.810  18.464  0.00  0.00    +0.000 A 
ATOM      8  C   UNL     1       3.851   6.712  17.585  0.00  0.00    +0.000 A 
ATOM      9 CL   UNL     1       3.805   7.665  16.146  0.00  0.00    +0.000 Cl
ENDBRANCH   1   2
BRANCH   1  10
ATOM     10  S   UNL     1       6.703   4.355  16.514  0.00  0.00    +0.000 S 
ATOM     11  O   UNL     1       8.085   4.187  16.918  0.00  0.00    +0.000 OA
ATOM     12  O   UNL     1       5.722   3.331  16.808  0.00  0.00    +0.000 OA
BRANCH  10  13
ATOM     13  C   UNL     1       6.739   4.554  14.728  0.00  0.00    +0.000 A 
ATOM     14  C   UNL     1       7.754   5.326  14.147  0.00  0.00    +0.000 A 
ATOM     15  C   UNL     1       7.947   5.299  12.762  0.00  0.00    +0.000 A 
ATOM     16  C   UNL     1       7.148   4.486  11.959  0.00  0.00    +0.000 A 
ATOM     17  C   UNL     1       6.130   3.724  12.534  0.00  0.00    +0.000 A 
ATOM     18  C   UNL     1       5.924   3.755  13.917  0.00  0.00    +0.000 A 
ENDBRANCH  10  13
ENDBRANCH   1  10
BRANCH   1  19
ATOM     19  C   UNL     1       6.860   7.081  16.805  0.00  0.00    +0.000 C 
BRANCH  19  21
ATOM     20  N   UNL     1       8.119   8.898  17.859  0.00  0.00    +0.000 N 
ATOM     21  C   UNL     1       7.774   7.565  17.918  0.00  0.00    +0.000 C 
ATOM     22  O   UNL     1       8.172   6.819  18.815  0.00  0.00    +0.000 OA
ATOM     23  H   UNL     1       7.899   9.443  17.037  0.00  0.00    +0.000 HD
BRANCH  20  24
ATOM     24  C   UNL     1       8.896   9.524  18.907  0.00  0.00    +0.000 C 
BRANCH  24  29
ATOM     25  C   UNL     1      11.192  14.554  17.089  0.00  0.00    +0.000 C 
ATOM     26  C   UNL     1      10.603  13.272  17.597  0.00  0.00    +0.000 A 
ATOM     27  C   UNL     1      11.407  12.300  18.205  0.00  0.00    +0.000 A 
ATOM     28  C   UNL     1      10.849  11.100  18.654  0.00  0.00    +0.000 A 
ATOM     29  C   UNL     1       9.482  10.846  18.493  0.00  0.00    +0.000 A 
ATOM     30  C   UNL     1       8.676  11.829  17.904  0.00  0.00    +0.000 A 
ATOM     31  C   UNL     1       9.234  13.033  17.456  0.00  0.00    +0.000 A 
ENDBRANCH  24  29
ENDBRANCH  20  24
ENDBRANCH  19  21
ENDBRANCH   1  19
TORSDOF 7
ENDMDL
