MODEL 1
REMARK VINA RESULT:      -8.5      0.000      0.000
REMARK  Name = 
REMARK  5 active torsions:
REMARK  status: ('A' for Active; 'I' for Inactive)
REMARK    1  A    between atoms: C_1  and  C_2
REMARK    2  A    between atoms: N_5  and  C_6
REMARK    3  A    between atoms: C_6  and  C_7
REMARK    4  A    between atoms: N_19  and  C_20
REMARK    5  A    between atoms: C_20  and  C_21
REMARK                            x       y       z     vdW  Elec       q    Type
REMARK                         _______ _______ _______ _____ _____    ______ ____
ROOT
ATOM      1  C   UNL     1       2.945   5.367  19.055  0.00  0.00    +0.000 A 
ATOM      2  C   UNL     1       2.956   4.234  19.856  0.00  0.00    +0.000 A 
ATOM      3  C   UNL     1       2.201   4.498  21.008  0.00  0.00    +0.000 A 
ATOM      4  C   UNL     1       1.780   5.801  20.914  0.00  0.00    +0.000 A 
ATOM      5  N   UNL     1       2.235   6.370  19.727  0.00  0.00    +0.000 N 
ATOM      6  C   UNL     1       2.014   7.696  19.312  0.00  0.00    +0.000 A 
ATOM      7  N   UNL     1       2.434   8.215  18.183  0.00  0.00    +0.000 NA
ATOM      8  N   UNL     1       2.065   9.540  18.063  0.00  0.00    +0.000 NA
ATOM      9  C   UNL     1       1.437  10.007  19.128  0.00  0.00    +0.000 A 
ATOM     10  N   UNL     1       0.988  11.286  19.283  0.00  0.00    +0.000 N 
ATOM     11  C   UNL     1       0.962  11.921  20.611  0.00  0.00    +0.000 C 
ATOM     12  C   UNL     1       2.019  13.049  20.734  0.00  0.00    +0.000 C 
ATOM     13  N   UNL     1       2.021  14.033  19.624  0.00  0.00    +0.000 NA
ATOM     14  C   UNL     1       2.173  13.268  18.362  0.00  0.00    +0.000 C 
ATOM     15  C   UNL     1       1.082  12.201  18.134  0.00  0.00    +0.000 C 
ATOM     16  S   UNL     1       1.158   8.771  20.308  0.00  0.00    +0.000 S 
ENDROOT
BRANCH   1  17
ATOM     17  C   UNL     1       3.589   5.566  17.713  0.00  0.00    +0.000 C 
BRANCH  17  22
ATOM     18  C   UNL     1       5.757   4.061  13.913  0.00  0.00    +0.000 C 
ATOM     19  C   UNL     1       6.089   4.779  15.219  0.00  0.00    +0.000 C 
ATOM     20  C   UNL     1       5.779   3.872  16.417  0.00  0.00    +0.000 C 
ATOM     21  C   UNL     1       5.865   4.627  17.743  0.00  0.00    +0.000 C 
ATOM     22  N   UNL     1       5.040   5.845  17.794  0.00  0.00    +0.000 NA
ATOM     23  C   UNL     1       5.452   6.748  16.702  0.00  0.00    +0.000 C 
ATOM     24  C   UNL     1       5.346   6.120  15.307  0.00  0.00    +0.000 C 
ENDBRANCH  17  22
ENDBRANCH   1  17
BRANCH  13  25
ATOM     25  C   UNL     1       0.784  14.840  19.669  0.00  0.00    +0.000 C 
BRANCH  25  26
ATOM     26  C   UNL     1       0.761  16.026  18.731  0.00  0.00    +0.000 A 
ATOM     27  C   UNL     1      -0.462  16.598  18.347  0.00  0.00    +0.000 A 
ATOM     28  C   UNL     1      -0.492  17.715  17.513  0.00  0.00    +0.000 A 
ATOM     29  C   UNL     1       0.700  18.274  17.057  0.00  0.00    +0.000 A 
ATOM     30  C   UNL     1       1.920  17.711  17.429  0.00  0.00    +0.000 A 
ATOM     31  C   UNL     1       1.952  16.590  18.260  0.00  0.00    +0.000 A 
ENDBRANCH  25  26
ENDBRANCH  13  25
TORSDOF 4
ENDMDL
MODEL 2
REMARK VINA RESULT:      -8.5      3.406      5.227
REMARK  Name = 
REMARK  5 active torsions:
REMARK  status: ('A' for Active; 'I' for Inactive)
REMARK    1  A    between atoms: C_1  and  C_2
REMARK    2  A    between atoms: N_5  and  C_6
REMARK    3  A    between atoms: C_6  and  C_7
REMARK    4  A    between atoms: N_19  and  C_20
REMARK    5  A    between atoms: C_20  and  C_21
REMARK                            x       y       z     vdW  Elec       q    Type
REMARK                         _______ _______ _______ _____ _____    ______ ____
ROOT
ATOM      1  C   UNL     1       4.916   4.637  16.983  0.00  0.00    +0.000 A 
ATOM      2  C   UNL     1       5.652   4.326  15.849  0.00  0.00    +0.000 A 
ATOM      3  C   UNL     1       5.765   5.482  15.062  0.00  0.00    +0.000 A 
ATOM      4  C   UNL     1       5.059   6.467  15.706  0.00  0.00    +0.000 A 
ATOM      5  N   UNL     1       4.510   5.974  16.887  0.00  0.00    +0.000 N 
ATOM      6  C   UNL     1       3.706   6.699  17.786  0.00  0.00    +0.000 A 
ATOM      7  N   UNL     1       3.209   6.227  18.904  0.00  0.00    +0.000 NA
ATOM      8  N   UNL     1       2.457   7.176  19.567  0.00  0.00    +0.000 NA
ATOM      9  C   UNL     1       2.349   8.315  18.905  0.00  0.00    +0.000 A 
ATOM     10  N   UNL     1       1.642   9.407  19.320  0.00  0.00    +0.000 N 
ATOM     11  C   UNL     1       0.986  10.295  18.346  0.00  0.00    +0.000 C 
ATOM     12  C   UNL     1      -0.559  10.178  18.405  0.00  0.00    +0.000 C 
ATOM     13  N   UNL     1      -1.146  10.277  19.765  0.00  0.00    +0.000 NA
ATOM     14  C   UNL     1      -0.480   9.250  20.604  0.00  0.00    +0.000 C 
ATOM     15  C   UNL     1       1.055   9.385  20.669  0.00  0.00    +0.000 C 
ATOM     16  S   UNL     1       3.292   8.311  17.453  0.00  0.00    +0.000 S 
ENDROOT
BRANCH   1  17
ATOM     17  C   UNL     1       4.549   3.742  18.131  0.00  0.00    +0.000 C 
BRANCH  17  22
ATOM     18  C   UNL     1       0.584   3.542  20.508  0.00  0.00    +0.000 C 
ATOM     19  C   UNL     1       1.310   2.764  19.412  0.00  0.00    +0.000 C 
ATOM     20  C   UNL     1       2.633   2.201  19.949  0.00  0.00    +0.000 C 
ATOM     21  C   UNL     1       3.504   1.625  18.833  0.00  0.00    +0.000 C 
ATOM     22  N   UNL     1       3.755   2.561  17.725  0.00  0.00    +0.000 NA
ATOM     23  C   UNL     1       2.462   2.983  17.153  0.00  0.00    +0.000 C 
ATOM     24  C   UNL     1       1.521   3.641  18.169  0.00  0.00    +0.000 C 
ENDBRANCH  17  22
ENDBRANCH   1  17
BRANCH  13  25
ATOM     25  C   UNL     1      -0.977  11.649  20.283  0.00  0.00    +0.000 C 
BRANCH  25  26
ATOM     26  C   UNL     1      -2.071  12.120  21.213  0.00  0.00    +0.000 A 
ATOM     27  C   UNL     1      -3.225  12.730  20.695  0.00  0.00    +0.000 A 
ATOM     28  C   UNL     1      -4.256  13.133  21.542  0.00  0.00    +0.000 A 
ATOM     29  C   UNL     1      -4.147  12.928  22.916  0.00  0.00    +0.000 A 
ATOM     30  C   UNL     1      -3.005  12.326  23.442  0.00  0.00    +0.000 A 
ATOM     31  C   UNL     1      -1.969  11.926  22.596  0.00  0.00    +0.000 A 
ENDBRANCH  25  26
ENDBRANCH  13  25
TORSDOF 4
ENDMDL
MODEL 3
REMARK VINA RESULT:      -7.9      3.321      5.022
REMARK  Name = 
REMARK  5 active torsions:
REMARK  status: ('A' for Active; 'I' for Inactive)
REMARK    1  A    between atoms: C_1  and  C_2
REMARK    2  A    between atoms: N_5  and  C_6
REMARK    3  A    between atoms: C_6  and  C_7
REMARK    4  A    between atoms: N_19  and  C_20
REMARK    5  A    between atoms: C_20  and  C_21
REMARK                            x       y       z     vdW  Elec       q    Type
REMARK                         _______ _______ _______ _____ _____    ______ ____
ROOT
ATOM      1  C   UNL     1       4.977   4.660  17.055  0.00  0.00    +0.000 A 
ATOM      2  C   UNL     1       5.746   4.335  15.947  0.00  0.00    +0.000 A 
ATOM      3  C   UNL     1       5.866   5.477  15.141  0.00  0.00    +0.000 A 
ATOM      4  C   UNL     1       5.131   6.466  15.745  0.00  0.00    +0.000 A 
ATOM      5  N   UNL     1       4.557   5.990  16.922  0.00  0.00    +0.000 N 
ATOM      6  C   UNL     1       3.720   6.721  17.783  0.00  0.00    +0.000 A 
ATOM      7  N   UNL     1       3.200   6.266  18.898  0.00  0.00    +0.000 NA
ATOM      8  N   UNL     1       2.418   7.218  19.522  0.00  0.00    +0.000 NA
ATOM      9  C   UNL     1       2.313   8.342  18.834  0.00  0.00    +0.000 A 
ATOM     10  N   UNL     1       1.582   9.432  19.207  0.00  0.00    +0.000 N 
ATOM     11  C   UNL     1       0.941  10.292  18.199  0.00  0.00    +0.000 C 
ATOM     12  C   UNL     1      -0.604  10.156  18.220  0.00  0.00    +0.000 C 
ATOM     13  N   UNL     1      -1.227  10.274  19.561  0.00  0.00    +0.000 NA
ATOM     14  C   UNL     1      -0.571   9.273  20.439  0.00  0.00    +0.000 C 
ATOM     15  C   UNL     1       0.960   9.429  20.541  0.00  0.00    +0.000 C 
ATOM     16  S   UNL     1       3.294   8.321  17.408  0.00  0.00    +0.000 S 
ENDROOT
BRANCH   1  17
ATOM     17  C   UNL     1       4.591   3.783  18.212  0.00  0.00    +0.000 C 
BRANCH  17  22
ATOM     18  C   UNL     1       0.597   3.565  20.537  0.00  0.00    +0.000 C 
ATOM     19  C   UNL     1       1.346   2.782  19.461  0.00  0.00    +0.000 C 
ATOM     20  C   UNL     1       2.668   2.243  20.023  0.00  0.00    +0.000 C 
ATOM     21  C   UNL     1       3.561   1.663  18.925  0.00  0.00    +0.000 C 
ATOM     22  N   UNL     1       3.816   2.588  17.809  0.00  0.00    +0.000 NA
ATOM     23  C   UNL     1       2.526   2.988  17.215  0.00  0.00    +0.000 C 
ATOM     24  C   UNL     1       1.564   3.646  18.210  0.00  0.00    +0.000 C 
ENDBRANCH  17  22
ENDBRANCH   1  17
BRANCH  13  25
ATOM     25  C   UNL     1      -1.089  11.659  20.056  0.00  0.00    +0.000 C 
BRANCH  25  26
ATOM     26  C   UNL     1      -2.394  12.385  20.292  0.00  0.00    +0.000 A 
ATOM     27  C   UNL     1      -2.471  13.400  21.261  0.00  0.00    +0.000 A 
ATOM     28  C   UNL     1      -3.660  14.101  21.459  0.00  0.00    +0.000 A 
ATOM     29  C   UNL     1      -4.783  13.798  20.691  0.00  0.00    +0.000 A 
ATOM     30  C   UNL     1      -4.717  12.790  19.730  0.00  0.00    +0.000 A 
ATOM     31  C   UNL     1      -3.529  12.084  19.532  0.00  0.00    +0.000 A 
ENDBRANCH  25  26
ENDBRANCH  13  25
TORSDOF 4
ENDMDL
MODEL 4
REMARK VINA RESULT:      -7.9      0.766      1.731
REMARK  Name = 
REMARK  5 active torsions:
REMARK  status: ('A' for Active; 'I' for Inactive)
REMARK    1  A    between atoms: C_1  and  C_2
REMARK    2  A    between atoms: N_5  and  C_6
REMARK    3  A    between atoms: C_6  and  C_7
REMARK    4  A    between atoms: N_19  and  C_20
REMARK    5  A    between atoms: C_20  and  C_21
REMARK                            x       y       z     vdW  Elec       q    Type
REMARK                         _______ _______ _______ _____ _____    ______ ____
ROOT
ATOM      1  C   UNL     1       2.854   5.561  18.990  0.00  0.00    +0.000 A 
ATOM      2  C   UNL     1       2.851   4.418  19.776  0.00  0.00    +0.000 A 
ATOM      3  C   UNL     1       2.105   4.679  20.935  0.00  0.00    +0.000 A 
ATOM      4  C   UNL     1       1.703   5.989  20.859  0.00  0.00    +0.000 A 
ATOM      5  N   UNL     1       2.162   6.566  19.677  0.00  0.00    +0.000 N 
ATOM      6  C   UNL     1       1.959   7.900  19.281  0.00  0.00    +0.000 A 
ATOM      7  N   UNL     1       2.382   8.427  18.156  0.00  0.00    +0.000 NA
ATOM      8  N   UNL     1       2.033   9.758  18.055  0.00  0.00    +0.000 NA
ATOM      9  C   UNL     1       1.415  10.221  19.128  0.00  0.00    +0.000 A 
ATOM     10  N   UNL     1       0.986  11.505  19.301  0.00  0.00    +0.000 N 
ATOM     11  C   UNL     1       0.974  12.123  20.637  0.00  0.00    +0.000 C 
ATOM     12  C   UNL     1       2.048  13.234  20.771  0.00  0.00    +0.000 C 
ATOM     13  N   UNL     1       2.060  14.232  19.673  0.00  0.00    +0.000 NA
ATOM     14  C   UNL     1       2.197  13.481  18.400  0.00  0.00    +0.000 C 
ATOM     15  C   UNL     1       1.090  12.433  18.164  0.00  0.00    +0.000 C 
ATOM     16  S   UNL     1       1.123   8.975  20.293  0.00  0.00    +0.000 S 
ENDROOT
BRANCH   1  17
ATOM     17  C   UNL     1       3.496   5.768  17.648  0.00  0.00    +0.000 C 
BRANCH  17  22
ATOM     18  C   UNL     1       7.717   7.660  17.531  0.00  0.00    +0.000 C 
ATOM     19  C   UNL     1       7.064   6.290  17.355  0.00  0.00    +0.000 C 
ATOM     20  C   UNL     1       6.108   6.310  16.154  0.00  0.00    +0.000 C 
ATOM     21  C   UNL     1       5.254   5.044  16.084  0.00  0.00    +0.000 C 
ATOM     22  N   UNL     1       4.518   4.747  17.323  0.00  0.00    +0.000 NA
ATOM     23  C   UNL     1       5.482   4.613  18.432  0.00  0.00    +0.000 C 
ATOM     24  C   UNL     1       6.356   5.853  18.646  0.00  0.00    +0.000 C 
ENDBRANCH  17  22
ENDBRANCH   1  17
BRANCH  13  25
ATOM     25  C   UNL     1       0.837  15.056  19.733  0.00  0.00    +0.000 C 
BRANCH  25  26
ATOM     26  C   UNL     1       0.789  16.201  18.747  0.00  0.00    +0.000 A 
ATOM     27  C   UNL     1       1.978  16.726  18.216  0.00  0.00    +0.000 A 
ATOM     28  C   UNL     1       1.942  17.756  17.278  0.00  0.00    +0.000 A 
ATOM     29  C   UNL     1       0.717  18.272  16.857  0.00  0.00    +0.000 A 
ATOM     30  C   UNL     1      -0.470  17.760  17.381  0.00  0.00    +0.000 A 
ATOM     31  C   UNL     1      -0.436  16.731  18.324  0.00  0.00    +0.000 A 
ENDBRANCH  25  26
ENDBRANCH  13  25
TORSDOF 4
ENDMDL
MODEL 5
REMARK VINA RESULT:      -7.9      0.848      1.549
REMARK  Name = 
REMARK  5 active torsions:
REMARK  status: ('A' for Active; 'I' for Inactive)
REMARK    1  A    between atoms: C_1  and  C_2
REMARK    2  A    between atoms: N_5  and  C_6
REMARK    3  A    between atoms: C_6  and  C_7
REMARK    4  A    between atoms: N_19  and  C_20
REMARK    5  A    between atoms: C_20  and  C_21
REMARK                            x       y       z     vdW  Elec       q    Type
REMARK                         _______ _______ _______ _____ _____    ______ ____
ROOT
ATOM      1  C   UNL     1       3.084   5.044  19.069  0.00  0.00    +0.000 A 
ATOM      2  C   UNL     1       3.066   3.903  19.857  0.00  0.00    +0.000 A 
ATOM      3  C   UNL     1       2.246   4.145  20.969  0.00  0.00    +0.000 A 
ATOM      4  C   UNL     1       1.814   5.443  20.866  0.00  0.00    +0.000 A 
ATOM      5  N   UNL     1       2.326   6.031  19.711  0.00  0.00    +0.000 N 
ATOM      6  C   UNL     1       2.111   7.359  19.299  0.00  0.00    +0.000 A 
ATOM      7  N   UNL     1       2.584   7.895  18.200  0.00  0.00    +0.000 NA
ATOM      8  N   UNL     1       2.206   9.217  18.074  0.00  0.00    +0.000 NA
ATOM      9  C   UNL     1       1.515   9.664  19.108  0.00  0.00    +0.000 A 
ATOM     10  N   UNL     1       1.042  10.937  19.252  0.00  0.00    +0.000 N 
ATOM     11  C   UNL     1       0.935  11.556  20.583  0.00  0.00    +0.000 C 
ATOM     12  C   UNL     1       1.969  12.695  20.776  0.00  0.00    +0.000 C 
ATOM     13  N   UNL     1       2.019  13.692  19.678  0.00  0.00    +0.000 NA
ATOM     14  C   UNL     1       2.250  12.943  18.418  0.00  0.00    +0.000 C 
ATOM     15  C   UNL     1       1.187  11.865  18.120  0.00  0.00    +0.000 C 
ATOM     16  S   UNL     1       1.188   8.412  20.258  0.00  0.00    +0.000 S 
ENDROOT
BRANCH   1  17
ATOM     17  C   UNL     1       3.797   5.266  17.766  0.00  0.00    +0.000 C 
BRANCH  17  22
ATOM     18  C   UNL     1       7.702   7.736  17.527  0.00  0.00    +0.000 C 
ATOM     19  C   UNL     1       7.261   6.275  17.492  0.00  0.00    +0.000 C 
ATOM     20  C   UNL     1       6.358   6.023  16.277  0.00  0.00    +0.000 C 
ATOM     21  C   UNL     1       5.699   4.645  16.330  0.00  0.00    +0.000 C 
ATOM     22  N   UNL     1       4.967   4.378  17.579  0.00  0.00    +0.000 NA
ATOM     23  C   UNL     1       5.898   4.508  18.716  0.00  0.00    +0.000 C 
ATOM     24  C   UNL     1       6.576   5.880  18.808  0.00  0.00    +0.000 C 
ENDBRANCH  17  22
ENDBRANCH   1  17
BRANCH  13  25
ATOM     25  C   UNL     1       0.772  14.482  19.663  0.00  0.00    +0.000 C 
BRANCH  25  26
ATOM     26  C   UNL     1       0.817  15.730  18.810  0.00  0.00    +0.000 A 
ATOM     27  C   UNL     1      -0.372  16.397  18.473  0.00  0.00    +0.000 A 
ATOM     28  C   UNL     1      -0.338  17.569  17.718  0.00  0.00    +0.000 A 
ATOM     29  C   UNL     1       0.884  18.088  17.295  0.00  0.00    +0.000 A 
ATOM     30  C   UNL     1       2.070  17.431  17.621  0.00  0.00    +0.000 A 
ATOM     31  C   UNL     1       2.038  16.255  18.373  0.00  0.00    +0.000 A 
ENDBRANCH  25  26
ENDBRANCH  13  25
TORSDOF 4
ENDMDL
MODEL 6
REMARK VINA RESULT:      -7.7      3.624      4.485
REMARK  Name = 
REMARK  5 active torsions:
REMARK  status: ('A' for Active; 'I' for Inactive)
REMARK    1  A    between atoms: C_1  and  C_2
REMARK    2  A    between atoms: N_5  and  C_6
REMARK    3  A    between atoms: C_6  and  C_7
REMARK    4  A    between atoms: N_19  and  C_20
REMARK    5  A    between atoms: C_20  and  C_21
REMARK                            x       y       z     vdW  Elec       q    Type
REMARK                         _______ _______ _______ _____ _____    ______ ____
ROOT
ATOM      1  C   UNL     1       4.162   4.353  19.063  0.00  0.00    +0.000 A 
ATOM      2  C   UNL     1       4.464   3.027  19.338  0.00  0.00    +0.000 A 
ATOM      3  C   UNL     1       3.470   2.514  20.186  0.00  0.00    +0.000 A 
ATOM      4  C   UNL     1       2.605   3.545  20.450  0.00  0.00    +0.000 A 
ATOM      5  N   UNL     1       3.012   4.699  19.784  0.00  0.00    +0.000 N 
ATOM      6  C   UNL     1       2.376   5.952  19.845  0.00  0.00    +0.000 A 
ATOM      7  N   UNL     1       2.760   7.027  19.199  0.00  0.00    +0.000 NA
ATOM      8  N   UNL     1       1.938   8.103  19.466  0.00  0.00    +0.000 NA
ATOM      9  C   UNL     1       0.997   7.835  20.355  0.00  0.00    +0.000 A 
ATOM     10  N   UNL     1       0.070   8.724  20.817  0.00  0.00    +0.000 N 
ATOM     11  C   UNL     1      -0.438   8.635  22.196  0.00  0.00    +0.000 C 
ATOM     12  C   UNL     1       0.062   9.812  23.074  0.00  0.00    +0.000 C 
ATOM     13  N   UNL     1      -0.115  11.159  22.479  0.00  0.00    +0.000 NA
ATOM     14  C   UNL     1       0.546  11.141  21.150  0.00  0.00    +0.000 C 
ATOM     15  C   UNL     1       0.011  10.056  20.194  0.00  0.00    +0.000 C 
ATOM     16  S   UNL     1       1.007   6.169  20.825  0.00  0.00    +0.000 S 
ENDROOT
BRANCH   1  17
ATOM     17  C   UNL     1       4.910   5.317  18.188  0.00  0.00    +0.000 C 
BRANCH  17  22
ATOM     18  C   UNL     1       8.066   8.681  17.825  0.00  0.00    +0.000 C 
ATOM     19  C   UNL     1       7.959   7.174  17.600  0.00  0.00    +0.000 C 
ATOM     20  C   UNL     1       6.931   6.874  16.502  0.00  0.00    +0.000 C 
ATOM     21  C   UNL     1       6.613   5.382  16.409  0.00  0.00    +0.000 C 
ATOM     22  N   UNL     1       6.194   4.778  17.685  0.00  0.00    +0.000 NA
ATOM     23  C   UNL     1       7.262   4.979  18.683  0.00  0.00    +0.000 C 
ATOM     24  C   UNL     1       7.626   6.450  18.913  0.00  0.00    +0.000 C 
ENDBRANCH  17  22
ENDBRANCH   1  17
BRANCH  13  25
ATOM     25  C   UNL     1      -1.552  11.490  22.408  0.00  0.00    +0.000 C 
BRANCH  25  26
ATOM     26  C   UNL     1      -1.972  12.692  23.223  0.00  0.00    +0.000 A 
ATOM     27  C   UNL     1      -3.250  12.740  23.804  0.00  0.00    +0.000 A 
ATOM     28  C   UNL     1      -3.631  13.828  24.589  0.00  0.00    +0.000 A 
ATOM     29  C   UNL     1      -2.740  14.878  24.802  0.00  0.00    +0.000 A 
ATOM     30  C   UNL     1      -1.471  14.842  24.227  0.00  0.00    +0.000 A 
ATOM     31  C   UNL     1      -1.088  13.756  23.437  0.00  0.00    +0.000 A 
ENDBRANCH  25  26
ENDBRANCH  13  25
TORSDOF 4
ENDMDL
MODEL 7
REMARK VINA RESULT:      -7.6      2.028      9.491
REMARK  Name = 
REMARK  5 active torsions:
REMARK  status: ('A' for Active; 'I' for Inactive)
REMARK    1  A    between atoms: C_1  and  C_2
REMARK    2  A    between atoms: N_5  and  C_6
REMARK    3  A    between atoms: C_6  and  C_7
REMARK    4  A    between atoms: N_19  and  C_20
REMARK    5  A    between atoms: C_20  and  C_21
REMARK                            x       y       z     vdW  Elec       q    Type
REMARK                         _______ _______ _______ _____ _____    ______ ____
ROOT
ATOM      1  C   UNL     1      -1.233  11.891  21.364  0.00  0.00    +0.000 A 
ATOM      2  C   UNL     1      -2.060  12.328  22.389  0.00  0.00    +0.000 A 
ATOM      3  C   UNL     1      -1.937  11.440  23.467  0.00  0.00    +0.000 A 
ATOM      4  C   UNL     1      -1.073  10.451  23.068  0.00  0.00    +0.000 A 
ATOM      5  N   UNL     1      -0.632  10.693  21.768  0.00  0.00    +0.000 N 
ATOM      6  C   UNL     1       0.241   9.874  21.030  0.00  0.00    +0.000 A 
ATOM      7  N   UNL     1       0.663  10.122  19.813  0.00  0.00    +0.000 NA
ATOM      8  N   UNL     1       1.507   9.130  19.354  0.00  0.00    +0.000 NA
ATOM      9  C   UNL     1       1.649   8.129  20.205  0.00  0.00    +0.000 A 
ATOM     10  N   UNL     1       2.404   7.011  19.992  0.00  0.00    +0.000 N 
ATOM     11  C   UNL     1       2.006   5.713  20.561  0.00  0.00    +0.000 C 
ATOM     12  C   UNL     1       1.537   4.720  19.466  0.00  0.00    +0.000 C 
ATOM     13  N   UNL     1       2.450   4.587  18.305  0.00  0.00    +0.000 NA
ATOM     14  C   UNL     1       2.668   5.950  17.760  0.00  0.00    +0.000 C 
ATOM     15  C   UNL     1       3.238   6.955  18.781  0.00  0.00    +0.000 C 
ATOM     16  S   UNL     1       0.825   8.426  21.698  0.00  0.00    +0.000 S 
ENDROOT
BRANCH   1  17
ATOM     17  C   UNL     1      -1.002  12.520  20.020  0.00  0.00    +0.000 C 
BRANCH  17  22
ATOM     18  C   UNL     1       3.247  13.069  18.275  0.00  0.00    +0.000 C 
ATOM     19  C   UNL     1       2.138  13.918  18.891  0.00  0.00    +0.000 C 
ATOM     20  C   UNL     1       1.881  13.485  20.340  0.00  0.00    +0.000 C 
ATOM     21  C   UNL     1       0.624  14.137  20.917  0.00  0.00    +0.000 C 
ATOM     22  N   UNL     1      -0.583  13.938  20.100  0.00  0.00    +0.000 NA
ATOM     23  C   UNL     1      -0.341  14.479  18.749  0.00  0.00    +0.000 C 
ATOM     24  C   UNL     1       0.863  13.851  18.037  0.00  0.00    +0.000 C 
ENDBRANCH  17  22
ENDBRANCH   1  17
BRANCH  13  25
ATOM     25  C   UNL     1       3.701   3.924  18.726  0.00  0.00    +0.000 C 
BRANCH  25  26
ATOM     26  C   UNL     1       4.871   4.110  17.787  0.00  0.00    +0.000 A 
ATOM     27  C   UNL     1       6.090   4.613  18.268  0.00  0.00    +0.000 A 
ATOM     28  C   UNL     1       7.186   4.751  17.417  0.00  0.00    +0.000 A 
ATOM     29  C   UNL     1       7.075   4.388  16.076  0.00  0.00    +0.000 A 
ATOM     30  C   UNL     1       5.868   3.892  15.587  0.00  0.00    +0.000 A 
ATOM     31  C   UNL     1       4.768   3.756  16.437  0.00  0.00    +0.000 A 
ENDBRANCH  25  26
ENDBRANCH  13  25
TORSDOF 4
ENDMDL
MODEL 8
REMARK VINA RESULT:      -7.4      2.226      2.870
REMARK  Name = 
REMARK  5 active torsions:
REMARK  status: ('A' for Active; 'I' for Inactive)
REMARK    1  A    between atoms: C_1  and  C_2
REMARK    2  A    between atoms: N_5  and  C_6
REMARK    3  A    between atoms: C_6  and  C_7
REMARK    4  A    between atoms: N_19  and  C_20
REMARK    5  A    between atoms: C_20  and  C_21
REMARK                            x       y       z     vdW  Elec       q    Type
REMARK                         _______ _______ _______ _____ _____    ______ ____
ROOT
ATOM      1  C   UNL     1       3.387   4.651  19.043  0.00  0.00    +0.000 A 
ATOM      2  C   UNL     1       3.626   3.481  19.749  0.00  0.00    +0.000 A 
ATOM      3  C   UNL     1       2.925   3.545  20.963  0.00  0.00    +0.000 A 
ATOM      4  C   UNL     1       2.306   4.769  20.997  0.00  0.00    +0.000 A 
ATOM      5  N   UNL     1       2.584   5.483  19.833  0.00  0.00    +0.000 N 
ATOM      6  C   UNL     1       2.136   6.783  19.539  0.00  0.00    +0.000 A 
ATOM      7  N   UNL     1       2.390   7.438  18.431  0.00  0.00    +0.000 NA
ATOM      8  N   UNL     1       1.818   8.694  18.439  0.00  0.00    +0.000 NA
ATOM      9  C   UNL     1       1.205   8.983  19.574  0.00  0.00    +0.000 A 
ATOM     10  N   UNL     1       0.580  10.163  19.856  0.00  0.00    +0.000 N 
ATOM     11  C   UNL     1       0.554  10.693  21.230  0.00  0.00    +0.000 C 
ATOM     12  C   UNL     1       1.434  11.961  21.378  0.00  0.00    +0.000 C 
ATOM     13  N   UNL     1       1.208  13.007  20.351  0.00  0.00    +0.000 NA
ATOM     14  C   UNL     1       1.384  12.364  19.025  0.00  0.00    +0.000 C 
ATOM     15  C   UNL     1       0.453  11.159  18.780  0.00  0.00    +0.000 C 
ATOM     16  S   UNL     1       1.201   7.641  20.667  0.00  0.00    +0.000 S 
ENDROOT
BRANCH   1  17
ATOM     17  C   UNL     1       3.895   5.040  17.685  0.00  0.00    +0.000 C 
BRANCH  17  22
ATOM     18  C   UNL     1       6.249   4.052  13.826  0.00  0.00    +0.000 C 
ATOM     19  C   UNL     1       6.436   4.848  15.116  0.00  0.00    +0.000 C 
ATOM     20  C   UNL     1       6.392   3.909  16.329  0.00  0.00    +0.000 C 
ATOM     21  C   UNL     1       6.331   4.681  17.647  0.00  0.00    +0.000 C 
ATOM     22  N   UNL     1       5.238   5.663  17.717  0.00  0.00    +0.000 NA
ATOM     23  C   UNL     1       5.386   6.624  16.607  0.00  0.00    +0.000 C 
ATOM     24  C   UNL     1       5.393   5.970  15.220  0.00  0.00    +0.000 C 
ENDBRANCH  17  22
ENDBRANCH   1  17
BRANCH  13  25
ATOM     25  C   UNL     1      -0.129  13.606  20.534  0.00  0.00    +0.000 C 
BRANCH  25  26
ATOM     26  C   UNL     1      -0.330  14.332  21.844  0.00  0.00    +0.000 A 
ATOM     27  C   UNL     1       0.339  15.542  22.091  0.00  0.00    +0.000 A 
ATOM     28  C   UNL     1       0.130  16.238  23.281  0.00  0.00    +0.000 A 
ATOM     29  C   UNL     1      -0.751  15.734  24.237  0.00  0.00    +0.000 A 
ATOM     30  C   UNL     1      -1.417  14.532  24.003  0.00  0.00    +0.000 A 
ATOM     31  C   UNL     1      -1.206  13.831  22.814  0.00  0.00    +0.000 A 
ENDBRANCH  25  26
ENDBRANCH  13  25
TORSDOF 4
ENDMDL
MODEL 9
REMARK VINA RESULT:      -7.4      3.217      4.185
REMARK  Name = 
REMARK  5 active torsions:
REMARK  status: ('A' for Active; 'I' for Inactive)
REMARK    1  A    between atoms: C_1  and  C_2
REMARK    2  A    between atoms: N_5  and  C_6
REMARK    3  A    between atoms: C_6  and  C_7
REMARK    4  A    between atoms: N_19  and  C_20
REMARK    5  A    between atoms: C_20  and  C_21
REMARK                            x       y       z     vdW  Elec       q    Type
REMARK                         _______ _______ _______ _____ _____    ______ ____
ROOT
ATOM      1  C   UNL     1       4.216   4.088  19.137  0.00  0.00    +0.000 A 
ATOM      2  C   UNL     1       4.445   2.812  19.631  0.00  0.00    +0.000 A 
ATOM      3  C   UNL     1       3.450   2.517  20.575  0.00  0.00    +0.000 A 
ATOM      4  C   UNL     1       2.658   3.634  20.675  0.00  0.00    +0.000 A 
ATOM      5  N   UNL     1       3.113   4.627  19.811  0.00  0.00    +0.000 N 
ATOM      6  C   UNL     1       2.557   5.911  19.669  0.00  0.00    +0.000 A 
ATOM      7  N   UNL     1       2.985   6.832  18.839  0.00  0.00    +0.000 NA
ATOM      8  N   UNL     1       2.239   7.990  18.934  0.00  0.00    +0.000 NA
ATOM      9  C   UNL     1       1.312   7.940  19.876  0.00  0.00    +0.000 A 
ATOM     10  N   UNL     1       0.457   8.954  20.197  0.00  0.00    +0.000 N 
ATOM     11  C   UNL     1      -0.011   9.135  21.581  0.00  0.00    +0.000 C 
ATOM     12  C   UNL     1       0.588  10.410  22.232  0.00  0.00    +0.000 C 
ATOM     13  N   UNL     1       0.475  11.644  21.417  0.00  0.00    +0.000 NA
ATOM     14  C   UNL     1       1.090  11.356  20.098  0.00  0.00    +0.000 C 
ATOM     15  C   UNL     1       0.459  10.160  19.355  0.00  0.00    +0.000 C 
ATOM     16  S   UNL     1       1.236   6.382  20.626  0.00  0.00    +0.000 S 
ENDROOT
BRANCH   1  17
ATOM     17  C   UNL     1       4.993   4.837  18.093  0.00  0.00    +0.000 C 
BRANCH  17  22
ATOM     18  C   UNL     1       7.837   8.459  17.640  0.00  0.00    +0.000 C 
ATOM     19  C   UNL     1       7.917   6.936  17.723  0.00  0.00    +0.000 C 
ATOM     20  C   UNL     1       7.180   6.301  16.536  0.00  0.00    +0.000 C 
ATOM     21  C   UNL     1       7.025   4.789  16.702  0.00  0.00    +0.000 C 
ATOM     22  N   UNL     1       6.398   4.387  17.972  0.00  0.00    +0.000 NA
ATOM     23  C   UNL     1       7.204   4.911  19.091  0.00  0.00    +0.000 C 
ATOM     24  C   UNL     1       7.376   6.434  19.070  0.00  0.00    +0.000 C 
ENDBRANCH  17  22
ENDBRANCH   1  17
BRANCH  13  25
ATOM     25  C   UNL     1      -0.942  12.052  21.321  0.00  0.00    +0.000 C 
BRANCH  25  26
ATOM     26  C   UNL     1      -1.442  12.899  22.468  0.00  0.00    +0.000 A 
ATOM     27  C   UNL     1      -0.736  14.049  22.858  0.00  0.00    +0.000 A 
ATOM     28  C   UNL     1      -1.210  14.856  23.890  0.00  0.00    +0.000 A 
ATOM     29  C   UNL     1      -2.396  14.526  24.543  0.00  0.00    +0.000 A 
ATOM     30  C   UNL     1      -3.103  13.385  24.167  0.00  0.00    +0.000 A 
ATOM     31  C   UNL     1      -2.627  12.572  23.136  0.00  0.00    +0.000 A 
ENDBRANCH  25  26
ENDBRANCH  13  25
TORSDOF 4
ENDMDL
