MODEL 1
REMARK VINA RESULT:      -7.8      0.000      0.000
REMARK  Name = 
REMARK  6 active torsions:
REMARK  status: ('A' for Active; 'I' for Inactive)
REMARK    1  A    between atoms: C_1  and  C_2
REMARK    2  A    between atoms: C_2  and  N_3
REMARK    3  A    between atoms: C_2  and  C_13
REMARK    4  A    between atoms: N_3  and  S_4
REMARK    5  A    between atoms: S_4  and  C_7
REMARK    6  A    between atoms: C_7  and  C_8
REMARK                            x       y       z     vdW  Elec       q    Type
REMARK                         _______ _______ _______ _____ _____    ______ ____
ROOT
ATOM      1  N   UNL     1       5.638   3.538  18.507  0.00  0.00    +0.000 NA
ATOM      2  H   UNL     1       5.911   2.834  19.195  0.00  0.00    +0.000 HD
ENDROOT
BRANCH   1   3
ATOM      3  S   UNL     1       6.643   4.877  18.538  0.00  0.00    +0.000 S 
ATOM      4  O   UNL     1       6.317   5.561  19.775  0.00  0.00    +0.000 OA
ATOM      5  O   UNL     1       7.996   4.454  18.263  0.00  0.00    +0.000 OA
BRANCH   3   6
ATOM      6  C   UNL     1       6.032   5.873  17.181  0.00  0.00    +0.000 C 
BRANCH   6   7
ATOM      7  C   UNL     1       6.427   5.382  15.841  0.00  0.00    +0.000 A 
ATOM      8  C   UNL     1       5.772   4.494  14.951  0.00  0.00    +0.000 A 
ATOM      9  C   UNL     1       6.620   4.417  13.873  0.00  0.00    +0.000 A 
ATOM     10  O   UNL     1       7.714   5.182  14.100  0.00  0.00    +0.000 OA
ATOM     11  N   UNL     1       7.601   5.789  15.338  0.00  0.00    +0.000 NA
ENDBRANCH   6   7
ENDBRANCH   3   6
ENDBRANCH   1   3
BRANCH   1  13
ATOM     12  C   UNL     1       3.762   2.455  17.257  0.00  0.00    +0.000 C 
ATOM     13  C   UNL     1       4.205   3.599  18.164  0.00  0.00    +0.000 C 
BRANCH  13  14
ATOM     14  C   UNL     1       3.298   3.711  19.384  0.00  0.00    +0.000 A 
ATOM     15  C   UNL     1       3.404   2.701  20.356  0.00  0.00    +0.000 A 
ATOM     16  F   UNL     1       4.367   1.774  20.240  0.00  0.00    +0.000 F 
ATOM     17  C   UNL     1       2.533   2.607  21.439  0.00  0.00    +0.000 A 
ATOM     18  C   UNL     1       1.511   3.537  21.578  0.00  0.00    +0.000 A 
ATOM     19  C   UNL     1       1.433   4.602  20.683  0.00  0.00    +0.000 A 
ATOM     20  C   UNL     1       2.343   4.714  19.620  0.00  0.00    +0.000 A 
ATOM     21 CL   UNL     1       2.226   6.149  18.666  0.00  0.00    +0.000 Cl
ENDBRANCH  13  14
ENDBRANCH   1  13
TORSDOF 5
ENDMDL
MODEL 2
REMARK VINA RESULT:      -7.7      2.037      2.431
REMARK  Name = 
REMARK  6 active torsions:
REMARK  status: ('A' for Active; 'I' for Inactive)
REMARK    1  A    between atoms: C_1  and  C_2
REMARK    2  A    between atoms: C_2  and  N_3
REMARK    3  A    between atoms: C_2  and  C_13
REMARK    4  A    between atoms: N_3  and  S_4
REMARK    5  A    between atoms: S_4  and  C_7
REMARK    6  A    between atoms: C_7  and  C_8
REMARK                            x       y       z     vdW  Elec       q    Type
REMARK                         _______ _______ _______ _____ _____    ______ ____
ROOT
ATOM      1  N   UNL     1       4.831   5.579  17.921  0.00  0.00    +0.000 NA
ATOM      2  H   UNL     1       4.726   5.272  16.953  0.00  0.00    +0.000 HD
ENDROOT
BRANCH   1   3
ATOM      3  S   UNL     1       6.012   4.716  18.735  0.00  0.00    +0.000 S 
ATOM      4  O   UNL     1       6.370   5.549  19.867  0.00  0.00    +0.000 OA
ATOM      5  O   UNL     1       5.552   3.362  18.931  0.00  0.00    +0.000 OA
BRANCH   3   6
ATOM      6  C   UNL     1       7.387   4.729  17.587  0.00  0.00    +0.000 C 
BRANCH   6   7
ATOM      7  C   UNL     1       6.988   4.647  16.162  0.00  0.00    +0.000 A 
ATOM      8  C   UNL     1       6.180   3.702  15.480  0.00  0.00    +0.000 A 
ATOM      9  C   UNL     1       6.175   4.145  14.180  0.00  0.00    +0.000 A 
ATOM     10  O   UNL     1       6.938   5.260  14.077  0.00  0.00    +0.000 OA
ATOM     11  N   UNL     1       7.455   5.578  15.319  0.00  0.00    +0.000 NA
ENDBRANCH   6   7
ENDBRANCH   3   6
ENDBRANCH   1   3
BRANCH   1  13
ATOM     12  C   UNL     1       2.994   7.270  17.781  0.00  0.00    +0.000 C 
ATOM     13  C   UNL     1       3.625   6.127  18.569  0.00  0.00    +0.000 C 
BRANCH  13  14
ATOM     14  C   UNL     1       2.589   5.062  18.912  0.00  0.00    +0.000 A 
ATOM     15  C   UNL     1       1.886   5.219  20.119  0.00  0.00    +0.000 A 
ATOM     16  F   UNL     1       2.053   6.339  20.838  0.00  0.00    +0.000 F 
ATOM     17  C   UNL     1       1.024   4.245  20.617  0.00  0.00    +0.000 A 
ATOM     18  C   UNL     1       0.844   3.063  19.909  0.00  0.00    +0.000 A 
ATOM     19  C   UNL     1       1.456   2.914  18.666  0.00  0.00    +0.000 A 
ATOM     20  C   UNL     1       2.287   3.922  18.150  0.00  0.00    +0.000 A 
ATOM     21 CL   UNL     1       2.873   3.676  16.544  0.00  0.00    +0.000 Cl
ENDBRANCH  13  14
ENDBRANCH   1  13
TORSDOF 5
ENDMDL
MODEL 3
REMARK VINA RESULT:      -7.6      1.683      1.961
REMARK  Name = 
REMARK  6 active torsions:
REMARK  status: ('A' for Active; 'I' for Inactive)
REMARK    1  A    between atoms: C_1  and  C_2
REMARK    2  A    between atoms: C_2  and  N_3
REMARK    3  A    between atoms: C_2  and  C_13
REMARK    4  A    between atoms: N_3  and  S_4
REMARK    5  A    between atoms: S_4  and  C_7
REMARK    6  A    between atoms: C_7  and  C_8
REMARK                            x       y       z     vdW  Elec       q    Type
REMARK                         _______ _______ _______ _____ _____    ______ ____
ROOT
ATOM      1  N   UNL     1       5.250   3.539  18.172  0.00  0.00    +0.000 NA
ATOM      2  H   UNL     1       5.640   2.718  18.635  0.00  0.00    +0.000 HD
ENDROOT
BRANCH   1   3
ATOM      3  S   UNL     1       6.108   4.933  18.524  0.00  0.00    +0.000 S 
ATOM      4  O   UNL     1       5.456   5.488  19.694  0.00  0.00    +0.000 OA
ATOM      5  O   UNL     1       7.519   4.624  18.542  0.00  0.00    +0.000 OA
BRANCH   3   6
ATOM      6  C   UNL     1       5.740   5.998  17.131  0.00  0.00    +0.000 C 
BRANCH   6   7
ATOM      7  C   UNL     1       6.266   5.507  15.836  0.00  0.00    +0.000 A 
ATOM      8  C   UNL     1       5.664   4.696  14.841  0.00  0.00    +0.000 A 
ATOM      9  C   UNL     1       6.635   4.576  13.877  0.00  0.00    +0.000 A 
ATOM     10  O   UNL     1       7.747   5.245  14.267  0.00  0.00    +0.000 OA
ATOM     11  N   UNL     1       7.522   5.830  15.500  0.00  0.00    +0.000 NA
ENDBRANCH   6   7
ENDBRANCH   3   6
ENDBRANCH   1   3
BRANCH   1  13
ATOM     12  C   UNL     1       3.408   2.525  16.818  0.00  0.00    +0.000 C 
ATOM     13  C   UNL     1       3.799   3.517  17.908  0.00  0.00    +0.000 C 
BRANCH  13  14
ATOM     14  C   UNL     1       2.963   3.305  19.166  0.00  0.00    +0.000 A 
ATOM     15  C   UNL     1       1.658   3.828  19.162  0.00  0.00    +0.000 A 
ATOM     16  F   UNL     1       1.166   4.363  18.034  0.00  0.00    +0.000 F 
ATOM     17  C   UNL     1       0.848   3.833  20.295  0.00  0.00    +0.000 A 
ATOM     18  C   UNL     1       1.334   3.308  21.486  0.00  0.00    +0.000 A 
ATOM     19  C   UNL     1       2.587   2.701  21.501  0.00  0.00    +0.000 A 
ATOM     20  C   UNL     1       3.379   2.660  20.342  0.00  0.00    +0.000 A 
ATOM     21 CL   UNL     1       4.849   1.761  20.456  0.00  0.00    +0.000 Cl
ENDBRANCH  13  14
ENDBRANCH   1  13
TORSDOF 5
ENDMDL
MODEL 4
REMARK VINA RESULT:      -7.6      0.926      1.018
REMARK  Name = 
REMARK  6 active torsions:
REMARK  status: ('A' for Active; 'I' for Inactive)
REMARK    1  A    between atoms: C_1  and  C_2
REMARK    2  A    between atoms: C_2  and  N_3
REMARK    3  A    between atoms: C_2  and  C_13
REMARK    4  A    between atoms: N_3  and  S_4
REMARK    5  A    between atoms: S_4  and  C_7
REMARK    6  A    between atoms: C_7  and  C_8
REMARK                            x       y       z     vdW  Elec       q    Type
REMARK                         _______ _______ _______ _____ _____    ______ ____
ROOT
ATOM      1  N   UNL     1       5.660   3.528  19.047  0.00  0.00    +0.000 NA
ATOM      2  H   UNL     1       5.904   3.050  19.915  0.00  0.00    +0.000 HD
ENDROOT
BRANCH   1   3
ATOM      3  S   UNL     1       6.483   4.974  18.867  0.00  0.00    +0.000 S 
ATOM      4  O   UNL     1       5.499   5.901  18.342  0.00  0.00    +0.000 OA
ATOM      5  O   UNL     1       7.193   5.266  20.089  0.00  0.00    +0.000 OA
BRANCH   3   6
ATOM      6  C   UNL     1       7.653   4.614  17.558  0.00  0.00    +0.000 C 
BRANCH   6   7
ATOM      7  C   UNL     1       7.060   4.604  16.201  0.00  0.00    +0.000 A 
ATOM      8  C   UNL     1       6.478   3.549  15.454  0.00  0.00    +0.000 A 
ATOM      9  C   UNL     1       6.113   4.141  14.269  0.00  0.00    +0.000 A 
ATOM     10  O   UNL     1       6.466   5.449  14.288  0.00  0.00    +0.000 OA
ATOM     11  N   UNL     1       7.065   5.745  15.499  0.00  0.00    +0.000 NA
ENDBRANCH   6   7
ENDBRANCH   3   6
ENDBRANCH   1   3
BRANCH   1  13
ATOM     12  C   UNL     1       4.170   1.961  17.790  0.00  0.00    +0.000 C 
ATOM     13  C   UNL     1       4.300   3.290  18.527  0.00  0.00    +0.000 C 
BRANCH  13  14
ATOM     14  C   UNL     1       3.216   3.434  19.589  0.00  0.00    +0.000 A 
ATOM     15  C   UNL     1       3.328   2.623  20.732  0.00  0.00    +0.000 A 
ATOM     16  F   UNL     1       4.426   1.870  20.901  0.00  0.00    +0.000 F 
ATOM     17  C   UNL     1       2.331   2.551  21.702  0.00  0.00    +0.000 A 
ATOM     18  C   UNL     1       1.171   3.300  21.548  0.00  0.00    +0.000 A 
ATOM     19  C   UNL     1       1.067   4.181  20.474  0.00  0.00    +0.000 A 
ATOM     20  C   UNL     1       2.098   4.281  19.525  0.00  0.00    +0.000 A 
ATOM     21 CL   UNL     1       1.908   5.505  18.322  0.00  0.00    +0.000 Cl
ENDBRANCH  13  14
ENDBRANCH   1  13
TORSDOF 5
ENDMDL
MODEL 5
REMARK VINA RESULT:      -7.4      2.382      2.965
REMARK  Name = 
REMARK  6 active torsions:
REMARK  status: ('A' for Active; 'I' for Inactive)
REMARK    1  A    between atoms: C_1  and  C_2
REMARK    2  A    between atoms: C_2  and  N_3
REMARK    3  A    between atoms: C_2  and  C_13
REMARK    4  A    between atoms: N_3  and  S_4
REMARK    5  A    between atoms: S_4  and  C_7
REMARK    6  A    between atoms: C_7  and  C_8
REMARK                            x       y       z     vdW  Elec       q    Type
REMARK                         _______ _______ _______ _____ _____    ______ ____
ROOT
ATOM      1  N   UNL     1       5.315   4.709  19.140  0.00  0.00    +0.000 NA
ATOM      2  H   UNL     1       5.149   4.551  20.135  0.00  0.00    +0.000 HD
ENDROOT
BRANCH   1   3
ATOM      3  S   UNL     1       6.777   5.473  18.855  0.00  0.00    +0.000 S 
ATOM      4  O   UNL     1       6.427   6.710  18.182  0.00  0.00    +0.000 OA
ATOM      5  O   UNL     1       7.544   5.491  20.079  0.00  0.00    +0.000 OA
BRANCH   3   6
ATOM      6  C   UNL     1       7.569   4.400  17.660  0.00  0.00    +0.000 C 
BRANCH   6   7
ATOM      7  C   UNL     1       7.063   4.556  16.276  0.00  0.00    +0.000 A 
ATOM      8  C   UNL     1       6.092   3.814  15.557  0.00  0.00    +0.000 A 
ATOM      9  C   UNL     1       6.052   4.422  14.326  0.00  0.00    +0.000 A 
ATOM     10  O   UNL     1       6.945   5.440  14.293  0.00  0.00    +0.000 OA
ATOM     11  N   UNL     1       7.586   5.528  15.516  0.00  0.00    +0.000 NA
ENDBRANCH   6   7
ENDBRANCH   3   6
ENDBRANCH   1   3
BRANCH   1  13
ATOM     12  C   UNL     1       3.382   3.584  18.022  0.00  0.00    +0.000 C 
ATOM     13  C   UNL     1       4.119   4.890  18.296  0.00  0.00    +0.000 C 
BRANCH  13  14
ATOM     14  C   UNL     1       3.165   5.956  18.825  0.00  0.00    +0.000 A 
ATOM     15  C   UNL     1       3.005   7.114  18.045  0.00  0.00    +0.000 A 
ATOM     16  F   UNL     1       3.579   7.178  16.834  0.00  0.00    +0.000 F 
ATOM     17  C   UNL     1       2.282   8.221  18.485  0.00  0.00    +0.000 A 
ATOM     18  C   UNL     1       1.693   8.198  19.743  0.00  0.00    +0.000 A 
ATOM     19  C   UNL     1       1.757   7.032  20.503  0.00  0.00    +0.000 A 
ATOM     20  C   UNL     1       2.449   5.905  20.032  0.00  0.00    +0.000 A 
ATOM     21 CL   UNL     1       2.338   4.482  21.005  0.00  0.00    +0.000 Cl
ENDBRANCH  13  14
ENDBRANCH   1  13
TORSDOF 5
ENDMDL
MODEL 6
REMARK VINA RESULT:      -7.3      2.022      2.452
REMARK  Name = 
REMARK  6 active torsions:
REMARK  status: ('A' for Active; 'I' for Inactive)
REMARK    1  A    between atoms: C_1  and  C_2
REMARK    2  A    between atoms: C_2  and  N_3
REMARK    3  A    between atoms: C_2  and  C_13
REMARK    4  A    between atoms: N_3  and  S_4
REMARK    5  A    between atoms: S_4  and  C_7
REMARK    6  A    between atoms: C_7  and  C_8
REMARK                            x       y       z     vdW  Elec       q    Type
REMARK                         _______ _______ _______ _____ _____    ______ ____
ROOT
ATOM      1  N   UNL     1       4.630   5.820  17.350  0.00  0.00    +0.000 NA
ATOM      2  H   UNL     1       3.679   6.077  17.082  0.00  0.00    +0.000 HD
ENDROOT
BRANCH   1   3
ATOM      3  S   UNL     1       5.766   6.351  16.241  0.00  0.00    +0.000 S 
ATOM      4  O   UNL     1       4.995   6.766  15.085  0.00  0.00    +0.000 OA
ATOM      5  O   UNL     1       6.667   7.271  16.895  0.00  0.00    +0.000 OA
BRANCH   3   6
ATOM      6  C   UNL     1       6.642   4.850  15.808  0.00  0.00    +0.000 C 
BRANCH   6   7
ATOM      7  C   UNL     1       6.872   4.680  14.354  0.00  0.00    +0.000 A 
ATOM      8  C   UNL     1       6.277   3.793  13.421  0.00  0.00    +0.000 A 
ATOM      9  C   UNL     1       6.895   4.096  12.233  0.00  0.00    +0.000 A 
ATOM     10  O   UNL     1       7.808   5.076  12.433  0.00  0.00    +0.000 OA
ATOM     11  N   UNL     1       7.801   5.445  13.766  0.00  0.00    +0.000 NA
ENDBRANCH   6   7
ENDBRANCH   3   6
ENDBRANCH   1   3
BRANCH   1  13
ATOM     12  C   UNL     1       5.693   4.763  19.352  0.00  0.00    +0.000 C 
ATOM     13  C   UNL     1       4.778   4.587  18.145  0.00  0.00    +0.000 C 
BRANCH  13  14
ATOM     14  C   UNL     1       3.444   3.972  18.555  0.00  0.00    +0.000 A 
ATOM     15  C   UNL     1       3.203   2.645  18.160  0.00  0.00    +0.000 A 
ATOM     16  F   UNL     1       4.183   1.945  17.569  0.00  0.00    +0.000 F 
ATOM     17  C   UNL     1       1.972   2.020  18.342  0.00  0.00    +0.000 A 
ATOM     18  C   UNL     1       0.928   2.722  18.930  0.00  0.00    +0.000 A 
ATOM     19  C   UNL     1       1.160   4.007  19.414  0.00  0.00    +0.000 A 
ATOM     20  C   UNL     1       2.418   4.613  19.268  0.00  0.00    +0.000 A 
ATOM     21 CL   UNL     1       2.615   6.150  20.031  0.00  0.00    +0.000 Cl
ENDBRANCH  13  14
ENDBRANCH   1  13
TORSDOF 5
ENDMDL
MODEL 7
REMARK VINA RESULT:      -7.2      2.208      2.721
REMARK  Name = 
REMARK  6 active torsions:
REMARK  status: ('A' for Active; 'I' for Inactive)
REMARK    1  A    between atoms: C_1  and  C_2
REMARK    2  A    between atoms: C_2  and  N_3
REMARK    3  A    between atoms: C_2  and  C_13
REMARK    4  A    between atoms: N_3  and  S_4
REMARK    5  A    between atoms: S_4  and  C_7
REMARK    6  A    between atoms: C_7  and  C_8
REMARK                            x       y       z     vdW  Elec       q    Type
REMARK                         _______ _______ _______ _____ _____    ______ ____
ROOT
ATOM      1  N   UNL     1       5.071   5.389  18.180  0.00  0.00    +0.000 NA
ATOM      2  H   UNL     1       4.925   4.810  17.352  0.00  0.00    +0.000 HD
ENDROOT
BRANCH   1   3
ATOM      3  S   UNL     1       6.693   5.680  18.473  0.00  0.00    +0.000 S 
ATOM      4  O   UNL     1       6.938   7.006  17.936  0.00  0.00    +0.000 OA
ATOM      5  O   UNL     1       6.981   5.379  19.855  0.00  0.00    +0.000 OA
BRANCH   3   6
ATOM      6  C   UNL     1       7.515   4.496  17.411  0.00  0.00    +0.000 C 
BRANCH   6   7
ATOM      7  C   UNL     1       7.053   4.519  16.003  0.00  0.00    +0.000 A 
ATOM      8  C   UNL     1       6.082   3.731  15.335  0.00  0.00    +0.000 A 
ATOM      9  C   UNL     1       6.095   4.208  14.048  0.00  0.00    +0.000 A 
ATOM     10  O   UNL     1       7.016   5.195  13.937  0.00  0.00    +0.000 OA
ATOM     11  N   UNL     1       7.625   5.393  15.163  0.00  0.00    +0.000 NA
ENDBRANCH   6   7
ENDBRANCH   3   6
ENDBRANCH   1   3
BRANCH   1  13
ATOM     12  C   UNL     1       3.322   6.593  19.502  0.00  0.00    +0.000 C 
ATOM     13  C   UNL     1       4.054   5.280  19.243  0.00  0.00    +0.000 C 
BRANCH  13  14
ATOM     14  C   UNL     1       3.067   4.140  19.017  0.00  0.00    +0.000 A 
ATOM     15  C   UNL     1       1.947   4.413  18.212  0.00  0.00    +0.000 A 
ATOM     16  F   UNL     1       1.862   5.594  17.581  0.00  0.00    +0.000 F 
ATOM     17  C   UNL     1       0.901   3.507  18.050  0.00  0.00    +0.000 A 
ATOM     18  C   UNL     1       0.947   2.284  18.706  0.00  0.00    +0.000 A 
ATOM     19  C   UNL     1       2.082   1.947  19.439  0.00  0.00    +0.000 A 
ATOM     20  C   UNL     1       3.152   2.847  19.559  0.00  0.00    +0.000 A 
ATOM     21 CL   UNL     1       4.555   2.257  20.378  0.00  0.00    +0.000 Cl
ENDBRANCH  13  14
ENDBRANCH   1  13
TORSDOF 5
ENDMDL
MODEL 8
REMARK VINA RESULT:      -7.1      1.522      1.913
REMARK  Name = 
REMARK  6 active torsions:
REMARK  status: ('A' for Active; 'I' for Inactive)
REMARK    1  A    between atoms: C_1  and  C_2
REMARK    2  A    between atoms: C_2  and  N_3
REMARK    3  A    between atoms: C_2  and  C_13
REMARK    4  A    between atoms: N_3  and  S_4
REMARK    5  A    between atoms: S_4  and  C_7
REMARK    6  A    between atoms: C_7  and  C_8
REMARK                            x       y       z     vdW  Elec       q    Type
REMARK                         _______ _______ _______ _____ _____    ______ ____
ROOT
ATOM      1  N   UNL     1       5.765   4.223  18.262  0.00  0.00    +0.000 NA
ATOM      2  H   UNL     1       5.894   3.246  18.528  0.00  0.00    +0.000 HD
ENDROOT
BRANCH   1   3
ATOM      3  S   UNL     1       7.222   5.013  18.027  0.00  0.00    +0.000 S 
ATOM      4  O   UNL     1       7.357   5.896  19.169  0.00  0.00    +0.000 OA
ATOM      5  O   UNL     1       8.242   4.036  17.725  0.00  0.00    +0.000 OA
BRANCH   3   6
ATOM      6  C   UNL     1       6.906   6.025  16.583  0.00  0.00    +0.000 C 
BRANCH   6   7
ATOM      7  C   UNL     1       6.740   5.256  15.328  0.00  0.00    +0.000 A 
ATOM      8  C   UNL     1       5.766   4.297  14.952  0.00  0.00    +0.000 A 
ATOM      9  C   UNL     1       6.131   3.932  13.679  0.00  0.00    +0.000 A 
ATOM     10  O   UNL     1       7.252   4.602  13.318  0.00  0.00    +0.000 OA
ATOM     11  N   UNL     1       7.642   5.434  14.353  0.00  0.00    +0.000 NA
ENDBRANCH   6   7
ENDBRANCH   3   6
ENDBRANCH   1   3
BRANCH   1  13
ATOM     12  C   UNL     1       4.170   6.126  17.964  0.00  0.00    +0.000 C 
ATOM     13  C   UNL     1       4.547   4.885  18.766  0.00  0.00    +0.000 C 
BRANCH  13  14
ATOM     14  C   UNL     1       3.359   3.939  18.901  0.00  0.00    +0.000 A 
ATOM     15  C   UNL     1       3.293   2.864  17.997  0.00  0.00    +0.000 A 
ATOM     16  F   UNL     1       4.318   2.641  17.161  0.00  0.00    +0.000 F 
ATOM     17  C   UNL     1       2.189   2.018  17.919  0.00  0.00    +0.000 A 
ATOM     18  C   UNL     1       1.100   2.233  18.754  0.00  0.00    +0.000 A 
ATOM     19  C   UNL     1       1.171   3.234  19.720  0.00  0.00    +0.000 A 
ATOM     20  C   UNL     1       2.307   4.053  19.823  0.00  0.00    +0.000 A 
ATOM     21 CL   UNL     1       2.328   5.161  21.148  0.00  0.00    +0.000 Cl
ENDBRANCH  13  14
ENDBRANCH   1  13
TORSDOF 5
ENDMDL
MODEL 9
REMARK VINA RESULT:      -7.1      1.943      2.248
REMARK  Name = 
REMARK  6 active torsions:
REMARK  status: ('A' for Active; 'I' for Inactive)
REMARK    1  A    between atoms: C_1  and  C_2
REMARK    2  A    between atoms: C_2  and  N_3
REMARK    3  A    between atoms: C_2  and  C_13
REMARK    4  A    between atoms: N_3  and  S_4
REMARK    5  A    between atoms: S_4  and  C_7
REMARK    6  A    between atoms: C_7  and  C_8
REMARK                            x       y       z     vdW  Elec       q    Type
REMARK                         _______ _______ _______ _____ _____    ______ ____
ROOT
ATOM      1  N   UNL     1       5.280   3.840  18.242  0.00  0.00    +0.000 NA
ATOM      2  H   UNL     1       5.865   3.103  18.637  0.00  0.00    +0.000 HD
ENDROOT
BRANCH   1   3
ATOM      3  S   UNL     1       5.743   5.363  18.760  0.00  0.00    +0.000 S 
ATOM      4  O   UNL     1       4.509   6.123  18.836  0.00  0.00    +0.000 OA
ATOM      5  O   UNL     1       6.598   5.226  19.915  0.00  0.00    +0.000 OA
BRANCH   3   6
ATOM      6  C   UNL     1       6.690   5.991  17.376  0.00  0.00    +0.000 C 
BRANCH   6   7
ATOM      7  C   UNL     1       6.402   5.319  16.088  0.00  0.00    +0.000 A 
ATOM      8  C   UNL     1       7.202   4.459  15.294  0.00  0.00    +0.000 A 
ATOM      9  C   UNL     1       6.402   4.158  14.219  0.00  0.00    +0.000 A 
ATOM     10  O   UNL     1       5.217   4.802  14.340  0.00  0.00    +0.000 OA
ATOM     11  N   UNL     1       5.212   5.537  15.512  0.00  0.00    +0.000 NA
ENDBRANCH   6   7
ENDBRANCH   3   6
ENDBRANCH   1   3
BRANCH   1  13
ATOM     12  C   UNL     1       3.789   2.274  16.985  0.00  0.00    +0.000 C 
ATOM     13  C   UNL     1       3.887   3.472  17.923  0.00  0.00    +0.000 C 
BRANCH  13  14
ATOM     14  C   UNL     1       3.020   3.271  19.160  0.00  0.00    +0.000 A 
ATOM     15  C   UNL     1       1.716   3.795  19.119  0.00  0.00    +0.000 A 
ATOM     16  F   UNL     1       1.253   4.321  17.975  0.00  0.00    +0.000 F 
ATOM     17  C   UNL     1       0.877   3.809  20.232  0.00  0.00    +0.000 A 
ATOM     18  C   UNL     1       1.333   3.293  21.439  0.00  0.00    +0.000 A 
ATOM     19  C   UNL     1       2.585   2.685  21.490  0.00  0.00    +0.000 A 
ATOM     20  C   UNL     1       3.405   2.635  20.351  0.00  0.00    +0.000 A 
ATOM     21 CL   UNL     1       4.872   1.736  20.509  0.00  0.00    +0.000 Cl
ENDBRANCH  13  14
ENDBRANCH   1  13
TORSDOF 5
ENDMDL
