MODEL 1
REMARK VINA RESULT:      -8.1      0.000      0.000
REMARK  Name = 
REMARK  0 active torsions:
REMARK  status: ('A' for Active; 'I' for Inactive)
REMARK                            x       y       z     vdW  Elec       q    Type
REMARK                         _______ _______ _______ _____ _____    ______ ____
ROOT
ATOM      1  N   UNL     1       6.626   5.143  14.668  0.00  0.00    +0.000 N 
ATOM      2  C   UNL     1       6.703   4.819  15.968  0.00  0.00    +0.000 A 
ATOM      3  N   UNL     1       7.855   4.661  16.616  0.00  0.00    +0.000 NA
ATOM      4  N   UNL     1       7.468   4.324  17.865  0.00  0.00    +0.000 N 
ATOM      5  C   UNL     1       6.115   4.236  18.021  0.00  0.00    +0.000 A 
ATOM      6  N   UNL     1       5.454   3.887  19.139  0.00  0.00    +0.000 NA
ATOM      7  C   UNL     1       4.119   3.843  18.994  0.00  0.00    +0.000 A 
ATOM      8  C   UNL     1       3.357   3.448  20.081  0.00  0.00    +0.000 A 
ATOM      9  C   UNL     1       1.969   3.346  19.996  0.00  0.00    +0.000 A 
ATOM     10 CL   UNL     1       1.062   2.817  21.361  0.00  0.00    +0.000 Cl
ATOM     11  C   UNL     1       1.306   3.657  18.815  0.00  0.00    +0.000 A 
ATOM     12  C   UNL     1       2.041   4.077  17.711  0.00  0.00    +0.000 A 
ATOM     13  C   UNL     1       3.439   4.166  17.790  0.00  0.00    +0.000 A 
ATOM     14  C   UNL     1       4.184   4.555  16.669  0.00  0.00    +0.000 A 
ATOM     15  C   UNL     1       5.578   4.567  16.790  0.00  0.00    +0.000 A 
ATOM     16  H   UNL     1       7.478   5.049  14.127  0.00  0.00    +0.000 HD
ATOM     17  H   UNL     1       5.782   4.962  14.139  0.00  0.00    +0.000 HD
ATOM     18  H   UNL     1       8.173   4.147  18.569  0.00  0.00    +0.000 HD
ENDROOT
TORSDOF 0
ENDMDL
MODEL 2
REMARK VINA RESULT:      -7.5      1.708      1.834
REMARK  Name = 
REMARK  0 active torsions:
REMARK  status: ('A' for Active; 'I' for Inactive)
REMARK                            x       y       z     vdW  Elec       q    Type
REMARK                         _______ _______ _______ _____ _____    ______ ____
ROOT
ATOM      1  N   UNL     1       6.610   3.715  13.714  0.00  0.00    +0.000 N 
ATOM      2  C   UNL     1       6.637   4.570  14.747  0.00  0.00    +0.000 A 
ATOM      3  N   UNL     1       7.654   5.394  14.991  0.00  0.00    +0.000 NA
ATOM      4  N   UNL     1       7.274   6.037  16.115  0.00  0.00    +0.000 N 
ATOM      5  C   UNL     1       6.068   5.630  16.605  0.00  0.00    +0.000 A 
ATOM      6  N   UNL     1       5.462   6.070  17.723  0.00  0.00    +0.000 NA
ATOM      7  C   UNL     1       4.295   5.460  17.989  0.00  0.00    +0.000 A 
ATOM      8  C   UNL     1       3.622   5.816  19.147  0.00  0.00    +0.000 A 
ATOM      9  C   UNL     1       2.422   5.203  19.506  0.00  0.00    +0.000 A 
ATOM     10 CL   UNL     1       1.635   5.649  20.972  0.00  0.00    +0.000 Cl
ATOM     11  C   UNL     1       1.855   4.225  18.697  0.00  0.00    +0.000 A 
ATOM     12  C   UNL     1       2.497   3.860  17.518  0.00  0.00    +0.000 A 
ATOM     13  C   UNL     1       3.711   4.464  17.163  0.00  0.00    +0.000 A 
ATOM     14  C   UNL     1       4.376   4.074  15.992  0.00  0.00    +0.000 A 
ATOM     15  C   UNL     1       5.613   4.669  15.722  0.00  0.00    +0.000 A 
ATOM     16  H   UNL     1       7.490   3.552  13.239  0.00  0.00    +0.000 HD
ATOM     17  H   UNL     1       5.993   2.912  13.722  0.00  0.00    +0.000 HD
ATOM     18  H   UNL     1       7.888   6.736  16.515  0.00  0.00    +0.000 HD
ENDROOT
TORSDOF 0
ENDMDL
MODEL 3
REMARK VINA RESULT:      -7.5      1.240      1.240
REMARK  Name = 
REMARK  0 active torsions:
REMARK  status: ('A' for Active; 'I' for Inactive)
REMARK                            x       y       z     vdW  Elec       q    Type
REMARK                         _______ _______ _______ _____ _____    ______ ____
ROOT
ATOM      1  N   UNL     1       7.302   5.225  14.718  0.00  0.00    +0.000 N 
ATOM      2  C   UNL     1       6.930   5.616  15.946  0.00  0.00    +0.000 A 
ATOM      3  N   UNL     1       7.637   6.462  16.691  0.00  0.00    +0.000 NA
ATOM      4  N   UNL     1       6.921   6.551  17.832  0.00  0.00    +0.000 N 
ATOM      5  C   UNL     1       5.802   5.770  17.844  0.00  0.00    +0.000 A 
ATOM      6  N   UNL     1       4.925   5.634  18.856  0.00  0.00    +0.000 NA
ATOM      7  C   UNL     1       3.934   4.762  18.607  0.00  0.00    +0.000 A 
ATOM      8  C   UNL     1       3.009   4.523  19.611  0.00  0.00    +0.000 A 
ATOM      9  C   UNL     1       1.972   3.606  19.438  0.00  0.00    +0.000 A 
ATOM     10 CL   UNL     1       0.864   3.311  20.723  0.00  0.00    +0.000 Cl
ATOM     11  C   UNL     1       1.826   2.918  18.239  0.00  0.00    +0.000 A 
ATOM     12  C   UNL     1       2.727   3.152  17.206  0.00  0.00    +0.000 A 
ATOM     13  C   UNL     1       3.779   4.061  17.383  0.00  0.00    +0.000 A 
ATOM     14  C   UNL     1       4.707   4.273  16.354  0.00  0.00    +0.000 A 
ATOM     15  C   UNL     1       5.770   5.146  16.611  0.00  0.00    +0.000 A 
ATOM     16  H   UNL     1       8.259   5.421  14.451  0.00  0.00    +0.000 HD
ATOM     17  H   UNL     1       6.927   4.378  14.309  0.00  0.00    +0.000 HD
ATOM     18  H   UNL     1       7.253   7.148  18.578  0.00  0.00    +0.000 HD
ENDROOT
TORSDOF 0
ENDMDL
MODEL 4
REMARK VINA RESULT:      -7.2      1.701      2.057
REMARK  Name = 
REMARK  0 active torsions:
REMARK  status: ('A' for Active; 'I' for Inactive)
REMARK                            x       y       z     vdW  Elec       q    Type
REMARK                         _______ _______ _______ _____ _____    ______ ____
ROOT
ATOM      1  N   UNL     1       7.494   7.486  17.059  0.00  0.00    +0.000 N 
ATOM      2  C   UNL     1       7.013   6.300  16.659  0.00  0.00    +0.000 A 
ATOM      3  N   UNL     1       7.554   5.582  15.677  0.00  0.00    +0.000 NA
ATOM      4  N   UNL     1       6.752   4.500  15.600  0.00  0.00    +0.000 N 
ATOM      5  C   UNL     1       5.707   4.521  16.478  0.00  0.00    +0.000 A 
ATOM      6  N   UNL     1       4.736   3.598  16.598  0.00  0.00    +0.000 NA
ATOM      7  C   UNL     1       3.808   3.897  17.521  0.00  0.00    +0.000 A 
ATOM      8  C   UNL     1       2.743   3.026  17.682  0.00  0.00    +0.000 A 
ATOM      9  C   UNL     1       1.723   3.287  18.598  0.00  0.00    +0.000 A 
ATOM     10 CL   UNL     1       0.399   2.196  18.742  0.00  0.00    +0.000 Cl
ATOM     11  C   UNL     1       1.757   4.428  19.391  0.00  0.00    +0.000 A 
ATOM     12  C   UNL     1       2.824   5.312  19.267  0.00  0.00    +0.000 A 
ATOM     13  C   UNL     1       3.842   5.059  18.337  0.00  0.00    +0.000 A 
ATOM     14  C   UNL     1       4.900   5.966  18.187  0.00  0.00    +0.000 A 
ATOM     15  C   UNL     1       5.854   5.690  17.201  0.00  0.00    +0.000 A 
ATOM     16  H   UNL     1       8.161   7.935  16.441  0.00  0.00    +0.000 HD
ATOM     17  H   UNL     1       6.912   8.133  17.575  0.00  0.00    +0.000 HD
ATOM     18  H   UNL     1       6.955   3.783  14.915  0.00  0.00    +0.000 HD
ENDROOT
TORSDOF 0
ENDMDL
MODEL 5
REMARK VINA RESULT:      -7.2      1.510      1.745
REMARK  Name = 
REMARK  0 active torsions:
REMARK  status: ('A' for Active; 'I' for Inactive)
REMARK                            x       y       z     vdW  Elec       q    Type
REMARK                         _______ _______ _______ _____ _____    ______ ____
ROOT
ATOM      1  N   UNL     1       5.310   6.841  15.198  0.00  0.00    +0.000 N 
ATOM      2  C   UNL     1       5.318   5.621  15.755  0.00  0.00    +0.000 A 
ATOM      3  N   UNL     1       5.993   4.590  15.252  0.00  0.00    +0.000 NA
ATOM      4  N   UNL     1       5.704   3.581  16.101  0.00  0.00    +0.000 N 
ATOM      5  C   UNL     1       4.849   3.930  17.105  0.00  0.00    +0.000 A 
ATOM      6  N   UNL     1       4.364   3.125  18.068  0.00  0.00    +0.000 NA
ATOM      7  C   UNL     1       3.504   3.729  18.905  0.00  0.00    +0.000 A 
ATOM      8  C   UNL     1       2.918   2.965  19.901  0.00  0.00    +0.000 A 
ATOM      9  C   UNL     1       1.990   3.514  20.786  0.00  0.00    +0.000 A 
ATOM     10 CL   UNL     1       1.258   2.521  21.987  0.00  0.00    +0.000 Cl
ATOM     11  C   UNL     1       1.641   4.857  20.703  0.00  0.00    +0.000 A 
ATOM     12  C   UNL     1       2.227   5.655  19.727  0.00  0.00    +0.000 A 
ATOM     13  C   UNL     1       3.149   5.101  18.826  0.00  0.00    +0.000 A 
ATOM     14  C   UNL     1       3.715   5.896  17.820  0.00  0.00    +0.000 A 
ATOM     15  C   UNL     1       4.581   5.273  16.915  0.00  0.00    +0.000 A 
ATOM     16  H   UNL     1       5.658   6.907  14.249  0.00  0.00    +0.000 HD
ATOM     17  H   UNL     1       4.574   7.502  15.412  0.00  0.00    +0.000 HD
ATOM     18  H   UNL     1       6.106   2.667  15.936  0.00  0.00    +0.000 HD
ENDROOT
TORSDOF 0
ENDMDL
MODEL 6
REMARK VINA RESULT:      -7.1      3.427      5.473
REMARK  Name = 
REMARK  0 active torsions:
REMARK  status: ('A' for Active; 'I' for Inactive)
REMARK                            x       y       z     vdW  Elec       q    Type
REMARK                         _______ _______ _______ _____ _____    ______ ____
ROOT
ATOM      1  N   UNL     1       0.618   4.129  20.482  0.00  0.00    +0.000 N 
ATOM      2  C   UNL     1       1.369   3.353  19.685  0.00  0.00    +0.000 A 
ATOM      3  N   UNL     1       1.330   2.023  19.709  0.00  0.00    +0.000 NA
ATOM      4  N   UNL     1       2.243   1.665  18.782  0.00  0.00    +0.000 N 
ATOM      5  C   UNL     1       2.877   2.720  18.193  0.00  0.00    +0.000 A 
ATOM      6  N   UNL     1       3.850   2.660  17.267  0.00  0.00    +0.000 NA
ATOM      7  C   UNL     1       4.324   3.861  16.892  0.00  0.00    +0.000 A 
ATOM      8  C   UNL     1       5.362   3.895  15.975  0.00  0.00    +0.000 A 
ATOM      9  C   UNL     1       5.927   5.103  15.565  0.00  0.00    +0.000 A 
ATOM     10 CL   UNL     1       7.240   5.100  14.450  0.00  0.00    +0.000 Cl
ATOM     11  C   UNL     1       5.449   6.312  16.054  0.00  0.00    +0.000 A 
ATOM     12  C   UNL     1       4.395   6.311  16.961  0.00  0.00    +0.000 A 
ATOM     13  C   UNL     1       3.835   5.098  17.386  0.00  0.00    +0.000 A 
ATOM     14  C   UNL     1       2.794   5.094  18.326  0.00  0.00    +0.000 A 
ATOM     15  C   UNL     1       2.317   3.851  18.758  0.00  0.00    +0.000 A 
ATOM     16  H   UNL     1       0.172   3.672  21.268  0.00  0.00    +0.000 HD
ATOM     17  H   UNL     1       0.877   5.091  20.658  0.00  0.00    +0.000 HD
ATOM     18  H   UNL     1       2.406   0.682  18.603  0.00  0.00    +0.000 HD
ENDROOT
TORSDOF 0
ENDMDL
MODEL 7
REMARK VINA RESULT:      -7.0      2.375      2.522
REMARK  Name = 
REMARK  0 active torsions:
REMARK  status: ('A' for Active; 'I' for Inactive)
REMARK                            x       y       z     vdW  Elec       q    Type
REMARK                         _______ _______ _______ _____ _____    ______ ____
ROOT
ATOM      1  N   UNL     1       7.504   5.497  14.739  0.00  0.00    +0.000 N 
ATOM      2  C   UNL     1       7.200   5.135  15.995  0.00  0.00    +0.000 A 
ATOM      3  N   UNL     1       7.866   4.201  16.670  0.00  0.00    +0.000 NA
ATOM      4  N   UNL     1       7.219   4.147  17.853  0.00  0.00    +0.000 N 
ATOM      5  C   UNL     1       6.152   4.993  17.939  0.00  0.00    +0.000 A 
ATOM      6  N   UNL     1       5.310   5.125  18.980  0.00  0.00    +0.000 NA
ATOM      7  C   UNL     1       4.318   6.007  18.773  0.00  0.00    +0.000 A 
ATOM      8  C   UNL     1       3.374   6.175  19.774  0.00  0.00    +0.000 A 
ATOM      9  C   UNL     1       2.298   7.048  19.618  0.00  0.00    +0.000 A 
ATOM     10 CL   UNL     1       1.127   7.200  20.872  0.00  0.00    +0.000 Cl
ATOM     11  C   UNL     1       2.151   7.792  18.453  0.00  0.00    +0.000 A 
ATOM     12  C   UNL     1       3.093   7.661  17.438  0.00  0.00    +0.000 A 
ATOM     13  C   UNL     1       4.168   6.772  17.587  0.00  0.00    +0.000 A 
ATOM     14  C   UNL     1       5.099   6.614  16.552  0.00  0.00    +0.000 A 
ATOM     15  C   UNL     1       6.115   5.669  16.734  0.00  0.00    +0.000 A 
ATOM     16  H   UNL     1       8.125   4.880  14.229  0.00  0.00    +0.000 HD
ATOM     17  H   UNL     1       6.822   5.967  14.157  0.00  0.00    +0.000 HD
ATOM     18  H   UNL     1       7.540   3.500  18.562  0.00  0.00    +0.000 HD
ENDROOT
TORSDOF 0
ENDMDL
MODEL 8
REMARK VINA RESULT:      -7.0      1.796      1.878
REMARK  Name = 
REMARK  0 active torsions:
REMARK  status: ('A' for Active; 'I' for Inactive)
REMARK                            x       y       z     vdW  Elec       q    Type
REMARK                         _______ _______ _______ _____ _____    ______ ____
ROOT
ATOM      1  N   UNL     1       7.377   7.825  17.127  0.00  0.00    +0.000 N 
ATOM      2  C   UNL     1       7.191   6.785  17.953  0.00  0.00    +0.000 A 
ATOM      3  N   UNL     1       8.164   6.249  18.688  0.00  0.00    +0.000 NA
ATOM      4  N   UNL     1       7.549   5.236  19.333  0.00  0.00    +0.000 N 
ATOM      5  C   UNL     1       6.230   5.095  19.012  0.00  0.00    +0.000 A 
ATOM      6  N   UNL     1       5.384   4.156  19.472  0.00  0.00    +0.000 NA
ATOM      7  C   UNL     1       4.148   4.230  18.951  0.00  0.00    +0.000 A 
ATOM      8  C   UNL     1       3.221   3.273  19.333  0.00  0.00    +0.000 A 
ATOM      9  C   UNL     1       1.928   3.266  18.809  0.00  0.00    +0.000 A 
ATOM     10 CL   UNL     1       0.817   2.038  19.282  0.00  0.00    +0.000 Cl
ATOM     11  C   UNL     1       1.527   4.235  17.897  0.00  0.00    +0.000 A 
ATOM     12  C   UNL     1       2.429   5.221  17.510  0.00  0.00    +0.000 A 
ATOM     13  C   UNL     1       3.733   5.222  18.024  0.00  0.00    +0.000 A 
ATOM     14  C   UNL     1       4.653   6.194  17.610  0.00  0.00    +0.000 A 
ATOM     15  C   UNL     1       5.957   6.107  18.110  0.00  0.00    +0.000 A 
ATOM     16  H   UNL     1       8.338   8.061  16.906  0.00  0.00    +0.000 HD
ATOM     17  H   UNL     1       6.725   8.013  16.377  0.00  0.00    +0.000 HD
ATOM     18  H   UNL     1       8.083   4.660  19.971  0.00  0.00    +0.000 HD
ENDROOT
TORSDOF 0
ENDMDL
MODEL 9
REMARK VINA RESULT:      -6.9      3.399      5.653
REMARK  Name = 
REMARK  0 active torsions:
REMARK  status: ('A' for Active; 'I' for Inactive)
REMARK                            x       y       z     vdW  Elec       q    Type
REMARK                         _______ _______ _______ _____ _____    ______ ____
ROOT
ATOM      1  N   UNL     1       2.225   3.231  21.874  0.00  0.00    +0.000 N 
ATOM      2  C   UNL     1       2.040   3.231  20.545  0.00  0.00    +0.000 A 
ATOM      3  N   UNL     1       0.907   2.845  19.963  0.00  0.00    +0.000 NA
ATOM      4  N   UNL     1       1.167   2.983  18.646  0.00  0.00    +0.000 N 
ATOM      5  C   UNL     1       2.433   3.417  18.374  0.00  0.00    +0.000 A 
ATOM      6  N   UNL     1       2.976   3.609  17.159  0.00  0.00    +0.000 NA
ATOM      7  C   UNL     1       4.260   4.001  17.189  0.00  0.00    +0.000 A 
ATOM      8  C   UNL     1       4.917   4.179  15.981  0.00  0.00    +0.000 A 
ATOM      9  C   UNL     1       6.260   4.552  15.934  0.00  0.00    +0.000 A 
ATOM     10 CL   UNL     1       7.048   4.729  14.413  0.00  0.00    +0.000 Cl
ATOM     11  C   UNL     1       6.976   4.775  17.104  0.00  0.00    +0.000 A 
ATOM     12  C   UNL     1       6.339   4.624  18.331  0.00  0.00    +0.000 A 
ATOM     13  C   UNL     1       4.993   4.234  18.382  0.00  0.00    +0.000 A 
ATOM     14  C   UNL     1       4.360   4.049  19.618  0.00  0.00    +0.000 A 
ATOM     15  C   UNL     1       3.034   3.601  19.606  0.00  0.00    +0.000 A 
ATOM     16  H   UNL     1       1.549   2.715  22.424  0.00  0.00    +0.000 HD
ATOM     17  H   UNL     1       3.158   3.233  22.266  0.00  0.00    +0.000 HD
ATOM     18  H   UNL     1       0.448   2.750  17.973  0.00  0.00    +0.000 HD
ENDROOT
TORSDOF 0
ENDMDL
