MODEL 1
REMARK VINA RESULT:      -7.2      0.000      0.000
REMARK  Name = 
REMARK  4 active torsions:
REMARK  status: ('A' for Active; 'I' for Inactive)
REMARK    1  A    between atoms: C_1  and  O_2
REMARK    2  A    between atoms: O_2  and  C_3
REMARK    3  A    between atoms: C_3  and  C_5
REMARK    4  A    between atoms: C_10  and  C_11
REMARK                            x       y       z     vdW  Elec       q    Type
REMARK                         _______ _______ _______ _____ _____    ______ ____
ROOT
ATOM      1  C   UNL     1       5.998   5.895  17.087  0.00  0.00    +0.000 A 
ATOM      2  C   UNL     1       7.238   6.563  17.190  0.00  0.00    +0.000 A 
ATOM      3  C   UNL     1       7.970   6.530  18.371  0.00  0.00    +0.000 A 
ATOM      4  C   UNL     1       7.474   5.834  19.463  0.00  0.00    +0.000 A 
ATOM      5  C   UNL     1       6.236   5.189  19.377  0.00  0.00    +0.000 A 
ATOM      6  C   UNL     1       5.460   5.186  18.194  0.00  0.00    +0.000 A 
ENDROOT
BRANCH   6   7
ATOM      7  C   UNL     1       4.161   4.456  18.195  0.00  0.00    +0.000 A 
ATOM      8  C   UNL     1       4.075   3.057  18.059  0.00  0.00    +0.000 A 
ATOM      9  C   UNL     1       2.843   2.390  18.102  0.00  0.00    +0.000 A 
ATOM     10  C   UNL     1       1.670   3.117  18.229  0.00  0.00    +0.000 A 
ATOM     11  F   UNL     1       0.492   2.480  18.265  0.00  0.00    +0.000 F 
ATOM     12  C   UNL     1       1.705   4.500  18.316  0.00  0.00    +0.000 A 
ATOM     13  C   UNL     1       2.940   5.158  18.312  0.00  0.00    +0.000 A 
ENDBRANCH   6   7
BRANCH   1  14
ATOM     14  C   UNL     1       5.354   5.916  15.747  0.00  0.00    +0.000 C 
ATOM     15  O   UNL     1       4.953   6.917  15.176  0.00  0.00    +0.000 OA
BRANCH  14  17
ATOM     16  C   UNL     1       6.455   4.248  14.527  0.00  0.00    +0.000 C 
ATOM     17  O   UNL     1       5.298   4.647  15.265  0.00  0.00    +0.000 OA
ENDBRANCH  14  17
ENDBRANCH   1  14
TORSDOF 3
ENDMDL
MODEL 2
REMARK VINA RESULT:      -7.1      0.066      1.167
REMARK  Name = 
REMARK  4 active torsions:
REMARK  status: ('A' for Active; 'I' for Inactive)
REMARK    1  A    between atoms: C_1  and  O_2
REMARK    2  A    between atoms: O_2  and  C_3
REMARK    3  A    between atoms: C_3  and  C_5
REMARK    4  A    between atoms: C_10  and  C_11
REMARK                            x       y       z     vdW  Elec       q    Type
REMARK                         _______ _______ _______ _____ _____    ______ ____
ROOT
ATOM      1  C   UNL     1       5.995   5.881  17.097  0.00  0.00    +0.000 A 
ATOM      2  C   UNL     1       7.245   6.533  17.183  0.00  0.00    +0.000 A 
ATOM      3  C   UNL     1       7.981   6.512  18.362  0.00  0.00    +0.000 A 
ATOM      4  C   UNL     1       7.478   5.846  19.469  0.00  0.00    +0.000 A 
ATOM      5  C   UNL     1       6.231   5.216  19.399  0.00  0.00    +0.000 A 
ATOM      6  C   UNL     1       5.450   5.202  18.219  0.00  0.00    +0.000 A 
ENDROOT
BRANCH   6   7
ATOM      7  C   UNL     1       4.141   4.491  18.239  0.00  0.00    +0.000 A 
ATOM      8  C   UNL     1       2.908   5.170  18.305  0.00  0.00    +0.000 A 
ATOM      9  C   UNL     1       1.689   4.479  18.284  0.00  0.00    +0.000 A 
ATOM     10  C   UNL     1       1.682   3.094  18.250  0.00  0.00    +0.000 A 
ATOM     11  F   UNL     1       0.516   2.434  18.235  0.00  0.00    +0.000 F 
ATOM     12  C   UNL     1       2.872   2.384  18.236  0.00  0.00    +0.000 A 
ATOM     13  C   UNL     1       4.087   3.079  18.217  0.00  0.00    +0.000 A 
ENDBRANCH   6   7
BRANCH   1  14
ATOM     14  C   UNL     1       5.346   5.886  15.759  0.00  0.00    +0.000 C 
ATOM     15  O   UNL     1       4.957   6.881  15.170  0.00  0.00    +0.000 OA
BRANCH  14  17
ATOM     16  C   UNL     1       6.381   4.209  14.493  0.00  0.00    +0.000 C 
ATOM     17  O   UNL     1       5.272   4.609  15.300  0.00  0.00    +0.000 OA
ENDBRANCH  14  17
ENDBRANCH   1  14
TORSDOF 3
ENDMDL
MODEL 3
REMARK VINA RESULT:      -7.0      1.800      3.087
REMARK  Name = 
REMARK  4 active torsions:
REMARK  status: ('A' for Active; 'I' for Inactive)
REMARK    1  A    between atoms: C_1  and  O_2
REMARK    2  A    between atoms: O_2  and  C_3
REMARK    3  A    between atoms: C_3  and  C_5
REMARK    4  A    between atoms: C_10  and  C_11
REMARK                            x       y       z     vdW  Elec       q    Type
REMARK                         _______ _______ _______ _____ _____    ______ ____
ROOT
ATOM      1  C   UNL     1       6.039   4.646  17.097  0.00  0.00    +0.000 A 
ATOM      2  C   UNL     1       7.131   5.031  16.288  0.00  0.00    +0.000 A 
ATOM      3  C   UNL     1       7.096   4.854  14.910  0.00  0.00    +0.000 A 
ATOM      4  C   UNL     1       5.974   4.290  14.322  0.00  0.00    +0.000 A 
ATOM      5  C   UNL     1       4.897   3.886  15.118  0.00  0.00    +0.000 A 
ATOM      6  C   UNL     1       4.883   4.054  16.523  0.00  0.00    +0.000 A 
ENDROOT
BRANCH   6   7
ATOM      7  C   UNL     1       3.681   3.606  17.282  0.00  0.00    +0.000 A 
ATOM      8  C   UNL     1       3.591   2.334  17.881  0.00  0.00    +0.000 A 
ATOM      9  C   UNL     1       2.466   1.951  18.622  0.00  0.00    +0.000 A 
ATOM     10  C   UNL     1       1.387   2.814  18.734  0.00  0.00    +0.000 A 
ATOM     11  F   UNL     1       0.309   2.445  19.439  0.00  0.00    +0.000 F 
ATOM     12  C   UNL     1       1.413   4.055  18.119  0.00  0.00    +0.000 A 
ATOM     13  C   UNL     1       2.555   4.449  17.412  0.00  0.00    +0.000 A 
ENDBRANCH   6   7
BRANCH   1  14
ATOM     14  C   UNL     1       6.148   4.975  18.543  0.00  0.00    +0.000 C 
ATOM     15  O   UNL     1       5.248   5.425  19.231  0.00  0.00    +0.000 OA
BRANCH  14  17
ATOM     16  C   UNL     1       8.029   5.723  19.720  0.00  0.00    +0.000 C 
ATOM     17  O   UNL     1       7.405   4.681  18.967  0.00  0.00    +0.000 OA
ENDBRANCH  14  17
ENDBRANCH   1  14
TORSDOF 3
ENDMDL
MODEL 4
REMARK VINA RESULT:      -7.0      1.771      3.269
REMARK  Name = 
REMARK  4 active torsions:
REMARK  status: ('A' for Active; 'I' for Inactive)
REMARK    1  A    between atoms: C_1  and  O_2
REMARK    2  A    between atoms: O_2  and  C_3
REMARK    3  A    between atoms: C_3  and  C_5
REMARK    4  A    between atoms: C_10  and  C_11
REMARK                            x       y       z     vdW  Elec       q    Type
REMARK                         _______ _______ _______ _____ _____    ______ ____
ROOT
ATOM      1  C   UNL     1       6.007   4.681  17.111  0.00  0.00    +0.000 A 
ATOM      2  C   UNL     1       7.119   5.051  16.323  0.00  0.00    +0.000 A 
ATOM      3  C   UNL     1       7.114   4.857  14.946  0.00  0.00    +0.000 A 
ATOM      4  C   UNL     1       6.003   4.291  14.341  0.00  0.00    +0.000 A 
ATOM      5  C   UNL     1       4.906   3.901  15.117  0.00  0.00    +0.000 A 
ATOM      6  C   UNL     1       4.862   4.087  16.519  0.00  0.00    +0.000 A 
ENDROOT
BRANCH   6   7
ATOM      7  C   UNL     1       3.641   3.653  17.257  0.00  0.00    +0.000 A 
ATOM      8  C   UNL     1       2.532   4.499  17.454  0.00  0.00    +0.000 A 
ATOM      9  C   UNL     1       1.381   4.055  18.119  0.00  0.00    +0.000 A 
ATOM     10  C   UNL     1       1.340   2.773  18.645  0.00  0.00    +0.000 A 
ATOM     11  F   UNL     1       0.241   2.350  19.284  0.00  0.00    +0.000 F 
ATOM     12  C   UNL     1       2.428   1.925  18.517  0.00  0.00    +0.000 A 
ATOM     13  C   UNL     1       3.561   2.359  17.818  0.00  0.00    +0.000 A 
ENDBRANCH   6   7
BRANCH   1  14
ATOM     14  C   UNL     1       6.086   5.027  18.555  0.00  0.00    +0.000 C 
ATOM     15  O   UNL     1       5.184   5.524  19.209  0.00  0.00    +0.000 OA
BRANCH  14  17
ATOM     16  C   UNL     1       8.032   5.767  19.627  0.00  0.00    +0.000 C 
ATOM     17  O   UNL     1       7.316   4.688  19.023  0.00  0.00    +0.000 OA
ENDBRANCH  14  17
ENDBRANCH   1  14
TORSDOF 3
ENDMDL
MODEL 5
REMARK VINA RESULT:      -6.9      3.402      4.809
REMARK  Name = 
REMARK  4 active torsions:
REMARK  status: ('A' for Active; 'I' for Inactive)
REMARK    1  A    between atoms: C_1  and  O_2
REMARK    2  A    between atoms: O_2  and  C_3
REMARK    3  A    between atoms: C_3  and  C_5
REMARK    4  A    between atoms: C_10  and  C_11
REMARK                            x       y       z     vdW  Elec       q    Type
REMARK                         _______ _______ _______ _____ _____    ______ ____
ROOT
ATOM      1  C   UNL     1       3.360   4.804  17.482  0.00  0.00    +0.000 A 
ATOM      2  C   UNL     1       4.261   3.922  16.845  0.00  0.00    +0.000 A 
ATOM      3  C   UNL     1       5.518   4.355  16.440  0.00  0.00    +0.000 A 
ATOM      4  C   UNL     1       5.889   5.672  16.662  0.00  0.00    +0.000 A 
ATOM      5  C   UNL     1       4.995   6.558  17.272  0.00  0.00    +0.000 A 
ATOM      6  C   UNL     1       3.710   6.161  17.710  0.00  0.00    +0.000 A 
ENDROOT
BRANCH   6   7
ATOM      7  C   UNL     1       2.835   7.174  18.364  0.00  0.00    +0.000 A 
ATOM      8  C   UNL     1       2.397   7.053  19.697  0.00  0.00    +0.000 A 
ATOM      9  C   UNL     1       1.605   8.039  20.302  0.00  0.00    +0.000 A 
ATOM     10  C   UNL     1       1.194   9.139  19.566  0.00  0.00    +0.000 A 
ATOM     11  F   UNL     1       0.433  10.080  20.142  0.00  0.00    +0.000 F 
ATOM     12  C   UNL     1       1.560   9.274  18.236  0.00  0.00    +0.000 A 
ATOM     13  C   UNL     1       2.383   8.306  17.648  0.00  0.00    +0.000 A 
ENDBRANCH   6   7
BRANCH   1  14
ATOM     14  C   UNL     1       2.086   4.203  17.960  0.00  0.00    +0.000 C 
ATOM     15  O   UNL     1       1.034   4.205  17.343  0.00  0.00    +0.000 OA
BRANCH  14  17
ATOM     16  C   UNL     1       1.102   3.471  19.955  0.00  0.00    +0.000 C 
ATOM     17  O   UNL     1       2.292   3.648  19.183  0.00  0.00    +0.000 OA
ENDBRANCH  14  17
ENDBRANCH   1  14
TORSDOF 3
ENDMDL
MODEL 6
REMARK VINA RESULT:      -6.9      2.623      3.714
REMARK  Name = 
REMARK  4 active torsions:
REMARK  status: ('A' for Active; 'I' for Inactive)
REMARK    1  A    between atoms: C_1  and  O_2
REMARK    2  A    between atoms: O_2  and  C_3
REMARK    3  A    between atoms: C_3  and  C_5
REMARK    4  A    between atoms: C_10  and  C_11
REMARK                            x       y       z     vdW  Elec       q    Type
REMARK                         _______ _______ _______ _____ _____    ______ ____
ROOT
ATOM      1  C   UNL     1       3.769   6.275  17.485  0.00  0.00    +0.000 A 
ATOM      2  C   UNL     1       4.580   6.766  16.438  0.00  0.00    +0.000 A 
ATOM      3  C   UNL     1       5.316   5.900  15.638  0.00  0.00    +0.000 A 
ATOM      4  C   UNL     1       5.256   4.535  15.875  0.00  0.00    +0.000 A 
ATOM      5  C   UNL     1       4.473   4.041  16.924  0.00  0.00    +0.000 A 
ATOM      6  C   UNL     1       3.699   4.883  17.758  0.00  0.00    +0.000 A 
ENDROOT
BRANCH   6   7
ATOM      7  C   UNL     1       2.885   4.260  18.839  0.00  0.00    +0.000 A 
ATOM      8  C   UNL     1       1.517   3.960  18.684  0.00  0.00    +0.000 A 
ATOM      9  C   UNL     1       0.783   3.340  19.704  0.00  0.00    +0.000 A 
ATOM     10  C   UNL     1       1.390   3.057  20.917  0.00  0.00    +0.000 A 
ATOM     11  F   UNL     1       0.686   2.468  21.893  0.00  0.00    +0.000 F 
ATOM     12  C   UNL     1       2.720   3.381  21.130  0.00  0.00    +0.000 A 
ATOM     13  C   UNL     1       3.461   3.965  20.095  0.00  0.00    +0.000 A 
ENDBRANCH   6   7
BRANCH   1  14
ATOM     14  C   UNL     1       2.951   7.285  18.207  0.00  0.00    +0.000 C 
ATOM     15  O   UNL     1       2.601   7.201  19.372  0.00  0.00    +0.000 OA
BRANCH  14  17
ATOM     16  C   UNL     1       1.700   9.234  17.860  0.00  0.00    +0.000 C 
ATOM     17  O   UNL     1       2.672   8.312  17.363  0.00  0.00    +0.000 OA
ENDBRANCH  14  17
ENDBRANCH   1  14
TORSDOF 3
ENDMDL
MODEL 7
REMARK VINA RESULT:      -6.9      3.342      4.741
REMARK  Name = 
REMARK  4 active torsions:
REMARK  status: ('A' for Active; 'I' for Inactive)
REMARK    1  A    between atoms: C_1  and  O_2
REMARK    2  A    between atoms: O_2  and  C_3
REMARK    3  A    between atoms: C_3  and  C_5
REMARK    4  A    between atoms: C_10  and  C_11
REMARK                            x       y       z     vdW  Elec       q    Type
REMARK                         _______ _______ _______ _____ _____    ______ ____
ROOT
ATOM      1  C   UNL     1       3.406   4.821  17.421  0.00  0.00    +0.000 A 
ATOM      2  C   UNL     1       4.315   3.955  16.773  0.00  0.00    +0.000 A 
ATOM      3  C   UNL     1       5.561   4.410  16.357  0.00  0.00    +0.000 A 
ATOM      4  C   UNL     1       5.913   5.733  16.579  0.00  0.00    +0.000 A 
ATOM      5  C   UNL     1       5.011   6.602  17.200  0.00  0.00    +0.000 A 
ATOM      6  C   UNL     1       3.736   6.183  17.649  0.00  0.00    +0.000 A 
ENDROOT
BRANCH   6   7
ATOM      7  C   UNL     1       2.851   7.180  18.315  0.00  0.00    +0.000 A 
ATOM      8  C   UNL     1       2.370   8.328  17.656  0.00  0.00    +0.000 A 
ATOM      9  C   UNL     1       1.508   9.231  18.293  0.00  0.00    +0.000 A 
ATOM     10  C   UNL     1       1.155   9.030  19.618  0.00  0.00    +0.000 A 
ATOM     11  F   UNL     1       0.334   9.896  20.228  0.00  0.00    +0.000 F 
ATOM     12  C   UNL     1       1.645   7.940  20.319  0.00  0.00    +0.000 A 
ATOM     13  C   UNL     1       2.474   7.019  19.667  0.00  0.00    +0.000 A 
ENDBRANCH   6   7
BRANCH   1  14
ATOM     14  C   UNL     1       2.147   4.199  17.910  0.00  0.00    +0.000 C 
ATOM     15  O   UNL     1       1.072   4.246  17.336  0.00  0.00    +0.000 OA
BRANCH  14  17
ATOM     16  C   UNL     1       1.916   2.219  19.140  0.00  0.00    +0.000 C 
ATOM     17  O   UNL     1       2.396   3.564  19.085  0.00  0.00    +0.000 OA
ENDBRANCH  14  17
ENDBRANCH   1  14
TORSDOF 3
ENDMDL
MODEL 8
REMARK VINA RESULT:      -6.9      3.002      5.513
REMARK  Name = 
REMARK  4 active torsions:
REMARK  status: ('A' for Active; 'I' for Inactive)
REMARK    1  A    between atoms: C_1  and  O_2
REMARK    2  A    between atoms: O_2  and  C_3
REMARK    3  A    between atoms: C_3  and  C_5
REMARK    4  A    between atoms: C_10  and  C_11
REMARK                            x       y       z     vdW  Elec       q    Type
REMARK                         _______ _______ _______ _____ _____    ______ ____
ROOT
ATOM      1  C   UNL     1       2.589   4.828  18.526  0.00  0.00    +0.000 A 
ATOM      2  C   UNL     1       1.470   3.967  18.499  0.00  0.00    +0.000 A 
ATOM      3  C   UNL     1       1.613   2.621  18.184  0.00  0.00    +0.000 A 
ATOM      4  C   UNL     1       2.872   2.119  17.889  0.00  0.00    +0.000 A 
ATOM      5  C   UNL     1       3.982   2.969  17.892  0.00  0.00    +0.000 A 
ATOM      6  C   UNL     1       3.887   4.343  18.216  0.00  0.00    +0.000 A 
ENDROOT
BRANCH   6   7
ATOM      7  C   UNL     1       5.131   5.165  18.207  0.00  0.00    +0.000 A 
ATOM      8  C   UNL     1       5.426   6.086  17.183  0.00  0.00    +0.000 A 
ATOM      9  C   UNL     1       6.584   6.874  17.218  0.00  0.00    +0.000 A 
ATOM     10  C   UNL     1       7.494   6.717  18.251  0.00  0.00    +0.000 A 
ATOM     11  F   UNL     1       8.603   7.468  18.282  0.00  0.00    +0.000 F 
ATOM     12  C   UNL     1       7.268   5.788  19.253  0.00  0.00    +0.000 A 
ATOM     13  C   UNL     1       6.090   5.030  19.235  0.00  0.00    +0.000 A 
ENDBRANCH   6   7
BRANCH   1  14
ATOM     14  C   UNL     1       2.330   6.222  18.974  0.00  0.00    +0.000 C 
ATOM     15  O   UNL     1       2.266   6.587  20.136  0.00  0.00    +0.000 OA
BRANCH  14  17
ATOM     16  C   UNL     1       2.279   8.416  18.156  0.00  0.00    +0.000 C 
ATOM     17  O   UNL     1       2.189   7.017  17.880  0.00  0.00    +0.000 OA
ENDBRANCH  14  17
ENDBRANCH   1  14
TORSDOF 3
ENDMDL
MODEL 9
REMARK VINA RESULT:      -6.8      2.433      3.825
REMARK  Name = 
REMARK  4 active torsions:
REMARK  status: ('A' for Active; 'I' for Inactive)
REMARK    1  A    between atoms: C_1  and  O_2
REMARK    2  A    between atoms: O_2  and  C_3
REMARK    3  A    between atoms: C_3  and  C_5
REMARK    4  A    between atoms: C_10  and  C_11
REMARK                            x       y       z     vdW  Elec       q    Type
REMARK                         _______ _______ _______ _____ _____    ______ ____
ROOT
ATOM      1  C   UNL     1       6.618   5.687  16.576  0.00  0.00    +0.000 A 
ATOM      2  C   UNL     1       7.436   5.210  15.529  0.00  0.00    +0.000 A 
ATOM      3  C   UNL     1       6.904   4.435  14.505  0.00  0.00    +0.000 A 
ATOM      4  C   UNL     1       5.553   4.124  14.515  0.00  0.00    +0.000 A 
ATOM      5  C   UNL     1       4.740   4.574  15.560  0.00  0.00    +0.000 A 
ATOM      6  C   UNL     1       5.233   5.373  16.618  0.00  0.00    +0.000 A 
ENDROOT
BRANCH   6   7
ATOM      7  C   UNL     1       4.285   5.817  17.679  0.00  0.00    +0.000 A 
ATOM      8  C   UNL     1       3.569   7.028  17.599  0.00  0.00    +0.000 A 
ATOM      9  C   UNL     1       2.654   7.404  18.592  0.00  0.00    +0.000 A 
ATOM     10  C   UNL     1       2.478   6.601  19.708  0.00  0.00    +0.000 A 
ATOM     11  F   UNL     1       1.606   6.964  20.659  0.00  0.00    +0.000 F 
ATOM     12  C   UNL     1       3.199   5.427  19.850  0.00  0.00    +0.000 A 
ATOM     13  C   UNL     1       4.083   5.035  18.838  0.00  0.00    +0.000 A 
ENDBRANCH   6   7
BRANCH   1  14
ATOM     14  C   UNL     1       7.275   6.588  17.560  0.00  0.00    +0.000 C 
ATOM     15  O   UNL     1       7.636   6.262  18.678  0.00  0.00    +0.000 OA
BRANCH  14  17
ATOM     16  C   UNL     1       8.003   8.792  17.871  0.00  0.00    +0.000 C 
ATOM     17  O   UNL     1       7.415   7.820  17.005  0.00  0.00    +0.000 OA
ENDBRANCH  14  17
ENDBRANCH   1  14
TORSDOF 3
ENDMDL
