MODEL 1
REMARK VINA RESULT:      -8.5      0.000      0.000
REMARK  Name = 
REMARK  10 active torsions:
REMARK  status: ('A' for Active; 'I' for Inactive)
REMARK    1  A    between atoms: C_1  and  C_2
REMARK    2  A    between atoms: C_2  and  C_3
REMARK    3  A    between atoms: C_3  and  C_4
REMARK    4  A    between atoms: C_4  and  C_5
REMARK    5  A    between atoms: C_5  and  C_6
REMARK    6  A    between atoms: C_6  and  C_7
REMARK    7  A    between atoms: C_6  and  N_8
REMARK    8  A    between atoms: C_9  and  C_11
REMARK    9  A    between atoms: N_15  and  C_16
REMARK   10  A    between atoms: C_20  and  C_21
REMARK                            x       y       z     vdW  Elec       q    Type
REMARK                         _______ _______ _______ _____ _____    ______ ____
ROOT
ATOM      1  C   UNL     1       4.052   4.110  19.473  0.00  0.00    +0.000 A 
ATOM      2  C   UNL     1       3.744   2.813  19.844  0.00  0.00    +0.000 A 
ATOM      3  N   UNL     1       2.460   2.704  20.292  0.00  0.00    +0.000 NA
ATOM      4  C   UNL     1       1.971   3.918  20.203  0.00  0.00    +0.000 A 
ATOM      5  N   UNL     1       2.865   4.816  19.655  0.00  0.00    +0.000 N 
ENDROOT
BRANCH   5   6
ATOM      6  C   UNL     1       2.547   6.156  19.292  0.00  0.00    +0.000 A 
ATOM      7  C   UNL     1       3.024   6.698  18.095  0.00  0.00    +0.000 A 
ATOM      8  C   UNL     1       2.705   8.012  17.755  0.00  0.00    +0.000 A 
ATOM      9  C   UNL     1       1.938   8.801  18.620  0.00  0.00    +0.000 A 
ATOM     10  C   UNL     1       1.488   8.302  19.853  0.00  0.00    +0.000 A 
ATOM     11  C   UNL     1       1.803   6.965  20.164  0.00  0.00    +0.000 A 
BRANCH  10  12
ATOM     12  C   UNL     1       0.767   9.146  20.827  0.00  0.00    +0.000 A 
ATOM     13  C   UNL     1      -0.021   8.605  21.854  0.00  0.00    +0.000 A 
ATOM     14  C   UNL     1      -0.605   9.432  22.814  0.00  0.00    +0.000 A 
ATOM     15  C   UNL     1      -0.404  10.797  22.713  0.00  0.00    +0.000 A 
ATOM     16  N   UNL     1       0.317  11.373  21.732  0.00  0.00    +0.000 NA
ATOM     17  C   UNL     1       0.881  10.539  20.823  0.00  0.00    +0.000 A 
ENDBRANCH  10  12
ENDBRANCH   5   6
BRANCH   1  19
ATOM     18  N   UNL     1       5.578   4.671  17.737  0.00  0.00    +0.000 N 
ATOM     19  C   UNL     1       5.331   4.656  19.094  0.00  0.00    +0.000 C 
ATOM     20  O   UNL     1       6.144   5.104  19.897  0.00  0.00    +0.000 OA
ATOM     21  H   UNL     1       4.905   4.258  17.104  0.00  0.00    +0.000 HD
BRANCH  18  22
ATOM     22  C   UNL     1       6.795   5.252  17.186  0.00  0.00    +0.000 C 
ATOM     23  C   UNL     1       7.070   4.681  15.795  0.00  0.00    +0.000 C 
BRANCH  22  24
ATOM     24  C   UNL     1       6.703   6.786  17.153  0.00  0.00    +0.000 C 
BRANCH  24  25
ATOM     25  C   UNL     1       7.835   7.433  17.961  0.00  0.00    +0.000 C 
BRANCH  25  26
ATOM     26  C   UNL     1       7.952   8.935  17.703  0.00  0.00    +0.000 C 
BRANCH  26  28
ATOM     27  C   UNL     1       9.346  10.959  18.298  0.00  0.00    +0.000 C 
ATOM     28  C   UNL     1       8.875   9.583  18.736  0.00  0.00    +0.000 C 
ENDBRANCH  26  28
ENDBRANCH  25  26
ENDBRANCH  24  25
ENDBRANCH  22  24
ENDBRANCH  18  22
ENDBRANCH   1  19
TORSDOF 8
ENDMDL
MODEL 2
REMARK VINA RESULT:      -8.2      2.048      3.483
REMARK  Name = 
REMARK  10 active torsions:
REMARK  status: ('A' for Active; 'I' for Inactive)
REMARK    1  A    between atoms: C_1  and  C_2
REMARK    2  A    between atoms: C_2  and  C_3
REMARK    3  A    between atoms: C_3  and  C_4
REMARK    4  A    between atoms: C_4  and  C_5
REMARK    5  A    between atoms: C_5  and  C_6
REMARK    6  A    between atoms: C_6  and  C_7
REMARK    7  A    between atoms: C_6  and  N_8
REMARK    8  A    between atoms: C_9  and  C_11
REMARK    9  A    between atoms: N_15  and  C_16
REMARK   10  A    between atoms: C_20  and  C_21
REMARK                            x       y       z     vdW  Elec       q    Type
REMARK                         _______ _______ _______ _____ _____    ______ ____
ROOT
ATOM      1  C   UNL     1       3.918   4.514  19.670  0.00  0.00    +0.000 A 
ATOM      2  C   UNL     1       3.694   3.249  20.186  0.00  0.00    +0.000 A 
ATOM      3  N   UNL     1       2.504   3.175  20.850  0.00  0.00    +0.000 NA
ATOM      4  C   UNL     1       1.991   4.378  20.752  0.00  0.00    +0.000 A 
ATOM      5  N   UNL     1       2.769   5.231  19.994  0.00  0.00    +0.000 N 
ENDROOT
BRANCH   5   6
ATOM      6  C   UNL     1       2.376   6.538  19.588  0.00  0.00    +0.000 A 
ATOM      7  C   UNL     1       2.753   7.034  18.337  0.00  0.00    +0.000 A 
ATOM      8  C   UNL     1       2.362   8.318  17.955  0.00  0.00    +0.000 A 
ATOM      9  C   UNL     1       1.622   9.121  18.828  0.00  0.00    +0.000 A 
ATOM     10  C   UNL     1       1.273   8.671  20.111  0.00  0.00    +0.000 A 
ATOM     11  C   UNL     1       1.659   7.364  20.466  0.00  0.00    +0.000 A 
BRANCH  10  12
ATOM     12  C   UNL     1       0.583   9.539  21.089  0.00  0.00    +0.000 A 
ATOM     13  C   UNL     1      -0.184  10.647  20.700  0.00  0.00    +0.000 A 
ATOM     14  C   UNL     1      -0.901  11.381  21.646  0.00  0.00    +0.000 A 
ATOM     15  C   UNL     1      -0.819  11.001  22.973  0.00  0.00    +0.000 A 
ATOM     16  N   UNL     1      -0.075   9.965  23.405  0.00  0.00    +0.000 NA
ATOM     17  C   UNL     1       0.600   9.265  22.459  0.00  0.00    +0.000 A 
ENDBRANCH  10  12
ENDBRANCH   5   6
BRANCH   1  19
ATOM     18  N   UNL     1       5.178   4.831  17.678  0.00  0.00    +0.000 N 
ATOM     19  C   UNL     1       5.108   5.030  19.041  0.00  0.00    +0.000 C 
ATOM     20  O   UNL     1       5.992   5.627  19.647  0.00  0.00    +0.000 OA
ATOM     21  H   UNL     1       4.452   4.300  17.214  0.00  0.00    +0.000 HD
BRANCH  18  22
ATOM     22  C   UNL     1       6.283   5.351  16.884  0.00  0.00    +0.000 C 
ATOM     23  C   UNL     1       7.527   4.486  17.080  0.00  0.00    +0.000 C 
BRANCH  22  24
ATOM     24  C   UNL     1       5.894   5.443  15.399  0.00  0.00    +0.000 C 
BRANCH  24  25
ATOM     25  C   UNL     1       5.851   4.057  14.743  0.00  0.00    +0.000 C 
BRANCH  25  26
ATOM     26  C   UNL     1       5.310   4.104  13.314  0.00  0.00    +0.000 C 
BRANCH  26  28
ATOM     27  C   UNL     1       5.632   2.243  11.634  0.00  0.00    +0.000 C 
ATOM     28  C   UNL     1       6.280   3.412  12.355  0.00  0.00    +0.000 C 
ENDBRANCH  26  28
ENDBRANCH  25  26
ENDBRANCH  24  25
ENDBRANCH  22  24
ENDBRANCH  18  22
ENDBRANCH   1  19
TORSDOF 8
ENDMDL
MODEL 3
REMARK VINA RESULT:      -8.0      1.387      1.838
REMARK  Name = 
REMARK  10 active torsions:
REMARK  status: ('A' for Active; 'I' for Inactive)
REMARK    1  A    between atoms: C_1  and  C_2
REMARK    2  A    between atoms: C_2  and  C_3
REMARK    3  A    between atoms: C_3  and  C_4
REMARK    4  A    between atoms: C_4  and  C_5
REMARK    5  A    between atoms: C_5  and  C_6
REMARK    6  A    between atoms: C_6  and  C_7
REMARK    7  A    between atoms: C_6  and  N_8
REMARK    8  A    between atoms: C_9  and  C_11
REMARK    9  A    between atoms: N_15  and  C_16
REMARK   10  A    between atoms: C_20  and  C_21
REMARK                            x       y       z     vdW  Elec       q    Type
REMARK                         _______ _______ _______ _____ _____    ______ ____
ROOT
ATOM      1  C   UNL     1       3.252   3.704  19.175  0.00  0.00    +0.000 A 
ATOM      2  C   UNL     1       3.141   2.635  20.047  0.00  0.00    +0.000 A 
ATOM      3  N   UNL     1       2.694   3.026  21.276  0.00  0.00    +0.000 NA
ATOM      4  C   UNL     1       2.528   4.323  21.173  0.00  0.00    +0.000 A 
ATOM      5  N   UNL     1       2.791   4.798  19.904  0.00  0.00    +0.000 N 
ENDROOT
BRANCH   5   6
ATOM      6  C   UNL     1       2.536   6.129  19.469  0.00  0.00    +0.000 A 
ATOM      7  C   UNL     1       3.056   6.590  18.256  0.00  0.00    +0.000 A 
ATOM      8  C   UNL     1       2.799   7.898  17.845  0.00  0.00    +0.000 A 
ATOM      9  C   UNL     1       2.050   8.760  18.654  0.00  0.00    +0.000 A 
ATOM     10  C   UNL     1       1.558   8.342  19.900  0.00  0.00    +0.000 A 
ATOM     11  C   UNL     1       1.811   7.011  20.284  0.00  0.00    +0.000 A 
BRANCH  10  12
ATOM     12  C   UNL     1       0.855   9.264  20.817  0.00  0.00    +0.000 A 
ATOM     13  C   UNL     1      -0.060  10.226  20.361  0.00  0.00    +0.000 A 
ATOM     14  C   UNL     1      -0.777  11.009  21.266  0.00  0.00    +0.000 A 
ATOM     15  C   UNL     1      -0.549  10.827  22.618  0.00  0.00    +0.000 A 
ATOM     16  N   UNL     1       0.338   9.940  23.110  0.00  0.00    +0.000 NA
ATOM     17  C   UNL     1       1.010   9.187  22.203  0.00  0.00    +0.000 A 
ENDBRANCH  10  12
ENDBRANCH   5   6
BRANCH   1  19
ATOM     18  N   UNL     1       5.155   4.074  17.797  0.00  0.00    +0.000 N 
ATOM     19  C   UNL     1       3.821   3.728  17.850  0.00  0.00    +0.000 C 
ATOM     20  O   UNL     1       3.193   3.441  16.836  0.00  0.00    +0.000 OA
ATOM     21  H   UNL     1       5.634   4.343  18.647  0.00  0.00    +0.000 HD
BRANCH  18  22
ATOM     22  C   UNL     1       5.895   4.079  16.543  0.00  0.00    +0.000 C 
ATOM     23  C   UNL     1       5.099   4.810  15.463  0.00  0.00    +0.000 C 
BRANCH  22  24
ATOM     24  C   UNL     1       7.287   4.703  16.731  0.00  0.00    +0.000 C 
BRANCH  24  25
ATOM     25  C   UNL     1       7.669   4.784  18.215  0.00  0.00    +0.000 C 
BRANCH  25  26
ATOM     26  C   UNL     1       7.746   6.225  18.720  0.00  0.00    +0.000 C 
BRANCH  26  28
ATOM     27  C   UNL     1       8.093   8.566  17.829  0.00  0.00    +0.000 C 
ATOM     28  C   UNL     1       7.465   7.205  17.579  0.00  0.00    +0.000 C 
ENDBRANCH  26  28
ENDBRANCH  25  26
ENDBRANCH  24  25
ENDBRANCH  22  24
ENDBRANCH  18  22
ENDBRANCH   1  19
TORSDOF 8
ENDMDL
MODEL 4
REMARK VINA RESULT:      -8.0      0.833      1.249
REMARK  Name = 
REMARK  10 active torsions:
REMARK  status: ('A' for Active; 'I' for Inactive)
REMARK    1  A    between atoms: C_1  and  C_2
REMARK    2  A    between atoms: C_2  and  C_3
REMARK    3  A    between atoms: C_3  and  C_4
REMARK    4  A    between atoms: C_4  and  C_5
REMARK    5  A    between atoms: C_5  and  C_6
REMARK    6  A    between atoms: C_6  and  C_7
REMARK    7  A    between atoms: C_6  and  N_8
REMARK    8  A    between atoms: C_9  and  C_11
REMARK    9  A    between atoms: N_15  and  C_16
REMARK   10  A    between atoms: C_20  and  C_21
REMARK                            x       y       z     vdW  Elec       q    Type
REMARK                         _______ _______ _______ _____ _____    ______ ____
ROOT
ATOM      1  C   UNL     1       3.648   4.041  19.838  0.00  0.00    +0.000 A 
ATOM      2  C   UNL     1       3.317   2.828  20.417  0.00  0.00    +0.000 A 
ATOM      3  N   UNL     1       2.152   2.902  21.123  0.00  0.00    +0.000 NA
ATOM      4  C   UNL     1       1.758   4.146  20.987  0.00  0.00    +0.000 A 
ATOM      5  N   UNL     1       2.589   4.884  20.167  0.00  0.00    +0.000 N 
ENDROOT
BRANCH   5   6
ATOM      6  C   UNL     1       2.314   6.206  19.716  0.00  0.00    +0.000 A 
ATOM      7  C   UNL     1       2.784   6.644  18.474  0.00  0.00    +0.000 A 
ATOM      8  C   UNL     1       2.508   7.943  18.048  0.00  0.00    +0.000 A 
ATOM      9  C   UNL     1       1.791   8.820  18.869  0.00  0.00    +0.000 A 
ATOM     10  C   UNL     1       1.351   8.427  20.143  0.00  0.00    +0.000 A 
ATOM     11  C   UNL     1       1.621   7.104  20.543  0.00  0.00    +0.000 A 
BRANCH  10  12
ATOM     12  C   UNL     1       0.684   9.366  21.069  0.00  0.00    +0.000 A 
ATOM     13  C   UNL     1       0.516  10.727  20.769  0.00  0.00    +0.000 A 
ATOM     14  C   UNL     1      -0.207  11.559  21.624  0.00  0.00    +0.000 A 
ATOM     15  C   UNL     1      -0.734  11.014  22.781  0.00  0.00    +0.000 A 
ATOM     16  N   UNL     1      -0.578   9.723  23.133  0.00  0.00    +0.000 NA
ATOM     17  C   UNL     1       0.119   8.939  22.274  0.00  0.00    +0.000 A 
ENDBRANCH  10  12
ENDBRANCH   5   6
BRANCH   1  19
ATOM     18  N   UNL     1       4.849   4.169  17.789  0.00  0.00    +0.000 N 
ATOM     19  C   UNL     1       4.859   4.407  19.148  0.00  0.00    +0.000 C 
ATOM     20  O   UNL     1       5.828   4.918  19.701  0.00  0.00    +0.000 OA
ATOM     21  H   UNL     1       4.050   3.711  17.370  0.00  0.00    +0.000 HD
BRANCH  18  22
ATOM     22  C   UNL     1       5.969   4.545  16.937  0.00  0.00    +0.000 C 
ATOM     23  C   UNL     1       5.900   3.790  15.611  0.00  0.00    +0.000 C 
BRANCH  22  24
ATOM     24  C   UNL     1       6.001   6.066  16.715  0.00  0.00    +0.000 C 
BRANCH  24  25
ATOM     25  C   UNL     1       7.436   6.608  16.752  0.00  0.00    +0.000 C 
BRANCH  25  26
ATOM     26  C   UNL     1       7.721   7.419  18.016  0.00  0.00    +0.000 C 
BRANCH  26  28
ATOM     27  C   UNL     1       8.840   9.578  18.711  0.00  0.00    +0.000 C 
ATOM     28  C   UNL     1       7.993   8.882  17.659  0.00  0.00    +0.000 C 
ENDBRANCH  26  28
ENDBRANCH  25  26
ENDBRANCH  24  25
ENDBRANCH  22  24
ENDBRANCH  18  22
ENDBRANCH   1  19
TORSDOF 8
ENDMDL
MODEL 5
REMARK VINA RESULT:      -7.9      1.969      3.117
REMARK  Name = 
REMARK  10 active torsions:
REMARK  status: ('A' for Active; 'I' for Inactive)
REMARK    1  A    between atoms: C_1  and  C_2
REMARK    2  A    between atoms: C_2  and  C_3
REMARK    3  A    between atoms: C_3  and  C_4
REMARK    4  A    between atoms: C_4  and  C_5
REMARK    5  A    between atoms: C_5  and  C_6
REMARK    6  A    between atoms: C_6  and  C_7
REMARK    7  A    between atoms: C_6  and  N_8
REMARK    8  A    between atoms: C_9  and  C_11
REMARK    9  A    between atoms: N_15  and  C_16
REMARK   10  A    between atoms: C_20  and  C_21
REMARK                            x       y       z     vdW  Elec       q    Type
REMARK                         _______ _______ _______ _____ _____    ______ ____
ROOT
ATOM      1  C   UNL     1       3.872   4.493  19.732  0.00  0.00    +0.000 A 
ATOM      2  C   UNL     1       3.633   3.243  20.277  0.00  0.00    +0.000 A 
ATOM      3  N   UNL     1       2.437   3.192  20.929  0.00  0.00    +0.000 NA
ATOM      4  C   UNL     1       1.932   4.395  20.796  0.00  0.00    +0.000 A 
ATOM      5  N   UNL     1       2.724   5.225  20.026  0.00  0.00    +0.000 N 
ENDROOT
BRANCH   5   6
ATOM      6  C   UNL     1       2.344   6.524  19.584  0.00  0.00    +0.000 A 
ATOM      7  C   UNL     1       2.749   6.992  18.331  0.00  0.00    +0.000 A 
ATOM      8  C   UNL     1       2.371   8.269  17.913  0.00  0.00    +0.000 A 
ATOM      9  C   UNL     1       1.615   9.093  18.754  0.00  0.00    +0.000 A 
ATOM     10  C   UNL     1       1.237   8.671  20.039  0.00  0.00    +0.000 A 
ATOM     11  C   UNL     1       1.611   7.371  20.429  0.00  0.00    +0.000 A 
BRANCH  10  12
ATOM     12  C   UNL     1       0.530   9.561  20.982  0.00  0.00    +0.000 A 
ATOM     13  C   UNL     1      -0.128   9.077  22.123  0.00  0.00    +0.000 A 
ATOM     14  C   UNL     1      -0.698   9.959  23.042  0.00  0.00    +0.000 A 
ATOM     15  C   UNL     1      -0.616  11.316  22.789  0.00  0.00    +0.000 A 
ATOM     16  N   UNL     1      -0.022  11.834  21.696  0.00  0.00    +0.000 NA
ATOM     17  C   UNL     1       0.532  10.950  20.830  0.00  0.00    +0.000 A 
ENDBRANCH  10  12
ENDBRANCH   5   6
BRANCH   1  19
ATOM     18  N   UNL     1       5.090   4.888  17.728  0.00  0.00    +0.000 N 
ATOM     19  C   UNL     1       5.072   4.986  19.104  0.00  0.00    +0.000 C 
ATOM     20  O   UNL     1       6.008   5.483  19.723  0.00  0.00    +0.000 OA
ATOM     21  H   UNL     1       4.320   4.437  17.251  0.00  0.00    +0.000 HD
BRANCH  18  22
ATOM     22  C   UNL     1       6.201   5.402  16.939  0.00  0.00    +0.000 C 
ATOM     23  C   UNL     1       7.370   4.419  16.968  0.00  0.00    +0.000 C 
BRANCH  22  24
ATOM     24  C   UNL     1       5.756   5.700  15.497  0.00  0.00    +0.000 C 
BRANCH  24  25
ATOM     25  C   UNL     1       6.466   4.786  14.491  0.00  0.00    +0.000 C 
BRANCH  25  26
ATOM     26  C   UNL     1       5.490   4.107  13.530  0.00  0.00    +0.000 C 
BRANCH  26  28
ATOM     27  C   UNL     1       7.171   4.096  11.641  0.00  0.00    +0.000 C 
ATOM     28  C   UNL     1       6.251   3.257  12.510  0.00  0.00    +0.000 C 
ENDBRANCH  26  28
ENDBRANCH  25  26
ENDBRANCH  24  25
ENDBRANCH  22  24
ENDBRANCH  18  22
ENDBRANCH   1  19
TORSDOF 8
ENDMDL
MODEL 6
REMARK VINA RESULT:      -7.7      1.108      1.261
REMARK  Name = 
REMARK  10 active torsions:
REMARK  status: ('A' for Active; 'I' for Inactive)
REMARK    1  A    between atoms: C_1  and  C_2
REMARK    2  A    between atoms: C_2  and  C_3
REMARK    3  A    between atoms: C_3  and  C_4
REMARK    4  A    between atoms: C_4  and  C_5
REMARK    5  A    between atoms: C_5  and  C_6
REMARK    6  A    between atoms: C_6  and  C_7
REMARK    7  A    between atoms: C_6  and  N_8
REMARK    8  A    between atoms: C_9  and  C_11
REMARK    9  A    between atoms: N_15  and  C_16
REMARK   10  A    between atoms: C_20  and  C_21
REMARK                            x       y       z     vdW  Elec       q    Type
REMARK                         _______ _______ _______ _____ _____    ______ ____
ROOT
ATOM      1  C   UNL     1       3.870   4.359  19.345  0.00  0.00    +0.000 A 
ATOM      2  C   UNL     1       3.686   3.162  20.013  0.00  0.00    +0.000 A 
ATOM      3  N   UNL     1       2.687   3.244  20.939  0.00  0.00    +0.000 NA
ATOM      4  C   UNL     1       2.253   4.479  20.852  0.00  0.00    +0.000 A 
ATOM      5  N   UNL     1       2.886   5.200  19.859  0.00  0.00    +0.000 N 
ENDROOT
BRANCH   5   6
ATOM      6  C   UNL     1       2.502   6.504  19.437  0.00  0.00    +0.000 A 
ATOM      7  C   UNL     1       2.893   6.987  18.184  0.00  0.00    +0.000 A 
ATOM      8  C   UNL     1       2.510   8.268  17.786  0.00  0.00    +0.000 A 
ATOM      9  C   UNL     1       1.765   9.083  18.645  0.00  0.00    +0.000 A 
ATOM     10  C   UNL     1       1.402   8.646  19.929  0.00  0.00    +0.000 A 
ATOM     11  C   UNL     1       1.779   7.342  20.300  0.00  0.00    +0.000 A 
BRANCH  10  12
ATOM     12  C   UNL     1       0.706   9.526  20.891  0.00  0.00    +0.000 A 
ATOM     13  C   UNL     1      -0.181  10.535  20.483  0.00  0.00    +0.000 A 
ATOM     14  C   UNL     1      -0.894  11.277  21.425  0.00  0.00    +0.000 A 
ATOM     15  C   UNL     1      -0.689  11.007  22.766  0.00  0.00    +0.000 A 
ATOM     16  N   UNL     1       0.170  10.071  23.214  0.00  0.00    +0.000 NA
ATOM     17  C   UNL     1       0.838   9.360  22.272  0.00  0.00    +0.000 A 
ENDBRANCH  10  12
ENDBRANCH   5   6
BRANCH   1  19
ATOM     18  N   UNL     1       6.027   5.293  18.979  0.00  0.00    +0.000 N 
ATOM     19  C   UNL     1       4.909   4.717  18.412  0.00  0.00    +0.000 C 
ATOM     20  O   UNL     1       4.837   4.512  17.204  0.00  0.00    +0.000 OA
ATOM     21  H   UNL     1       6.039   5.484  19.972  0.00  0.00    +0.000 HD
BRANCH  18  22
ATOM     22  C   UNL     1       7.193   5.650  18.182  0.00  0.00    +0.000 C 
ATOM     23  C   UNL     1       7.814   4.398  17.565  0.00  0.00    +0.000 C 
BRANCH  22  24
ATOM     24  C   UNL     1       6.823   6.681  17.103  0.00  0.00    +0.000 C 
BRANCH  24  25
ATOM     25  C   UNL     1       6.948   8.115  17.631  0.00  0.00    +0.000 C 
BRANCH  25  26
ATOM     26  C   UNL     1       8.312   8.385  18.268  0.00  0.00    +0.000 C 
BRANCH  26  28
ATOM     27  C   UNL     1       9.373  10.347  19.461  0.00  0.00    +0.000 C 
ATOM     28  C   UNL     1       8.637   9.880  18.217  0.00  0.00    +0.000 C 
ENDBRANCH  26  28
ENDBRANCH  25  26
ENDBRANCH  24  25
ENDBRANCH  22  24
ENDBRANCH  18  22
ENDBRANCH   1  19
TORSDOF 8
ENDMDL
MODEL 7
REMARK VINA RESULT:      -7.7      3.348      5.635
REMARK  Name = 
REMARK  10 active torsions:
REMARK  status: ('A' for Active; 'I' for Inactive)
REMARK    1  A    between atoms: C_1  and  C_2
REMARK    2  A    between atoms: C_2  and  C_3
REMARK    3  A    between atoms: C_3  and  C_4
REMARK    4  A    between atoms: C_4  and  C_5
REMARK    5  A    between atoms: C_5  and  C_6
REMARK    6  A    between atoms: C_6  and  C_7
REMARK    7  A    between atoms: C_6  and  N_8
REMARK    8  A    between atoms: C_9  and  C_11
REMARK    9  A    between atoms: N_15  and  C_16
REMARK   10  A    between atoms: C_20  and  C_21
REMARK                            x       y       z     vdW  Elec       q    Type
REMARK                         _______ _______ _______ _____ _____    ______ ____
ROOT
ATOM      1  C   UNL     1       6.538   4.867  16.666  0.00  0.00    +0.000 A 
ATOM      2  C   UNL     1       7.788   4.524  17.152  0.00  0.00    +0.000 A 
ATOM      3  N   UNL     1       7.812   4.492  18.516  0.00  0.00    +0.000 NA
ATOM      4  C   UNL     1       6.592   4.812  18.878  0.00  0.00    +0.000 A 
ATOM      5  N   UNL     1       5.745   4.995  17.804  0.00  0.00    +0.000 N 
ENDROOT
BRANCH   5   6
ATOM      6  C   UNL     1       4.338   5.185  17.906  0.00  0.00    +0.000 A 
ATOM      7  C   UNL     1       3.456   4.169  17.525  0.00  0.00    +0.000 A 
ATOM      8  C   UNL     1       2.080   4.372  17.629  0.00  0.00    +0.000 A 
ATOM      9  C   UNL     1       1.577   5.597  18.083  0.00  0.00    +0.000 A 
ATOM     10  C   UNL     1       2.436   6.654  18.423  0.00  0.00    +0.000 A 
ATOM     11  C   UNL     1       3.821   6.418  18.332  0.00  0.00    +0.000 A 
BRANCH  10  12
ATOM     12  C   UNL     1       1.928   7.988  18.804  0.00  0.00    +0.000 A 
ATOM     13  C   UNL     1       1.783   9.031  17.877  0.00  0.00    +0.000 A 
ATOM     14  C   UNL     1       1.206  10.244  18.256  0.00  0.00    +0.000 A 
ATOM     15  C   UNL     1       0.802  10.397  19.569  0.00  0.00    +0.000 A 
ATOM     16  N   UNL     1       0.943   9.441  20.508  0.00  0.00    +0.000 NA
ATOM     17  C   UNL     1       1.497   8.270  20.103  0.00  0.00    +0.000 A 
ENDBRANCH  10  12
ENDBRANCH   5   6
BRANCH   1  19
ATOM     18  N   UNL     1       6.500   4.181  14.389  0.00  0.00    +0.000 N 
ATOM     19  C   UNL     1       6.149   5.149  15.307  0.00  0.00    +0.000 C 
ATOM     20  O   UNL     1       5.529   6.154  14.972  0.00  0.00    +0.000 OA
ATOM     21  H   UNL     1       7.045   3.383  14.690  0.00  0.00    +0.000 HD
BRANCH  18  22
ATOM     22  C   UNL     1       6.121   4.282  12.986  0.00  0.00    +0.000 C 
ATOM     23  C   UNL     1       7.213   3.687  12.100  0.00  0.00    +0.000 C 
BRANCH  22  24
ATOM     24  C   UNL     1       4.765   3.602  12.735  0.00  0.00    +0.000 C 
BRANCH  24  25
ATOM     25  C   UNL     1       4.600   3.206  11.263  0.00  0.00    +0.000 C 
BRANCH  25  26
ATOM     26  C   UNL     1       3.244   2.559  10.981  0.00  0.00    +0.000 C 
BRANCH  26  28
ATOM     27  C   UNL     1       2.975   4.620   9.540  0.00  0.00    +0.000 C 
ATOM     28  C   UNL     1       2.623   3.153   9.715  0.00  0.00    +0.000 C 
ENDBRANCH  26  28
ENDBRANCH  25  26
ENDBRANCH  24  25
ENDBRANCH  22  24
ENDBRANCH  18  22
ENDBRANCH   1  19
TORSDOF 8
ENDMDL
MODEL 8
REMARK VINA RESULT:      -7.7      1.109      1.149
REMARK  Name = 
REMARK  10 active torsions:
REMARK  status: ('A' for Active; 'I' for Inactive)
REMARK    1  A    between atoms: C_1  and  C_2
REMARK    2  A    between atoms: C_2  and  C_3
REMARK    3  A    between atoms: C_3  and  C_4
REMARK    4  A    between atoms: C_4  and  C_5
REMARK    5  A    between atoms: C_5  and  C_6
REMARK    6  A    between atoms: C_6  and  C_7
REMARK    7  A    between atoms: C_6  and  N_8
REMARK    8  A    between atoms: C_9  and  C_11
REMARK    9  A    between atoms: N_15  and  C_16
REMARK   10  A    between atoms: C_20  and  C_21
REMARK                            x       y       z     vdW  Elec       q    Type
REMARK                         _______ _______ _______ _____ _____    ______ ____
ROOT
ATOM      1  C   UNL     1       3.541   4.340  19.317  0.00  0.00    +0.000 A 
ATOM      2  C   UNL     1       3.448   3.185  20.074  0.00  0.00    +0.000 A 
ATOM      3  N   UNL     1       2.662   3.361  21.176  0.00  0.00    +0.000 NA
ATOM      4  C   UNL     1       2.269   4.611  21.109  0.00  0.00    +0.000 A 
ATOM      5  N   UNL     1       2.716   5.252  19.972  0.00  0.00    +0.000 N 
ENDROOT
BRANCH   5   6
ATOM      6  C   UNL     1       2.307   6.554  19.563  0.00  0.00    +0.000 A 
ATOM      7  C   UNL     1       2.724   7.074  18.334  0.00  0.00    +0.000 A 
ATOM      8  C   UNL     1       2.316   8.351  17.949  0.00  0.00    +0.000 A 
ATOM      9  C   UNL     1       1.520   9.126  18.799  0.00  0.00    +0.000 A 
ATOM     10  C   UNL     1       1.129   8.652  20.062  0.00  0.00    +0.000 A 
ATOM     11  C   UNL     1       1.533   7.351  20.419  0.00  0.00    +0.000 A 
BRANCH  10  12
ATOM     12  C   UNL     1       0.376   9.490  21.018  0.00  0.00    +0.000 A 
ATOM     13  C   UNL     1       0.118   9.082  22.335  0.00  0.00    +0.000 A 
ATOM     14  C   UNL     1      -0.508   9.943  23.237  0.00  0.00    +0.000 A 
ATOM     15  C   UNL     1      -0.884  11.198  22.793  0.00  0.00    +0.000 A 
ATOM     16  N   UNL     1      -0.687  11.632  21.533  0.00  0.00    +0.000 NA
ATOM     17  C   UNL     1      -0.065  10.774  20.686  0.00  0.00    +0.000 A 
ENDBRANCH  10  12
ENDBRANCH   5   6
BRANCH   1  19
ATOM     18  N   UNL     1       5.448   5.443  18.421  0.00  0.00    +0.000 N 
ATOM     19  C   UNL     1       4.382   4.602  18.177  0.00  0.00    +0.000 C 
ATOM     20  O   UNL     1       4.200   4.105  17.070  0.00  0.00    +0.000 OA
ATOM     21  H   UNL     1       5.549   5.867  19.334  0.00  0.00    +0.000 HD
BRANCH  18  22
ATOM     22  C   UNL     1       6.430   5.754  17.391  0.00  0.00    +0.000 C 
ATOM     23  C   UNL     1       5.803   6.633  16.311  0.00  0.00    +0.000 C 
BRANCH  22  24
ATOM     24  C   UNL     1       7.673   6.420  18.004  0.00  0.00    +0.000 C 
BRANCH  24  25
ATOM     25  C   UNL     1       7.733   7.915  17.662  0.00  0.00    +0.000 C 
BRANCH  25  26
ATOM     26  C   UNL     1       8.635   8.696  18.618  0.00  0.00    +0.000 C 
BRANCH  26  28
ATOM     27  C   UNL     1       9.659  10.961  19.081  0.00  0.00    +0.000 C 
ATOM     28  C   UNL     1       8.786  10.143  18.146  0.00  0.00    +0.000 C 
ENDBRANCH  26  28
ENDBRANCH  25  26
ENDBRANCH  24  25
ENDBRANCH  22  24
ENDBRANCH  18  22
ENDBRANCH   1  19
TORSDOF 8
ENDMDL
MODEL 9
REMARK VINA RESULT:      -7.5      3.929      8.861
REMARK  Name = 
REMARK  10 active torsions:
REMARK  status: ('A' for Active; 'I' for Inactive)
REMARK    1  A    between atoms: C_1  and  C_2
REMARK    2  A    between atoms: C_2  and  C_3
REMARK    3  A    between atoms: C_3  and  C_4
REMARK    4  A    between atoms: C_4  and  C_5
REMARK    5  A    between atoms: C_5  and  C_6
REMARK    6  A    between atoms: C_6  and  C_7
REMARK    7  A    between atoms: C_6  and  N_8
REMARK    8  A    between atoms: C_9  and  C_11
REMARK    9  A    between atoms: N_15  and  C_16
REMARK   10  A    between atoms: C_20  and  C_21
REMARK                            x       y       z     vdW  Elec       q    Type
REMARK                         _______ _______ _______ _____ _____    ______ ____
ROOT
ATOM      1  C   UNL     1       0.006  10.675  20.765  0.00  0.00    +0.000 A 
ATOM      2  C   UNL     1      -0.280  11.157  22.031  0.00  0.00    +0.000 A 
ATOM      3  N   UNL     1       0.169  10.319  23.008  0.00  0.00    +0.000 NA
ATOM      4  C   UNL     1       0.729   9.323  22.363  0.00  0.00    +0.000 A 
ATOM      5  N   UNL     1       0.721   9.501  20.994  0.00  0.00    +0.000 N 
ENDROOT
BRANCH   5   6
ATOM      6  C   UNL     1       1.401   8.664  20.064  0.00  0.00    +0.000 A 
ATOM      7  C   UNL     1       1.612   9.089  18.749  0.00  0.00    +0.000 A 
ATOM      8  C   UNL     1       2.278   8.255  17.851  0.00  0.00    +0.000 A 
ATOM      9  C   UNL     1       2.708   6.986  18.249  0.00  0.00    +0.000 A 
ATOM     10  C   UNL     1       2.466   6.510  19.548  0.00  0.00    +0.000 A 
ATOM     11  C   UNL     1       1.812   7.377  20.444  0.00  0.00    +0.000 A 
BRANCH  10  12
ATOM     12  C   UNL     1       2.818   5.135  19.960  0.00  0.00    +0.000 A 
ATOM     13  C   UNL     1       2.079   4.425  20.918  0.00  0.00    +0.000 A 
ATOM     14  C   UNL     1       2.384   3.094  21.207  0.00  0.00    +0.000 A 
ATOM     15  C   UNL     1       3.442   2.503  20.541  0.00  0.00    +0.000 A 
ATOM     16  N   UNL     1       4.203   3.146  19.634  0.00  0.00    +0.000 NA
ATOM     17  C   UNL     1       3.872   4.434  19.369  0.00  0.00    +0.000 A 
ENDBRANCH  10  12
ENDBRANCH   5   6
BRANCH   1  19
ATOM     18  N   UNL     1      -1.513  10.540  18.940  0.00  0.00    +0.000 N 
ATOM     19  C   UNL     1      -0.426  11.188  19.489  0.00  0.00    +0.000 C 
ATOM     20  O   UNL     1       0.102  12.142  18.927  0.00  0.00    +0.000 OA
ATOM     21  H   UNL     1      -1.901   9.732  19.410  0.00  0.00    +0.000 HD
BRANCH  18  22
ATOM     22  C   UNL     1      -2.114  10.979  17.688  0.00  0.00    +0.000 C 
ATOM     23  C   UNL     1      -2.412   9.776  16.795  0.00  0.00    +0.000 C 
BRANCH  22  24
ATOM     24  C   UNL     1      -3.381  11.809  17.950  0.00  0.00    +0.000 C 
BRANCH  24  25
ATOM     25  C   UNL     1      -4.622  11.147  17.337  0.00  0.00    +0.000 C 
BRANCH  25  26
ATOM     26  C   UNL     1      -5.767  12.137  17.127  0.00  0.00    +0.000 C 
BRANCH  26  28
ATOM     27  C   UNL     1      -6.781  10.460  18.724  0.00  0.00    +0.000 C 
ATOM     28  C   UNL     1      -6.919  11.831  18.086  0.00  0.00    +0.000 C 
ENDBRANCH  26  28
ENDBRANCH  25  26
ENDBRANCH  24  25
ENDBRANCH  22  24
ENDBRANCH  18  22
ENDBRANCH   1  19
TORSDOF 8
ENDMDL
