MODEL 1
REMARK VINA RESULT:      -7.7      0.000      0.000
REMARK  Name = 
REMARK  10 active torsions:
REMARK  status: ('A' for Active; 'I' for Inactive)
REMARK    1  A    between atoms: C_1  and  C_2
REMARK    2  A    between atoms: C_2  and  O_3
REMARK    3  A    between atoms: O_3  and  C_4
REMARK    4  A    between atoms: C_7  and  C_8
REMARK    5  A    between atoms: C_8  and  N_9
REMARK    6  A    between atoms: C_10  and  C_12
REMARK    7  A    between atoms: N_14  and  C_15
REMARK    8  A    between atoms: C_18  and  O_19
REMARK    9  A    between atoms: O_19  and  C_20
REMARK   10  A    between atoms: N_33  and  C_34
REMARK                            x       y       z     vdW  Elec       q    Type
REMARK                         _______ _______ _______ _____ _____    ______ ____
ROOT
ATOM      1  C   UNL     1       0.533  10.589  19.280  0.00  0.00    +0.000 A 
ATOM      2  N   UNL     1       1.107  11.647  18.785  0.00  0.00    +0.000 NA
ATOM      3  N   UNL     1       1.159  12.769  19.656  0.00  0.00    +0.000 N 
ATOM      4  C   UNL     1       1.040  12.590  21.111  0.00  0.00    +0.000 A 
ATOM      5  O   UNL     1       1.332  13.419  21.965  0.00  0.00    +0.000 OA
ATOM      6  C   UNL     1       0.388  11.286  21.452  0.00  0.00    +0.000 A 
ATOM      7  C   UNL     1      -0.375  10.796  20.399  0.00  0.00    +0.000 A 
ATOM      8  C   UNL     1      -1.602  11.547  20.778  0.00  0.00    +0.000 A 
ATOM      9  C   UNL     1      -2.592  12.367  20.182  0.00  0.00    +0.000 A 
ATOM     10  C   UNL     1      -3.434  13.163  21.016  0.00  0.00    +0.000 A 
ATOM     11  C   UNL     1      -3.352  13.118  22.415  0.00  0.00    +0.000 A 
ATOM     12  C   UNL     1      -2.439  12.283  23.040  0.00  0.00    +0.000 A 
ATOM     13  C   UNL     1      -1.577  11.589  22.195  0.00  0.00    +0.000 A 
ATOM     14  N   UNL     1      -0.432  10.872  22.500  0.00  0.00    +0.000 N 
ATOM     15  C   UNL     1      -0.618   9.460  22.887  0.00  0.00    +0.000 C 
ENDROOT
BRANCH   3  16
ATOM     16  C   UNL     1       1.543  13.967  18.971  0.00  0.00    +0.000 A 
ATOM     17  C   UNL     1       0.749  15.112  18.931  0.00  0.00    +0.000 A 
ATOM     18  C   UNL     1       1.196  16.273  18.276  0.00  0.00    +0.000 A 
ATOM     19  C   UNL     1       2.445  16.316  17.656  0.00  0.00    +0.000 A 
ATOM     20  C   UNL     1       3.219  15.164  17.619  0.00  0.00    +0.000 A 
ATOM     21  C   UNL     1       2.766  14.008  18.262  0.00  0.00    +0.000 A 
BRANCH  19  22
ATOM     22  O   UNL     1       2.801  17.508  17.091  0.00  0.00    +0.000 OA
ATOM     23  C   UNL     1       1.726  18.232  16.493  0.00  0.00    +0.000 C 
ENDBRANCH  19  22
ENDBRANCH   3  16
BRANCH   1  25
ATOM     24  N   UNL     1       1.892   8.992  17.911  0.00  0.00    +0.000 N 
ATOM     25  C   UNL     1       1.436   9.296  19.192  0.00  0.00    +0.000 C 
ATOM     26  O   UNL     1       1.846   8.761  20.212  0.00  0.00    +0.000 OA
ATOM     27  H   UNL     1       1.591   9.630  17.180  0.00  0.00    +0.000 HD
BRANCH  24  28
ATOM     28  C   UNL     1       3.088   8.206  17.627  0.00  0.00    +0.000 C 
BRANCH  28  32
ATOM     29  C   UNL     1       2.890   4.117  19.085  0.00  0.00    +0.000 A 
ATOM     30  C   UNL     1       1.851   4.623  18.296  0.00  0.00    +0.000 A 
ATOM     31  C   UNL     1       1.899   5.940  17.808  0.00  0.00    +0.000 A 
ATOM     32  C   UNL     1       2.983   6.775  18.120  0.00  0.00    +0.000 A 
ATOM     33  C   UNL     1       4.005   6.254  18.912  0.00  0.00    +0.000 A 
ATOM     34  C   UNL     1       3.958   4.947  19.395  0.00  0.00    +0.000 A 
BRANCH  29  35
ATOM     35  O   UNL     1       2.739   2.821  19.510  0.00  0.00    +0.000 OA
BRANCH  35  37
ATOM     36  C   UNL     1       1.538   2.964  21.580  0.00  0.00    +0.000 C 
ATOM     37  C   UNL     1       2.858   2.606  20.919  0.00  0.00    +0.000 C 
ENDBRANCH  35  37
ENDBRANCH  29  35
ENDBRANCH  28  32
ENDBRANCH  24  28
ENDBRANCH   1  25
TORSDOF 7
ENDMDL
MODEL 2
REMARK VINA RESULT:      -7.7      2.341      5.351
REMARK  Name = 
REMARK  10 active torsions:
REMARK  status: ('A' for Active; 'I' for Inactive)
REMARK    1  A    between atoms: C_1  and  C_2
REMARK    2  A    between atoms: C_2  and  O_3
REMARK    3  A    between atoms: O_3  and  C_4
REMARK    4  A    between atoms: C_7  and  C_8
REMARK    5  A    between atoms: C_8  and  N_9
REMARK    6  A    between atoms: C_10  and  C_12
REMARK    7  A    between atoms: N_14  and  C_15
REMARK    8  A    between atoms: C_18  and  O_19
REMARK    9  A    between atoms: O_19  and  C_20
REMARK   10  A    between atoms: N_33  and  C_34
REMARK                            x       y       z     vdW  Elec       q    Type
REMARK                         _______ _______ _______ _____ _____    ______ ____
ROOT
ATOM      1  C   UNL     1       0.326  10.335  21.595  0.00  0.00    +0.000 A 
ATOM      2  N   UNL     1      -0.666  10.968  22.152  0.00  0.00    +0.000 NA
ATOM      3  N   UNL     1      -1.243  12.000  21.364  0.00  0.00    +0.000 N 
ATOM      4  C   UNL     1      -1.075  12.006  19.903  0.00  0.00    +0.000 A 
ATOM      5  O   UNL     1      -1.728  12.668  19.104  0.00  0.00    +0.000 OA
ATOM      6  C   UNL     1       0.102  11.181  19.483  0.00  0.00    +0.000 A 
ATOM      7  C   UNL     1       1.019  11.022  20.514  0.00  0.00    +0.000 A 
ATOM      8  C   UNL     1       1.754  12.282  20.219  0.00  0.00    +0.000 A 
ATOM      9  C   UNL     1       2.261  13.419  20.896  0.00  0.00    +0.000 A 
ATOM     10  C   UNL     1       2.627  14.575  20.141  0.00  0.00    +0.000 A 
ATOM     11  C   UNL     1       2.556  14.601  18.741  0.00  0.00    +0.000 A 
ATOM     12  C   UNL     1       2.125  13.489  18.037  0.00  0.00    +0.000 A 
ATOM     13  C   UNL     1       1.693  12.414  18.809  0.00  0.00    +0.000 A 
ATOM     14  N   UNL     1       1.007  11.273  18.427  0.00  0.00    +0.000 N 
ATOM     15  C   UNL     1       1.820  10.140  17.943  0.00  0.00    +0.000 C 
ENDROOT
BRANCH   3  16
ATOM     16  C   UNL     1      -2.129  12.830  22.125  0.00  0.00    +0.000 A 
ATOM     17  C   UNL     1      -2.142  14.221  22.031  0.00  0.00    +0.000 A 
ATOM     18  C   UNL     1      -3.062  14.981  22.774  0.00  0.00    +0.000 A 
ATOM     19  C   UNL     1      -3.990  14.370  23.617  0.00  0.00    +0.000 A 
ATOM     20  C   UNL     1      -3.944  12.992  23.783  0.00  0.00    +0.000 A 
ATOM     21  C   UNL     1      -3.021  12.239  23.051  0.00  0.00    +0.000 A 
BRANCH  19  22
ATOM     22  O   UNL     1      -4.869  15.199  24.256  0.00  0.00    +0.000 OA
ATOM     23  C   UNL     1      -6.146  15.314  23.630  0.00  0.00    +0.000 C 
ENDBRANCH  19  22
ENDBRANCH   3  16
BRANCH   1  25
ATOM     24  N   UNL     1       1.135   8.064  20.919  0.00  0.00    +0.000 N 
ATOM     25  C   UNL     1       0.124   8.769  21.568  0.00  0.00    +0.000 C 
ATOM     26  O   UNL     1      -0.748   8.249  22.250  0.00  0.00    +0.000 OA
ATOM     27  H   UNL     1       1.883   8.633  20.535  0.00  0.00    +0.000 HD
BRANCH  24  28
ATOM     28  C   UNL     1       1.458   6.664  21.173  0.00  0.00    +0.000 C 
BRANCH  28  32
ATOM     29  C   UNL     1       3.217   4.599  17.778  0.00  0.00    +0.000 A 
ATOM     30  C   UNL     1       3.364   5.985  17.898  0.00  0.00    +0.000 A 
ATOM     31  C   UNL     1       2.809   6.671  18.993  0.00  0.00    +0.000 A 
ATOM     32  C   UNL     1       2.083   5.978  19.973  0.00  0.00    +0.000 A 
ATOM     33  C   UNL     1       1.943   4.598  19.832  0.00  0.00    +0.000 A 
ATOM     34  C   UNL     1       2.495   3.917  18.748  0.00  0.00    +0.000 A 
BRANCH  29  35
ATOM     35  O   UNL     1       3.795   4.032  16.670  0.00  0.00    +0.000 OA
BRANCH  35  37
ATOM     36  C   UNL     1       5.584   4.856  15.303  0.00  0.00    +0.000 C 
ATOM     37  C   UNL     1       5.220   4.133  16.587  0.00  0.00    +0.000 C 
ENDBRANCH  35  37
ENDBRANCH  29  35
ENDBRANCH  28  32
ENDBRANCH  24  28
ENDBRANCH   1  25
TORSDOF 7
ENDMDL
MODEL 3
REMARK VINA RESULT:      -7.7      0.283      1.167
REMARK  Name = 
REMARK  10 active torsions:
REMARK  status: ('A' for Active; 'I' for Inactive)
REMARK    1  A    between atoms: C_1  and  C_2
REMARK    2  A    between atoms: C_2  and  O_3
REMARK    3  A    between atoms: O_3  and  C_4
REMARK    4  A    between atoms: C_7  and  C_8
REMARK    5  A    between atoms: C_8  and  N_9
REMARK    6  A    between atoms: C_10  and  C_12
REMARK    7  A    between atoms: N_14  and  C_15
REMARK    8  A    between atoms: C_18  and  O_19
REMARK    9  A    between atoms: O_19  and  C_20
REMARK   10  A    between atoms: N_33  and  C_34
REMARK                            x       y       z     vdW  Elec       q    Type
REMARK                         _______ _______ _______ _____ _____    ______ ____
ROOT
ATOM      1  C   UNL     1       0.578  10.627  19.271  0.00  0.00    +0.000 A 
ATOM      2  N   UNL     1       1.166  11.687  18.796  0.00  0.00    +0.000 NA
ATOM      3  N   UNL     1       1.194  12.806  19.671  0.00  0.00    +0.000 N 
ATOM      4  C   UNL     1       1.034  12.624  21.121  0.00  0.00    +0.000 A 
ATOM      5  O   UNL     1       1.301  13.451  21.985  0.00  0.00    +0.000 OA
ATOM      6  C   UNL     1       0.372  11.320  21.440  0.00  0.00    +0.000 A 
ATOM      7  C   UNL     1      -0.361  10.832  20.365  0.00  0.00    +0.000 A 
ATOM      8  C   UNL     1      -1.599  11.583  20.710  0.00  0.00    +0.000 A 
ATOM      9  C   UNL     1      -2.571  12.404  20.088  0.00  0.00    +0.000 A 
ATOM     10  C   UNL     1      -3.436  13.199  20.900  0.00  0.00    +0.000 A 
ATOM     11  C   UNL     1      -3.394  13.150  22.301  0.00  0.00    +0.000 A 
ATOM     12  C   UNL     1      -2.499  12.314  22.949  0.00  0.00    +0.000 A 
ATOM     13  C   UNL     1      -1.613  11.621  22.128  0.00  0.00    +0.000 A 
ATOM     14  N   UNL     1      -0.478  10.903  22.463  0.00  0.00    +0.000 N 
ATOM     15  C   UNL     1      -0.675   9.490  22.841  0.00  0.00    +0.000 C 
ENDROOT
BRANCH   3  16
ATOM     16  C   UNL     1       1.598  14.006  19.000  0.00  0.00    +0.000 A 
ATOM     17  C   UNL     1       2.790  14.118  18.286  0.00  0.00    +0.000 A 
ATOM     18  C   UNL     1       3.115  15.309  17.614  0.00  0.00    +0.000 A 
ATOM     19  C   UNL     1       2.256  16.408  17.637  0.00  0.00    +0.000 A 
ATOM     20  C   UNL     1       1.101  16.344  18.404  0.00  0.00    +0.000 A 
ATOM     21  C   UNL     1       0.785  15.162  19.080  0.00  0.00    +0.000 A 
BRANCH  19  22
ATOM     22  O   UNL     1       2.646  17.499  16.912  0.00  0.00    +0.000 OA
ATOM     23  C   UNL     1       1.581  18.221  16.295  0.00  0.00    +0.000 C 
ENDBRANCH  19  22
ENDBRANCH   3  16
BRANCH   1  25
ATOM     24  N   UNL     1       1.919   8.995  17.927  0.00  0.00    +0.000 N 
ATOM     25  C   UNL     1       1.483   9.335  19.206  0.00  0.00    +0.000 C 
ATOM     26  O   UNL     1       1.911   8.830  20.234  0.00  0.00    +0.000 OA
ATOM     27  H   UNL     1       1.605   9.611  17.183  0.00  0.00    +0.000 HD
BRANCH  24  28
ATOM     28  C   UNL     1       3.113   8.204  17.646  0.00  0.00    +0.000 C 
BRANCH  28  32
ATOM     29  C   UNL     1       2.701   4.106  19.033  0.00  0.00    +0.000 A 
ATOM     30  C   UNL     1       3.799   4.870  19.443  0.00  0.00    +0.000 A 
ATOM     31  C   UNL     1       3.947   6.199  19.012  0.00  0.00    +0.000 A 
ATOM     32  C   UNL     1       3.004   6.776  18.148  0.00  0.00    +0.000 A 
ATOM     33  C   UNL     1       1.919   5.997  17.747  0.00  0.00    +0.000 A 
ATOM     34  C   UNL     1       1.772   4.679  18.176  0.00  0.00    +0.000 A 
BRANCH  29  35
ATOM     35  O   UNL     1       2.657   2.821  19.511  0.00  0.00    +0.000 OA
BRANCH  35  37
ATOM     36  C   UNL     1       1.527   2.770  21.626  0.00  0.00    +0.000 C 
ATOM     37  C   UNL     1       1.436   2.431  20.148  0.00  0.00    +0.000 C 
ENDBRANCH  35  37
ENDBRANCH  29  35
ENDBRANCH  28  32
ENDBRANCH  24  28
ENDBRANCH   1  25
TORSDOF 7
ENDMDL
MODEL 4
REMARK VINA RESULT:      -7.6      3.253      4.648
REMARK  Name = 
REMARK  10 active torsions:
REMARK  status: ('A' for Active; 'I' for Inactive)
REMARK    1  A    between atoms: C_1  and  C_2
REMARK    2  A    between atoms: C_2  and  O_3
REMARK    3  A    between atoms: O_3  and  C_4
REMARK    4  A    between atoms: C_7  and  C_8
REMARK    5  A    between atoms: C_8  and  N_9
REMARK    6  A    between atoms: C_10  and  C_12
REMARK    7  A    between atoms: N_14  and  C_15
REMARK    8  A    between atoms: C_18  and  O_19
REMARK    9  A    between atoms: O_19  and  C_20
REMARK   10  A    between atoms: N_33  and  C_34
REMARK                            x       y       z     vdW  Elec       q    Type
REMARK                         _______ _______ _______ _____ _____    ______ ____
ROOT
ATOM      1  C   UNL     1      -0.762  10.873  20.684  0.00  0.00    +0.000 A 
ATOM      2  N   UNL     1      -1.266  10.459  19.558  0.00  0.00    +0.000 NA
ATOM      3  N   UNL     1      -1.440  11.465  18.568  0.00  0.00    +0.000 N 
ATOM      4  C   UNL     1      -0.668  12.715  18.632  0.00  0.00    +0.000 A 
ATOM      5  O   UNL     1      -0.529  13.523  17.720  0.00  0.00    +0.000 OA
ATOM      6  C   UNL     1      -0.150  12.970  20.013  0.00  0.00    +0.000 A 
ATOM      7  C   UNL     1      -0.887  12.294  20.977  0.00  0.00    +0.000 A 
ATOM      8  C   UNL     1      -1.908  13.366  21.125  0.00  0.00    +0.000 A 
ATOM      9  C   UNL     1      -3.316  13.516  21.173  0.00  0.00    +0.000 A 
ATOM     10  C   UNL     1      -3.886  14.813  20.998  0.00  0.00    +0.000 A 
ATOM     11  C   UNL     1      -3.093  15.958  20.838  0.00  0.00    +0.000 A 
ATOM     12  C   UNL     1      -1.711  15.865  20.848  0.00  0.00    +0.000 A 
ATOM     13  C   UNL     1      -1.192  14.575  20.931  0.00  0.00    +0.000 A 
ATOM     14  N   UNL     1       0.106  14.133  20.738  0.00  0.00    +0.000 N 
ATOM     15  C   UNL     1       1.006  14.188  21.907  0.00  0.00    +0.000 C 
ENDROOT
BRANCH   3  16
ATOM     16  C   UNL     1      -2.242  11.010  17.471  0.00  0.00    +0.000 A 
ATOM     17  C   UNL     1      -3.459  11.594  17.122  0.00  0.00    +0.000 A 
ATOM     18  C   UNL     1      -4.184  11.130  16.011  0.00  0.00    +0.000 A 
ATOM     19  C   UNL     1      -3.707  10.082  15.223  0.00  0.00    +0.000 A 
ATOM     20  C   UNL     1      -2.535   9.437  15.598  0.00  0.00    +0.000 A 
ATOM     21  C   UNL     1      -1.822   9.894  16.711  0.00  0.00    +0.000 A 
BRANCH  19  22
ATOM     22  O   UNL     1      -4.466   9.742  14.140  0.00  0.00    +0.000 OA
ATOM     23  C   UNL     1      -3.812   9.891  12.880  0.00  0.00    +0.000 C 
ENDBRANCH  19  22
ENDBRANCH   3  16
BRANCH   1  25
ATOM     24  N   UNL     1       0.727   8.877  20.420  0.00  0.00    +0.000 N 
ATOM     25  C   UNL     1       0.516  10.059  21.127  0.00  0.00    +0.000 C 
ATOM     26  O   UNL     1       1.335  10.561  21.884  0.00  0.00    +0.000 OA
ATOM     27  H   UNL     1       0.036   8.671  19.704  0.00  0.00    +0.000 HD
BRANCH  24  28
ATOM     28  C   UNL     1       2.024   8.227  20.268  0.00  0.00    +0.000 C 
BRANCH  28  32
ATOM     29  C   UNL     1       1.715   4.118  18.887  0.00  0.00    +0.000 A 
ATOM     30  C   UNL     1       1.433   4.424  20.223  0.00  0.00    +0.000 A 
ATOM     31  C   UNL     1       1.520   5.747  20.688  0.00  0.00    +0.000 A 
ATOM     32  C   UNL     1       1.909   6.781  19.823  0.00  0.00    +0.000 A 
ATOM     33  C   UNL     1       2.190   6.456  18.497  0.00  0.00    +0.000 A 
ATOM     34  C   UNL     1       2.103   5.143  18.035  0.00  0.00    +0.000 A 
BRANCH  29  35
ATOM     35  O   UNL     1       1.602   2.795  18.541  0.00  0.00    +0.000 OA
BRANCH  35  37
ATOM     36  C   UNL     1       3.649   1.548  18.584  0.00  0.00    +0.000 C 
ATOM     37  C   UNL     1       2.643   2.274  17.710  0.00  0.00    +0.000 C 
ENDBRANCH  35  37
ENDBRANCH  29  35
ENDBRANCH  28  32
ENDBRANCH  24  28
ENDBRANCH   1  25
TORSDOF 7
ENDMDL
MODEL 5
REMARK VINA RESULT:      -7.5      2.388      5.366
REMARK  Name = 
REMARK  10 active torsions:
REMARK  status: ('A' for Active; 'I' for Inactive)
REMARK    1  A    between atoms: C_1  and  C_2
REMARK    2  A    between atoms: C_2  and  O_3
REMARK    3  A    between atoms: O_3  and  C_4
REMARK    4  A    between atoms: C_7  and  C_8
REMARK    5  A    between atoms: C_8  and  N_9
REMARK    6  A    between atoms: C_10  and  C_12
REMARK    7  A    between atoms: N_14  and  C_15
REMARK    8  A    between atoms: C_18  and  O_19
REMARK    9  A    between atoms: O_19  and  C_20
REMARK   10  A    between atoms: N_33  and  C_34
REMARK                            x       y       z     vdW  Elec       q    Type
REMARK                         _______ _______ _______ _____ _____    ______ ____
ROOT
ATOM      1  C   UNL     1       0.315  10.360  21.541  0.00  0.00    +0.000 A 
ATOM      2  N   UNL     1      -0.713  10.952  22.077  0.00  0.00    +0.000 NA
ATOM      3  N   UNL     1      -1.291  11.985  21.292  0.00  0.00    +0.000 N 
ATOM      4  C   UNL     1      -1.072  12.030  19.838  0.00  0.00    +0.000 A 
ATOM      5  O   UNL     1      -1.716  12.692  19.032  0.00  0.00    +0.000 OA
ATOM      6  C   UNL     1       0.142  11.248  19.443  0.00  0.00    +0.000 A 
ATOM      7  C   UNL     1       1.027  11.091  20.502  0.00  0.00    +0.000 A 
ATOM      8  C   UNL     1       1.735  12.377  20.261  0.00  0.00    +0.000 A 
ATOM      9  C   UNL     1       2.185  13.512  20.981  0.00  0.00    +0.000 A 
ATOM     10  C   UNL     1       2.544  14.694  20.266  0.00  0.00    +0.000 A 
ATOM     11  C   UNL     1       2.522  14.751  18.865  0.00  0.00    +0.000 A 
ATOM     12  C   UNL     1       2.147  13.644  18.121  0.00  0.00    +0.000 A 
ATOM     13  C   UNL     1       1.720  12.540  18.853  0.00  0.00    +0.000 A 
ATOM     14  N   UNL     1       1.080  11.390  18.421  0.00  0.00    +0.000 N 
ATOM     15  C   UNL     1       1.942  10.292  17.941  0.00  0.00    +0.000 C 
ENDROOT
BRANCH   3  16
ATOM     16  C   UNL     1      -2.227  12.772  22.039  0.00  0.00    +0.000 A 
ATOM     17  C   UNL     1      -3.005  12.255  23.074  0.00  0.00    +0.000 A 
ATOM     18  C   UNL     1      -3.878  13.084  23.798  0.00  0.00    +0.000 A 
ATOM     19  C   UNL     1      -3.986  14.445  23.511  0.00  0.00    +0.000 A 
ATOM     20  C   UNL     1      -3.277  14.965  22.436  0.00  0.00    +0.000 A 
ATOM     21  C   UNL     1      -2.418  14.135  21.710  0.00  0.00    +0.000 A 
BRANCH  19  22
ATOM     22  O   UNL     1      -4.828  15.169  24.307  0.00  0.00    +0.000 OA
ATOM     23  C   UNL     1      -5.941  15.751  23.629  0.00  0.00    +0.000 C 
ENDBRANCH  19  22
ENDBRANCH   3  16
BRANCH   1  25
ATOM     24  N   UNL     1       1.217   8.127  20.852  0.00  0.00    +0.000 N 
ATOM     25  C   UNL     1       0.160   8.790  21.472  0.00  0.00    +0.000 C 
ATOM     26  O   UNL     1      -0.725   8.230  22.105  0.00  0.00    +0.000 OA
ATOM     27  H   UNL     1       1.964   8.726  20.512  0.00  0.00    +0.000 HD
BRANCH  24  28
ATOM     28  C   UNL     1       1.568   6.731  21.089  0.00  0.00    +0.000 C 
BRANCH  28  32
ATOM     29  C   UNL     1       3.676   5.033  17.690  0.00  0.00    +0.000 A 
ATOM     30  C   UNL     1       3.313   4.211  18.761  0.00  0.00    +0.000 A 
ATOM     31  C   UNL     1       2.625   4.738  19.867  0.00  0.00    +0.000 A 
ATOM     32  C   UNL     1       2.305   6.104  19.921  0.00  0.00    +0.000 A 
ATOM     33  C   UNL     1       2.680   6.908  18.845  0.00  0.00    +0.000 A 
ATOM     34  C   UNL     1       3.362   6.384  17.748  0.00  0.00    +0.000 A 
BRANCH  29  35
ATOM     35  O   UNL     1       4.347   4.415  16.664  0.00  0.00    +0.000 OA
BRANCH  35  37
ATOM     36  C   UNL     1       5.988   4.363  14.917  0.00  0.00    +0.000 C 
ATOM     37  C   UNL     1       5.294   5.222  15.960  0.00  0.00    +0.000 C 
ENDBRANCH  35  37
ENDBRANCH  29  35
ENDBRANCH  28  32
ENDBRANCH  24  28
ENDBRANCH   1  25
TORSDOF 7
ENDMDL
MODEL 6
REMARK VINA RESULT:      -7.5      2.369      5.394
REMARK  Name = 
REMARK  10 active torsions:
REMARK  status: ('A' for Active; 'I' for Inactive)
REMARK    1  A    between atoms: C_1  and  C_2
REMARK    2  A    between atoms: C_2  and  O_3
REMARK    3  A    between atoms: O_3  and  C_4
REMARK    4  A    between atoms: C_7  and  C_8
REMARK    5  A    between atoms: C_8  and  N_9
REMARK    6  A    between atoms: C_10  and  C_12
REMARK    7  A    between atoms: N_14  and  C_15
REMARK    8  A    between atoms: C_18  and  O_19
REMARK    9  A    between atoms: O_19  and  C_20
REMARK   10  A    between atoms: N_33  and  C_34
REMARK                            x       y       z     vdW  Elec       q    Type
REMARK                         _______ _______ _______ _____ _____    ______ ____
ROOT
ATOM      1  C   UNL     1       0.251  10.518  21.618  0.00  0.00    +0.000 A 
ATOM      2  N   UNL     1      -0.769  11.106  22.172  0.00  0.00    +0.000 NA
ATOM      3  N   UNL     1      -1.329  12.177  21.424  0.00  0.00    +0.000 N 
ATOM      4  C   UNL     1      -1.104  12.271  19.974  0.00  0.00    +0.000 A 
ATOM      5  O   UNL     1      -1.735  12.972  19.190  0.00  0.00    +0.000 OA
ATOM      6  C   UNL     1       0.098  11.485  19.553  0.00  0.00    +0.000 A 
ATOM      7  C   UNL     1       0.977  11.275  20.608  0.00  0.00    +0.000 A 
ATOM      8  C   UNL     1       1.707  12.557  20.416  0.00  0.00    +0.000 A 
ATOM      9  C   UNL     1       2.172  13.658  21.178  0.00  0.00    +0.000 A 
ATOM     10  C   UNL     1       2.552  14.859  20.507  0.00  0.00    +0.000 A 
ATOM     11  C   UNL     1       2.535  14.968  19.109  0.00  0.00    +0.000 A 
ATOM     12  C   UNL     1       2.146  13.895  18.324  0.00  0.00    +0.000 A 
ATOM     13  C   UNL     1       1.699  12.771  19.015  0.00  0.00    +0.000 A 
ATOM     14  N   UNL     1       1.041  11.648  18.540  0.00  0.00    +0.000 N 
ATOM     15  C   UNL     1       1.888  10.555  18.022  0.00  0.00    +0.000 C 
ENDROOT
BRANCH   3  16
ATOM     16  C   UNL     1      -2.254  12.951  22.197  0.00  0.00    +0.000 A 
ATOM     17  C   UNL     1      -1.868  14.016  23.008  0.00  0.00    +0.000 A 
ATOM     18  C   UNL     1      -2.825  14.765  23.713  0.00  0.00    +0.000 A 
ATOM     19  C   UNL     1      -4.186  14.471  23.618  0.00  0.00    +0.000 A 
ATOM     20  C   UNL     1      -4.585  13.367  22.877  0.00  0.00    +0.000 A 
ATOM     21  C   UNL     1      -3.629  12.617  22.185  0.00  0.00    +0.000 A 
BRANCH  19  22
ATOM     22  O   UNL     1      -5.034  15.290  24.307  0.00  0.00    +0.000 OA
ATOM     23  C   UNL     1      -4.455  16.517  24.749  0.00  0.00    +0.000 C 
ENDBRANCH  19  22
ENDBRANCH   3  16
BRANCH   1  25
ATOM     24  N   UNL     1       1.036   8.319  20.713  0.00  0.00    +0.000 N 
ATOM     25  C   UNL     1       0.071   8.954  21.492  0.00  0.00    +0.000 C 
ATOM     26  O   UNL     1      -0.735   8.368  22.201  0.00  0.00    +0.000 OA
ATOM     27  H   UNL     1       1.741   8.930  20.313  0.00  0.00    +0.000 HD
BRANCH  24  28
ATOM     28  C   UNL     1       1.398   6.911  20.836  0.00  0.00    +0.000 C 
BRANCH  28  32
ATOM     29  C   UNL     1       4.406   5.597  17.988  0.00  0.00    +0.000 A 
ATOM     30  C   UNL     1       3.633   6.728  17.707  0.00  0.00    +0.000 A 
ATOM     31  C   UNL     1       2.660   7.175  18.618  0.00  0.00    +0.000 A 
ATOM     32  C   UNL     1       2.436   6.480  19.817  0.00  0.00    +0.000 A 
ATOM     33  C   UNL     1       3.213   5.352  20.076  0.00  0.00    +0.000 A 
ATOM     34  C   UNL     1       4.179   4.910  19.173  0.00  0.00    +0.000 A 
BRANCH  29  35
ATOM     35  O   UNL     1       5.323   5.249  17.029  0.00  0.00    +0.000 OA
BRANCH  35  37
ATOM     36  C   UNL     1       7.343   6.301  17.778  0.00  0.00    +0.000 C 
ATOM     37  C   UNL     1       6.286   6.251  16.690  0.00  0.00    +0.000 C 
ENDBRANCH  35  37
ENDBRANCH  29  35
ENDBRANCH  28  32
ENDBRANCH  24  28
ENDBRANCH   1  25
TORSDOF 7
ENDMDL
MODEL 7
REMARK VINA RESULT:      -7.5      2.733      4.644
REMARK  Name = 
REMARK  10 active torsions:
REMARK  status: ('A' for Active; 'I' for Inactive)
REMARK    1  A    between atoms: C_1  and  C_2
REMARK    2  A    between atoms: C_2  and  O_3
REMARK    3  A    between atoms: O_3  and  C_4
REMARK    4  A    between atoms: C_7  and  C_8
REMARK    5  A    between atoms: C_8  and  N_9
REMARK    6  A    between atoms: C_10  and  C_12
REMARK    7  A    between atoms: N_14  and  C_15
REMARK    8  A    between atoms: C_18  and  O_19
REMARK    9  A    between atoms: O_19  and  C_20
REMARK   10  A    between atoms: N_33  and  C_34
REMARK                            x       y       z     vdW  Elec       q    Type
REMARK                         _______ _______ _______ _____ _____    ______ ____
ROOT
ATOM      1  C   UNL     1       0.689  11.030  19.598  0.00  0.00    +0.000 A 
ATOM      2  N   UNL     1      -0.478  10.964  19.025  0.00  0.00    +0.000 NA
ATOM      3  N   UNL     1      -1.164  12.203  18.906  0.00  0.00    +0.000 N 
ATOM      4  C   UNL     1      -0.425  13.473  18.958  0.00  0.00    +0.000 A 
ATOM      5  O   UNL     1      -0.848  14.568  18.607  0.00  0.00    +0.000 OA
ATOM      6  C   UNL     1       0.907  13.306  19.621  0.00  0.00    +0.000 A 
ATOM      7  C   UNL     1       0.940  12.188  20.445  0.00  0.00    +0.000 A 
ATOM      8  C   UNL     1       0.398  12.897  21.636  0.00  0.00    +0.000 A 
ATOM      9  C   UNL     1      -0.592  12.726  22.635  0.00  0.00    +0.000 A 
ATOM     10  C   UNL     1      -0.995  13.851  23.417  0.00  0.00    +0.000 A 
ATOM     11  C   UNL     1      -0.400  15.111  23.268  0.00  0.00    +0.000 A 
ATOM     12  C   UNL     1       0.614  15.307  22.345  0.00  0.00    +0.000 A 
ATOM     13  C   UNL     1       0.919  14.212  21.541  0.00  0.00    +0.000 A 
ATOM     14  N   UNL     1       1.700  14.148  20.399  0.00  0.00    +0.000 N 
ATOM     15  C   UNL     1       3.150  13.955  20.598  0.00  0.00    +0.000 C 
ENDROOT
BRANCH   3  16
ATOM     16  C   UNL     1      -2.535  12.027  18.528  0.00  0.00    +0.000 A 
ATOM     17  C   UNL     1      -3.604  12.354  19.360  0.00  0.00    +0.000 A 
ATOM     18  C   UNL     1      -4.930  12.197  18.920  0.00  0.00    +0.000 A 
ATOM     19  C   UNL     1      -5.214  11.717  17.642  0.00  0.00    +0.000 A 
ATOM     20  C   UNL     1      -4.166  11.314  16.825  0.00  0.00    +0.000 A 
ATOM     21  C   UNL     1      -2.849  11.461  17.270  0.00  0.00    +0.000 A 
BRANCH  19  22
ATOM     22  O   UNL     1      -6.535  11.648  17.299  0.00  0.00    +0.000 OA
ATOM     23  C   UNL     1      -7.446  11.902  18.368  0.00  0.00    +0.000 C 
ENDBRANCH  19  22
ENDBRANCH   3  16
BRANCH   1  25
ATOM     24  N   UNL     1       1.835   8.999  18.685  0.00  0.00    +0.000 N 
ATOM     25  C   UNL     1       1.843  10.392  18.729  0.00  0.00    +0.000 C 
ATOM     26  O   UNL     1       2.532  11.097  18.006  0.00  0.00    +0.000 OA
ATOM     27  H   UNL     1       1.094   8.553  19.218  0.00  0.00    +0.000 HD
BRANCH  24  28
ATOM     28  C   UNL     1       2.426   8.204  17.615  0.00  0.00    +0.000 C 
BRANCH  28  32
ATOM     29  C   UNL     1       4.362   4.637  19.167  0.00  0.00    +0.000 A 
ATOM     30  C   UNL     1       4.827   5.217  17.983  0.00  0.00    +0.000 A 
ATOM     31  C   UNL     1       4.220   6.376  17.467  0.00  0.00    +0.000 A 
ATOM     32  C   UNL     1       3.125   6.958  18.125  0.00  0.00    +0.000 A 
ATOM     33  C   UNL     1       2.674   6.361  19.301  0.00  0.00    +0.000 A 
ATOM     34  C   UNL     1       3.277   5.213  19.813  0.00  0.00    +0.000 A 
BRANCH  29  35
ATOM     35  O   UNL     1       5.026   3.508  19.578  0.00  0.00    +0.000 OA
BRANCH  35  37
ATOM     36  C   UNL     1       3.629   1.791  18.657  0.00  0.00    +0.000 C 
ATOM     37  C   UNL     1       4.203   2.391  19.928  0.00  0.00    +0.000 C 
ENDBRANCH  35  37
ENDBRANCH  29  35
ENDBRANCH  28  32
ENDBRANCH  24  28
ENDBRANCH   1  25
TORSDOF 7
ENDMDL
MODEL 8
REMARK VINA RESULT:      -7.4      2.904      8.552
REMARK  Name = 
REMARK  10 active torsions:
REMARK  status: ('A' for Active; 'I' for Inactive)
REMARK    1  A    between atoms: C_1  and  C_2
REMARK    2  A    between atoms: C_2  and  O_3
REMARK    3  A    between atoms: O_3  and  C_4
REMARK    4  A    between atoms: C_7  and  C_8
REMARK    5  A    between atoms: C_8  and  N_9
REMARK    6  A    between atoms: C_10  and  C_12
REMARK    7  A    between atoms: N_14  and  C_15
REMARK    8  A    between atoms: C_18  and  O_19
REMARK    9  A    between atoms: O_19  and  C_20
REMARK   10  A    between atoms: N_33  and  C_34
REMARK                            x       y       z     vdW  Elec       q    Type
REMARK                         _______ _______ _______ _____ _____    ______ ____
ROOT
ATOM      1  C   UNL     1      -0.942  10.996  18.243  0.00  0.00    +0.000 A 
ATOM      2  N   UNL     1      -0.243   9.898  18.237  0.00  0.00    +0.000 NA
ATOM      3  N   UNL     1       0.750   9.809  19.250  0.00  0.00    +0.000 N 
ATOM      4  C   UNL     1       0.652  10.630  20.465  0.00  0.00    +0.000 A 
ATOM      5  O   UNL     1       1.278  10.456  21.505  0.00  0.00    +0.000 OA
ATOM      6  C   UNL     1      -0.234  11.817  20.255  0.00  0.00    +0.000 A 
ATOM      7  C   UNL     1      -0.351  12.148  18.911  0.00  0.00    +0.000 A 
ATOM      8  C   UNL     1       0.863  13.008  18.890  0.00  0.00    +0.000 A 
ATOM      9  C   UNL     1       2.028  13.211  18.109  0.00  0.00    +0.000 A 
ATOM     10  C   UNL     1       3.118  13.950  18.661  0.00  0.00    +0.000 A 
ATOM     11  C   UNL     1       3.052  14.532  19.935  0.00  0.00    +0.000 A 
ATOM     12  C   UNL     1       1.908  14.409  20.707  0.00  0.00    +0.000 A 
ATOM     13  C   UNL     1       0.901  13.609  20.174  0.00  0.00    +0.000 A 
ATOM     14  N   UNL     1      -0.241  13.110  20.777  0.00  0.00    +0.000 N 
ATOM     15  C   UNL     1      -1.428  13.988  20.778  0.00  0.00    +0.000 C 
ENDROOT
BRANCH   3  16
ATOM     16  C   UNL     1       1.656   8.722  19.023  0.00  0.00    +0.000 A 
ATOM     17  C   UNL     1       1.819   7.664  19.917  0.00  0.00    +0.000 A 
ATOM     18  C   UNL     1       2.693   6.605  19.623  0.00  0.00    +0.000 A 
ATOM     19  C   UNL     1       3.417   6.575  18.430  0.00  0.00    +0.000 A 
ATOM     20  C   UNL     1       3.327   7.654  17.561  0.00  0.00    +0.000 A 
ATOM     21  C   UNL     1       2.464   8.712  17.862  0.00  0.00    +0.000 A 
BRANCH  19  22
ATOM     22  O   UNL     1       4.201   5.476  18.223  0.00  0.00    +0.000 OA
ATOM     23  C   UNL     1       4.199   4.528  19.290  0.00  0.00    +0.000 C 
ENDBRANCH  19  22
ENDBRANCH   3  16
BRANCH   1  25
ATOM     24  N   UNL     1      -3.265  11.861  18.597  0.00  0.00    +0.000 N 
ATOM     25  C   UNL     1      -2.500  10.739  18.288  0.00  0.00    +0.000 C 
ATOM     26  O   UNL     1      -2.962   9.684  17.878  0.00  0.00    +0.000 OA
ATOM     27  H   UNL     1      -2.739  12.714  18.760  0.00  0.00    +0.000 HD
BRANCH  24  28
ATOM     28  C   UNL     1      -4.666  12.031  18.225  0.00  0.00    +0.000 C 
BRANCH  28  32
ATOM     29  C   UNL     1      -7.087  13.311  21.599  0.00  0.00    +0.000 A 
ATOM     30  C   UNL     1      -7.491  12.212  20.833  0.00  0.00    +0.000 A 
ATOM     31  C   UNL     1      -6.718  11.777  19.742  0.00  0.00    +0.000 A 
ATOM     32  C   UNL     1      -5.538  12.451  19.393  0.00  0.00    +0.000 A 
ATOM     33  C   UNL     1      -5.155  13.547  20.165  0.00  0.00    +0.000 A 
ATOM     34  C   UNL     1      -5.921  13.977  21.248  0.00  0.00    +0.000 A 
BRANCH  29  35
ATOM     35  O   UNL     1      -7.916  13.651  22.638  0.00  0.00    +0.000 OA
BRANCH  35  37
ATOM     36  C   UNL     1      -6.119  12.802  23.978  0.00  0.00    +0.000 C 
ATOM     37  C   UNL     1      -7.615  13.052  23.901  0.00  0.00    +0.000 C 
ENDBRANCH  35  37
ENDBRANCH  29  35
ENDBRANCH  28  32
ENDBRANCH  24  28
ENDBRANCH   1  25
TORSDOF 7
ENDMDL
MODEL 9
REMARK VINA RESULT:      -7.4      1.568      2.249
REMARK  Name = 
REMARK  10 active torsions:
REMARK  status: ('A' for Active; 'I' for Inactive)
REMARK    1  A    between atoms: C_1  and  C_2
REMARK    2  A    between atoms: C_2  and  O_3
REMARK    3  A    between atoms: O_3  and  C_4
REMARK    4  A    between atoms: C_7  and  C_8
REMARK    5  A    between atoms: C_8  and  N_9
REMARK    6  A    between atoms: C_10  and  C_12
REMARK    7  A    between atoms: N_14  and  C_15
REMARK    8  A    between atoms: C_18  and  O_19
REMARK    9  A    between atoms: O_19  and  C_20
REMARK   10  A    between atoms: N_33  and  C_34
REMARK                            x       y       z     vdW  Elec       q    Type
REMARK                         _______ _______ _______ _____ _____    ______ ____
ROOT
ATOM      1  C   UNL     1       0.694  10.791  18.620  0.00  0.00    +0.000 A 
ATOM      2  N   UNL     1       1.069  11.977  18.236  0.00  0.00    +0.000 NA
ATOM      3  N   UNL     1       1.269  12.916  19.284  0.00  0.00    +0.000 N 
ATOM      4  C   UNL     1       1.518  12.458  20.659  0.00  0.00    +0.000 A 
ATOM      5  O   UNL     1       1.962  13.139  21.576  0.00  0.00    +0.000 OA
ATOM      6  C   UNL     1       1.044  11.053  20.863  0.00  0.00    +0.000 A 
ATOM      7  C   UNL     1       0.076  10.691  19.935  0.00  0.00    +0.000 A 
ATOM      8  C   UNL     1      -1.063  11.227  20.729  0.00  0.00    +0.000 A 
ATOM      9  C   UNL     1      -2.213  12.036  20.555  0.00  0.00    +0.000 A 
ATOM     10  C   UNL     1      -2.869  12.571  21.704  0.00  0.00    +0.000 A 
ATOM     11  C   UNL     1      -2.446  12.275  23.008  0.00  0.00    +0.000 A 
ATOM     12  C   UNL     1      -1.363  11.438  23.223  0.00  0.00    +0.000 A 
ATOM     13  C   UNL     1      -0.695  11.007  22.080  0.00  0.00    +0.000 A 
ATOM     14  N   UNL     1       0.528  10.368  21.963  0.00  0.00    +0.000 N 
ATOM     15  C   UNL     1       0.522   8.897  22.082  0.00  0.00    +0.000 C 
ENDROOT
BRANCH   3  16
ATOM     16  C   UNL     1       1.406  14.255  18.791  0.00  0.00    +0.000 A 
ATOM     17  C   UNL     1       0.369  15.186  18.811  0.00  0.00    +0.000 A 
ATOM     18  C   UNL     1       0.575  16.498  18.350  0.00  0.00    +0.000 A 
ATOM     19  C   UNL     1       1.818  16.907  17.867  0.00  0.00    +0.000 A 
ATOM     20  C   UNL     1       2.842  15.975  17.767  0.00  0.00    +0.000 A 
ATOM     21  C   UNL     1       2.631  14.668  18.217  0.00  0.00    +0.000 A 
BRANCH  19  22
ATOM     22  O   UNL     1       1.921  18.216  17.488  0.00  0.00    +0.000 OA
ATOM     23  C   UNL     1       0.982  18.629  16.496  0.00  0.00    +0.000 C 
ENDBRANCH  19  22
ENDBRANCH   3  16
BRANCH   1  25
ATOM     24  N   UNL     1       1.225   8.352  18.422  0.00  0.00    +0.000 N 
ATOM     25  C   UNL     1       1.620   9.639  18.065  0.00  0.00    +0.000 C 
ATOM     26  O   UNL     1       2.476   9.887  17.227  0.00  0.00    +0.000 OA
ATOM     27  H   UNL     1       0.391   8.299  18.999  0.00  0.00    +0.000 HD
BRANCH  24  28
ATOM     28  C   UNL     1       1.567   7.147  17.674  0.00  0.00    +0.000 C 
BRANCH  28  32
ATOM     29  C   UNL     1       5.300   5.366  19.007  0.00  0.00    +0.000 A 
ATOM     30  C   UNL     1       5.295   6.212  17.893  0.00  0.00    +0.000 A 
ATOM     31  C   UNL     1       4.099   6.804  17.450  0.00  0.00    +0.000 A 
ATOM     32  C   UNL     1       2.888   6.541  18.109  0.00  0.00    +0.000 A 
ATOM     33  C   UNL     1       2.914   5.691  19.213  0.00  0.00    +0.000 A 
ATOM     34  C   UNL     1       4.100   5.105  19.654  0.00  0.00    +0.000 A 
BRANCH  29  35
ATOM     35  O   UNL     1       6.520   4.840  19.351  0.00  0.00    +0.000 OA
BRANCH  35  37
ATOM     36  C   UNL     1       8.148   6.536  18.878  0.00  0.00    +0.000 C 
ATOM     37  C   UNL     1       7.610   5.171  18.486  0.00  0.00    +0.000 C 
ENDBRANCH  35  37
ENDBRANCH  29  35
ENDBRANCH  28  32
ENDBRANCH  24  28
ENDBRANCH   1  25
TORSDOF 7
ENDMDL
