MODEL 1
REMARK VINA RESULT:      -7.5      0.000      0.000
REMARK  Name = 
REMARK  6 active torsions:
REMARK  status: ('A' for Active; 'I' for Inactive)
REMARK    1  A    between atoms: C_2  and  C_3
REMARK    2  A    between atoms: C_2  and  C_16
REMARK    3  A    between atoms: C_3  and  S_4
REMARK    4  A    between atoms: S_4  and  C_5
REMARK    5  A    between atoms: C_8  and  C_9
REMARK    6  A    between atoms: N_12  and  C_13
REMARK                            x       y       z     vdW  Elec       q    Type
REMARK                         _______ _______ _______ _____ _____    ______ ____
ROOT
ATOM      1  S   UNL     1       6.555   5.306  19.115  0.00  0.00    +0.000 S 
ENDROOT
BRANCH   1   2
ATOM      2  C   UNL     1       5.209   4.218  19.091  0.00  0.00    +0.000 A 
ATOM      3  N   UNL     1       5.192   3.064  19.727  0.00  0.00    +0.000 NA
ATOM      4  N   UNL     1       3.979   2.466  19.492  0.00  0.00    +0.000 NA
ATOM      5  C   UNL     1       3.277   3.256  18.703  0.00  0.00    +0.000 A 
ATOM      6  N   UNL     1       4.006   4.405  18.449  0.00  0.00    +0.000 N 
BRANCH   5   7
ATOM      7  C   UNL     1       1.892   2.887  18.167  0.00  0.00    +0.000 C 
ATOM      8  C   UNL     1       1.023   1.940  18.972  0.00  0.00    +0.000 C 
ATOM      9  C   UNL     1       0.676   3.387  18.918  0.00  0.00    +0.000 C 
ENDBRANCH   5   7
BRANCH   6  10
ATOM     10  C   UNL     1       3.499   5.514  17.654  0.00  0.00    +0.000 C 
ATOM     11  C   UNL     1       2.515   6.567  18.126  0.00  0.00    +0.000 C 
ATOM     12  C   UNL     1       3.937   6.948  17.883  0.00  0.00    +0.000 C 
ENDBRANCH   6  10
ENDBRANCH   1   2
BRANCH   1  13
ATOM     13  C   UNL     1       7.474   4.761  17.645  0.00  0.00    +0.000 C 
BRANCH  13  15
ATOM     14  O   UNL     1       7.271   6.849  16.423  0.00  0.00    +0.000 OA
ATOM     15  C   UNL     1       7.172   5.625  16.431  0.00  0.00    +0.000 C 
BRANCH  15  16
ATOM     16  C   UNL     1       6.780   4.944  15.163  0.00  0.00    +0.000 A 
ATOM     17  C   UNL     1       5.663   4.093  15.187  0.00  0.00    +0.000 A 
ATOM     18  C   UNL     1       5.235   3.450  14.022  0.00  0.00    +0.000 A 
ATOM     19  C   UNL     1       5.919   3.666  12.833  0.00  0.00    +0.000 A 
ATOM     20  F   UNL     1       5.506   3.057  11.716  0.00  0.00    +0.000 F 
ATOM     21  C   UNL     1       7.020   4.516  12.802  0.00  0.00    +0.000 A 
ATOM     22  F   UNL     1       7.667   4.734  11.650  0.00  0.00    +0.000 F 
ATOM     23  C   UNL     1       7.461   5.158  13.959  0.00  0.00    +0.000 A 
ENDBRANCH  15  16
ENDBRANCH  13  15
ENDBRANCH   1  13
TORSDOF 6
ENDMDL
MODEL 2
REMARK VINA RESULT:      -7.3      3.774      6.574
REMARK  Name = 
REMARK  6 active torsions:
REMARK  status: ('A' for Active; 'I' for Inactive)
REMARK    1  A    between atoms: C_2  and  C_3
REMARK    2  A    between atoms: C_2  and  C_16
REMARK    3  A    between atoms: C_3  and  S_4
REMARK    4  A    between atoms: S_4  and  C_5
REMARK    5  A    between atoms: C_8  and  C_9
REMARK    6  A    between atoms: N_12  and  C_13
REMARK                            x       y       z     vdW  Elec       q    Type
REMARK                         _______ _______ _______ _____ _____    ______ ____
ROOT
ATOM      1  S   UNL     1       3.974   2.860  17.268  0.00  0.00    +0.000 S 
ENDROOT
BRANCH   1   2
ATOM      2  C   UNL     1       5.220   3.964  17.745  0.00  0.00    +0.000 A 
ATOM      3  N   UNL     1       5.646   4.091  18.986  0.00  0.00    +0.000 NA
ATOM      4  N   UNL     1       6.630   5.048  19.002  0.00  0.00    +0.000 NA
ATOM      5  C   UNL     1       6.779   5.505  17.774  0.00  0.00    +0.000 A 
ATOM      6  N   UNL     1       5.926   4.817  16.929  0.00  0.00    +0.000 N 
BRANCH   5   7
ATOM      7  C   UNL     1       7.744   6.638  17.414  0.00  0.00    +0.000 C 
ATOM      8  C   UNL     1       7.261   8.071  17.518  0.00  0.00    +0.000 C 
ATOM      9  C   UNL     1       8.226   7.548  18.524  0.00  0.00    +0.000 C 
ENDBRANCH   5   7
BRANCH   6  10
ATOM     10  C   UNL     1       5.879   5.036  15.490  0.00  0.00    +0.000 C 
ATOM     11  C   UNL     1       7.054   4.936  14.537  0.00  0.00    +0.000 C 
ATOM     12  C   UNL     1       5.980   3.901  14.489  0.00  0.00    +0.000 C 
ENDBRANCH   6  10
ENDBRANCH   1   2
BRANCH   1  13
ATOM     13  C   UNL     1       3.170   2.526  18.862  0.00  0.00    +0.000 C 
BRANCH  13  15
ATOM     14  O   UNL     1       0.751   2.710  18.953  0.00  0.00    +0.000 OA
ATOM     15  C   UNL     1       1.847   3.262  18.999  0.00  0.00    +0.000 C 
BRANCH  15  16
ATOM     16  C   UNL     1       1.882   4.732  19.251  0.00  0.00    +0.000 A 
ATOM     17  C   UNL     1       1.622   5.186  20.554  0.00  0.00    +0.000 A 
ATOM     18  C   UNL     1       1.667   6.551  20.853  0.00  0.00    +0.000 A 
ATOM     19  C   UNL     1       1.979   7.459  19.850  0.00  0.00    +0.000 A 
ATOM     20  F   UNL     1       2.030   8.765  20.136  0.00  0.00    +0.000 F 
ATOM     21  C   UNL     1       2.248   7.013  18.559  0.00  0.00    +0.000 A 
ATOM     22  F   UNL     1       2.565   7.891  17.598  0.00  0.00    +0.000 F 
ATOM     23  C   UNL     1       2.200   5.654  18.247  0.00  0.00    +0.000 A 
ENDBRANCH  15  16
ENDBRANCH  13  15
ENDBRANCH   1  13
TORSDOF 6
ENDMDL
MODEL 3
REMARK VINA RESULT:      -7.2      3.525      5.096
REMARK  Name = 
REMARK  6 active torsions:
REMARK  status: ('A' for Active; 'I' for Inactive)
REMARK    1  A    between atoms: C_2  and  C_3
REMARK    2  A    between atoms: C_2  and  C_16
REMARK    3  A    between atoms: C_3  and  S_4
REMARK    4  A    between atoms: S_4  and  C_5
REMARK    5  A    between atoms: C_8  and  C_9
REMARK    6  A    between atoms: N_12  and  C_13
REMARK                            x       y       z     vdW  Elec       q    Type
REMARK                         _______ _______ _______ _____ _____    ______ ____
ROOT
ATOM      1  S   UNL     1       3.781   3.754  18.536  0.00  0.00    +0.000 S 
ENDROOT
BRANCH   1   2
ATOM      2  C   UNL     1       3.076   5.244  19.067  0.00  0.00    +0.000 A 
ATOM      3  N   UNL     1       3.402   6.422  18.573  0.00  0.00    +0.000 NA
ATOM      4  N   UNL     1       2.655   7.376  19.219  0.00  0.00    +0.000 NA
ATOM      5  C   UNL     1       1.897   6.769  20.111  0.00  0.00    +0.000 A 
ATOM      6  N   UNL     1       2.103   5.403  20.026  0.00  0.00    +0.000 N 
BRANCH   5   7
ATOM      7  C   UNL     1       0.975   7.520  21.076  0.00  0.00    +0.000 C 
ATOM      8  C   UNL     1       1.538   8.681  21.871  0.00  0.00    +0.000 C 
ATOM      9  C   UNL     1       0.603   8.950  20.744  0.00  0.00    +0.000 C 
ENDBRANCH   5   7
BRANCH   6  10
ATOM     10  C   UNL     1       1.378   4.433  20.835  0.00  0.00    +0.000 C 
ATOM     11  C   UNL     1       1.251   2.951  20.543  0.00  0.00    +0.000 C 
ATOM     12  C   UNL     1       2.081   3.403  21.698  0.00  0.00    +0.000 C 
ENDBRANCH   6  10
ENDBRANCH   1   2
BRANCH   1  13
ATOM     13  C   UNL     1       4.008   4.084  16.764  0.00  0.00    +0.000 C 
BRANCH  13  15
ATOM     14  O   UNL     1       5.970   3.418  15.500  0.00  0.00    +0.000 OA
ATOM     15  C   UNL     1       5.477   4.124  16.375  0.00  0.00    +0.000 C 
BRANCH  15  16
ATOM     16  C   UNL     1       6.360   5.111  17.061  0.00  0.00    +0.000 A 
ATOM     17  C   UNL     1       6.351   6.438  16.601  0.00  0.00    +0.000 A 
ATOM     18  C   UNL     1       7.140   7.411  17.222  0.00  0.00    +0.000 A 
ATOM     19  C   UNL     1       7.929   7.056  18.309  0.00  0.00    +0.000 A 
ATOM     20  F   UNL     1       8.678   7.988  18.910  0.00  0.00    +0.000 F 
ATOM     21  C   UNL     1       7.932   5.745  18.775  0.00  0.00    +0.000 A 
ATOM     22  F   UNL     1       8.682   5.411  19.834  0.00  0.00    +0.000 F 
ATOM     23  C   UNL     1       7.156   4.764  18.159  0.00  0.00    +0.000 A 
ENDBRANCH  15  16
ENDBRANCH  13  15
ENDBRANCH   1  13
TORSDOF 6
ENDMDL
MODEL 4
REMARK VINA RESULT:      -7.0      3.929      6.521
REMARK  Name = 
REMARK  6 active torsions:
REMARK  status: ('A' for Active; 'I' for Inactive)
REMARK    1  A    between atoms: C_2  and  C_3
REMARK    2  A    between atoms: C_2  and  C_16
REMARK    3  A    between atoms: C_3  and  S_4
REMARK    4  A    between atoms: S_4  and  C_5
REMARK    5  A    between atoms: C_8  and  C_9
REMARK    6  A    between atoms: N_12  and  C_13
REMARK                            x       y       z     vdW  Elec       q    Type
REMARK                         _______ _______ _______ _____ _____    ______ ____
ROOT
ATOM      1  S   UNL     1       3.677   2.340  18.073  0.00  0.00    +0.000 S 
ENDROOT
BRANCH   1   2
ATOM      2  C   UNL     1       4.921   3.518  18.319  0.00  0.00    +0.000 A 
ATOM      3  N   UNL     1       5.341   3.897  19.510  0.00  0.00    +0.000 NA
ATOM      4  N   UNL     1       6.327   4.837  19.334  0.00  0.00    +0.000 NA
ATOM      5  C   UNL     1       6.483   5.030  18.039  0.00  0.00    +0.000 A 
ATOM      6  N   UNL     1       5.633   4.184  17.349  0.00  0.00    +0.000 N 
BRANCH   5   7
ATOM      7  C   UNL     1       7.452   6.064  17.458  0.00  0.00    +0.000 C 
ATOM      8  C   UNL     1       7.000   7.508  17.344  0.00  0.00    +0.000 C 
ATOM      9  C   UNL     1       7.999   7.132  18.383  0.00  0.00    +0.000 C 
ENDBRANCH   5   7
BRANCH   6  10
ATOM     10  C   UNL     1       5.594   4.101  15.895  0.00  0.00    +0.000 C 
ATOM     11  C   UNL     1       5.519   5.277  14.941  0.00  0.00    +0.000 C 
ATOM     12  C   UNL     1       6.777   4.478  15.025  0.00  0.00    +0.000 C 
ENDBRANCH   6  10
ENDBRANCH   1   2
BRANCH   1  13
ATOM     13  C   UNL     1       2.771   2.450  19.644  0.00  0.00    +0.000 C 
BRANCH  13  15
ATOM     14  O   UNL     1       0.412   3.024  19.661  0.00  0.00    +0.000 OA
ATOM     15  C   UNL     1       1.579   3.389  19.549  0.00  0.00    +0.000 C 
BRANCH  15  16
ATOM     16  C   UNL     1       1.843   4.845  19.358  0.00  0.00    +0.000 A 
ATOM     17  C   UNL     1       2.174   5.293  18.069  0.00  0.00    +0.000 A 
ATOM     18  C   UNL     1       2.407   6.650  17.826  0.00  0.00    +0.000 A 
ATOM     19  C   UNL     1       2.299   7.558  18.872  0.00  0.00    +0.000 A 
ATOM     20  F   UNL     1       2.514   8.858  18.640  0.00  0.00    +0.000 F 
ATOM     21  C   UNL     1       1.960   7.120  20.149  0.00  0.00    +0.000 A 
ATOM     22  F   UNL     1       1.841   8.001  21.151  0.00  0.00    +0.000 F 
ATOM     23  C   UNL     1       1.733   5.768  20.404  0.00  0.00    +0.000 A 
ENDBRANCH  15  16
ENDBRANCH  13  15
ENDBRANCH   1  13
TORSDOF 6
ENDMDL
MODEL 5
REMARK VINA RESULT:      -6.9      0.954      1.038
REMARK  Name = 
REMARK  6 active torsions:
REMARK  status: ('A' for Active; 'I' for Inactive)
REMARK    1  A    between atoms: C_2  and  C_3
REMARK    2  A    between atoms: C_2  and  C_16
REMARK    3  A    between atoms: C_3  and  S_4
REMARK    4  A    between atoms: S_4  and  C_5
REMARK    5  A    between atoms: C_8  and  C_9
REMARK    6  A    between atoms: N_12  and  C_13
REMARK                            x       y       z     vdW  Elec       q    Type
REMARK                         _______ _______ _______ _____ _____    ______ ____
ROOT
ATOM      1  S   UNL     1       6.629   5.623  19.295  0.00  0.00    +0.000 S 
ENDROOT
BRANCH   1   2
ATOM      2  C   UNL     1       5.204   4.641  19.233  0.00  0.00    +0.000 A 
ATOM      3  N   UNL     1       5.196   3.350  19.501  0.00  0.00    +0.000 NA
ATOM      4  N   UNL     1       3.909   2.894  19.355  0.00  0.00    +0.000 NA
ATOM      5  C   UNL     1       3.153   3.909  18.983  0.00  0.00    +0.000 A 
ATOM      6  N   UNL     1       3.928   5.054  18.927  0.00  0.00    +0.000 N 
BRANCH   5   7
ATOM      7  C   UNL     1       1.664   3.767  18.655  0.00  0.00    +0.000 C 
ATOM      8  C   UNL     1       1.016   2.401  18.772  0.00  0.00    +0.000 C 
ATOM      9  C   UNL     1       0.708   3.447  19.786  0.00  0.00    +0.000 C 
ENDBRANCH   5   7
BRANCH   6  10
ATOM     10  C   UNL     1       3.390   6.368  18.604  0.00  0.00    +0.000 C 
ATOM     11  C   UNL     1       1.971   6.662  18.161  0.00  0.00    +0.000 C 
ATOM     12  C   UNL     1       2.423   7.099  19.514  0.00  0.00    +0.000 C 
ENDBRANCH   6  10
ENDBRANCH   1   2
BRANCH   1  13
ATOM     13  C   UNL     1       6.859   6.020  17.537  0.00  0.00    +0.000 C 
BRANCH  13  15
ATOM     14  O   UNL     1       8.335   4.130  17.164  0.00  0.00    +0.000 OA
ATOM     15  C   UNL     1       7.425   4.845  16.756  0.00  0.00    +0.000 C 
BRANCH  15  16
ATOM     16  C   UNL     1       6.806   4.511  15.440  0.00  0.00    +0.000 A 
ATOM     17  C   UNL     1       5.482   4.044  15.431  0.00  0.00    +0.000 A 
ATOM     18  C   UNL     1       4.844   3.739  14.225  0.00  0.00    +0.000 A 
ATOM     19  C   UNL     1       5.529   3.911  13.029  0.00  0.00    +0.000 A 
ATOM     20  F   UNL     1       4.917   3.628  11.873  0.00  0.00    +0.000 F 
ATOM     21  C   UNL     1       6.838   4.384  13.033  0.00  0.00    +0.000 A 
ATOM     22  F   UNL     1       7.489   4.564  11.875  0.00  0.00    +0.000 F 
ATOM     23  C   UNL     1       7.487   4.684  14.229  0.00  0.00    +0.000 A 
ENDBRANCH  15  16
ENDBRANCH  13  15
ENDBRANCH   1  13
TORSDOF 6
ENDMDL
MODEL 6
REMARK VINA RESULT:      -6.8      4.613      5.987
REMARK  Name = 
REMARK  6 active torsions:
REMARK  status: ('A' for Active; 'I' for Inactive)
REMARK    1  A    between atoms: C_2  and  C_3
REMARK    2  A    between atoms: C_2  and  C_16
REMARK    3  A    between atoms: C_3  and  S_4
REMARK    4  A    between atoms: S_4  and  C_5
REMARK    5  A    between atoms: C_8  and  C_9
REMARK    6  A    between atoms: N_12  and  C_13
REMARK                            x       y       z     vdW  Elec       q    Type
REMARK                         _______ _______ _______ _____ _____    ______ ____
ROOT
ATOM      1  S   UNL     1       7.755   5.379  18.100  0.00  0.00    +0.000 S 
ENDROOT
BRANCH   1   2
ATOM      2  C   UNL     1       6.067   5.285  18.472  0.00  0.00    +0.000 A 
ATOM      3  N   UNL     1       5.590   5.286  19.701  0.00  0.00    +0.000 NA
ATOM      4  N   UNL     1       4.221   5.200  19.626  0.00  0.00    +0.000 NA
ATOM      5  C   UNL     1       3.883   5.131  18.353  0.00  0.00    +0.000 A 
ATOM      6  N   UNL     1       5.025   5.218  17.576  0.00  0.00    +0.000 N 
BRANCH   5   7
ATOM      7  C   UNL     1       2.437   4.955  17.880  0.00  0.00    +0.000 C 
ATOM      8  C   UNL     1       1.941   3.561  17.546  0.00  0.00    +0.000 C 
ATOM      9  C   UNL     1       1.469   4.229  18.790  0.00  0.00    +0.000 C 
ENDBRANCH   5   7
BRANCH   6  10
ATOM     10  C   UNL     1       5.001   5.231  16.120  0.00  0.00    +0.000 C 
ATOM     11  C   UNL     1       6.216   5.233  15.213  0.00  0.00    +0.000 C 
ATOM     12  C   UNL     1       5.358   4.014  15.289  0.00  0.00    +0.000 C 
ENDBRANCH   6  10
ENDBRANCH   1   2
BRANCH   1  13
ATOM     13  C   UNL     1       8.188   6.984  18.832  0.00  0.00    +0.000 C 
BRANCH  13  15
ATOM     14  O   UNL     1       7.299   8.024  16.827  0.00  0.00    +0.000 OA
ATOM     15  C   UNL     1       7.930   8.136  17.875  0.00  0.00    +0.000 C 
BRANCH  15  16
ATOM     16  C   UNL     1       8.430   9.491  18.251  0.00  0.00    +0.000 A 
ATOM     17  C   UNL     1       9.240   9.602  19.393  0.00  0.00    +0.000 A 
ATOM     18  C   UNL     1       9.757  10.842  19.779  0.00  0.00    +0.000 A 
ATOM     19  C   UNL     1       9.470  11.968  19.016  0.00  0.00    +0.000 A 
ATOM     20  F   UNL     1       9.971  13.154  19.379  0.00  0.00    +0.000 F 
ATOM     21  C   UNL     1       8.677  11.859  17.878  0.00  0.00    +0.000 A 
ATOM     22  F   UNL     1       8.416  12.944  17.136  0.00  0.00    +0.000 F 
ATOM     23  C   UNL     1       8.149  10.629  17.487  0.00  0.00    +0.000 A 
ENDBRANCH  15  16
ENDBRANCH  13  15
ENDBRANCH   1  13
TORSDOF 6
ENDMDL
MODEL 7
REMARK VINA RESULT:      -6.7      5.593      8.405
REMARK  Name = 
REMARK  6 active torsions:
REMARK  status: ('A' for Active; 'I' for Inactive)
REMARK    1  A    between atoms: C_2  and  C_3
REMARK    2  A    between atoms: C_2  and  C_16
REMARK    3  A    between atoms: C_3  and  S_4
REMARK    4  A    between atoms: S_4  and  C_5
REMARK    5  A    between atoms: C_8  and  C_9
REMARK    6  A    between atoms: N_12  and  C_13
REMARK                            x       y       z     vdW  Elec       q    Type
REMARK                         _______ _______ _______ _____ _____    ______ ____
ROOT
ATOM      1  S   UNL     1       2.176   5.691  18.820  0.00  0.00    +0.000 S 
ENDROOT
BRANCH   1   2
ATOM      2  C   UNL     1       3.547   5.632  17.764  0.00  0.00    +0.000 A 
ATOM      3  N   UNL     1       4.168   6.704  17.315  0.00  0.00    +0.000 NA
ATOM      4  N   UNL     1       5.201   6.291  16.510  0.00  0.00    +0.000 NA
ATOM      5  C   UNL     1       5.184   4.973  16.464  0.00  0.00    +0.000 A 
ATOM      6  N   UNL     1       4.168   4.505  17.279  0.00  0.00    +0.000 N 
BRANCH   5   7
ATOM      7  C   UNL     1       6.150   4.154  15.604  0.00  0.00    +0.000 C 
ATOM      8  C   UNL     1       5.857   3.994  14.124  0.00  0.00    +0.000 C 
ATOM      9  C   UNL     1       6.972   4.880  14.559  0.00  0.00    +0.000 C 
ENDBRANCH   5   7
BRANCH   6  10
ATOM     10  C   UNL     1       3.911   3.089  17.501  0.00  0.00    +0.000 C 
ATOM     11  C   UNL     1       3.389   2.473  18.784  0.00  0.00    +0.000 C 
ATOM     12  C   UNL     1       2.508   2.519  17.580  0.00  0.00    +0.000 C 
ENDBRANCH   6  10
ENDBRANCH   1   2
BRANCH   1  13
ATOM     13  C   UNL     1       2.531   7.196  19.775  0.00  0.00    +0.000 C 
BRANCH  13  15
ATOM     14  O   UNL     1       1.537   8.681  18.132  0.00  0.00    +0.000 OA
ATOM     15  C   UNL     1       1.692   8.376  19.311  0.00  0.00    +0.000 C 
BRANCH  15  16
ATOM     16  C   UNL     1       0.978   9.181  20.345  0.00  0.00    +0.000 A 
ATOM     17  C   UNL     1       0.309  10.345  19.930  0.00  0.00    +0.000 A 
ATOM     18  C   UNL     1      -0.398  11.123  20.851  0.00  0.00    +0.000 A 
ATOM     19  C   UNL     1      -0.443  10.732  22.183  0.00  0.00    +0.000 A 
ATOM     20  F   UNL     1      -1.126  11.472  23.064  0.00  0.00    +0.000 F 
ATOM     21  C   UNL     1       0.210   9.574  22.596  0.00  0.00    +0.000 A 
ATOM     22  F   UNL     1       0.150   9.191  23.878  0.00  0.00    +0.000 F 
ATOM     23  C   UNL     1       0.924   8.792  21.688  0.00  0.00    +0.000 A 
ENDBRANCH  15  16
ENDBRANCH  13  15
ENDBRANCH   1  13
TORSDOF 6
ENDMDL
MODEL 8
REMARK VINA RESULT:      -6.7      5.540      8.348
REMARK  Name = 
REMARK  6 active torsions:
REMARK  status: ('A' for Active; 'I' for Inactive)
REMARK    1  A    between atoms: C_2  and  C_3
REMARK    2  A    between atoms: C_2  and  C_16
REMARK    3  A    between atoms: C_3  and  S_4
REMARK    4  A    between atoms: S_4  and  C_5
REMARK    5  A    between atoms: C_8  and  C_9
REMARK    6  A    between atoms: N_12  and  C_13
REMARK                            x       y       z     vdW  Elec       q    Type
REMARK                         _______ _______ _______ _____ _____    ______ ____
ROOT
ATOM      1  S   UNL     1       2.195   5.710  18.653  0.00  0.00    +0.000 S 
ENDROOT
BRANCH   1   2
ATOM      2  C   UNL     1       3.600   5.644  17.643  0.00  0.00    +0.000 A 
ATOM      3  N   UNL     1       4.240   6.713  17.212  0.00  0.00    +0.000 NA
ATOM      4  N   UNL     1       5.297   6.295  16.443  0.00  0.00    +0.000 NA
ATOM      5  C   UNL     1       5.279   4.977  16.400  0.00  0.00    +0.000 A 
ATOM      6  N   UNL     1       4.235   4.514  17.182  0.00  0.00    +0.000 N 
BRANCH   5   7
ATOM      7  C   UNL     1       6.270   4.153  15.574  0.00  0.00    +0.000 C 
ATOM      8  C   UNL     1       5.962   3.886  14.114  0.00  0.00    +0.000 C 
ATOM      9  C   UNL     1       7.038   4.850  14.471  0.00  0.00    +0.000 C 
ENDBRANCH   5   7
BRANCH   6  10
ATOM     10  C   UNL     1       3.966   3.099  17.399  0.00  0.00    +0.000 C 
ATOM     11  C   UNL     1       3.468   2.478  18.690  0.00  0.00    +0.000 C 
ATOM     12  C   UNL     1       2.559   2.544  17.509  0.00  0.00    +0.000 C 
ENDBRANCH   6  10
ENDBRANCH   1   2
BRANCH   1  13
ATOM     13  C   UNL     1       2.564   7.165  19.675  0.00  0.00    +0.000 C 
BRANCH  13  15
ATOM     14  O   UNL     1       1.621   8.775  18.122  0.00  0.00    +0.000 OA
ATOM     15  C   UNL     1       1.726   8.369  19.276  0.00  0.00    +0.000 C 
BRANCH  15  16
ATOM     16  C   UNL     1       0.947   9.068  20.340  0.00  0.00    +0.000 A 
ATOM     17  C   UNL     1       1.148   8.676  21.673  0.00  0.00    +0.000 A 
ATOM     18  C   UNL     1       0.464   9.313  22.712  0.00  0.00    +0.000 A 
ATOM     19  C   UNL     1      -0.414  10.349  22.416  0.00  0.00    +0.000 A 
ATOM     20  F   UNL     1      -1.063  10.965  23.410  0.00  0.00    +0.000 F 
ATOM     21  C   UNL     1      -0.608  10.748  21.097  0.00  0.00    +0.000 A 
ATOM     22  F   UNL     1      -1.443  11.758  20.818  0.00  0.00    +0.000 F 
ATOM     23  C   UNL     1       0.063  10.115  20.052  0.00  0.00    +0.000 A 
ENDBRANCH  15  16
ENDBRANCH  13  15
ENDBRANCH   1  13
TORSDOF 6
ENDMDL
MODEL 9
REMARK VINA RESULT:      -6.7      3.739      6.289
REMARK  Name = 
REMARK  6 active torsions:
REMARK  status: ('A' for Active; 'I' for Inactive)
REMARK    1  A    between atoms: C_2  and  C_3
REMARK    2  A    between atoms: C_2  and  C_16
REMARK    3  A    between atoms: C_3  and  S_4
REMARK    4  A    between atoms: S_4  and  C_5
REMARK    5  A    between atoms: C_8  and  C_9
REMARK    6  A    between atoms: N_12  and  C_13
REMARK                            x       y       z     vdW  Elec       q    Type
REMARK                         _______ _______ _______ _____ _____    ______ ____
ROOT
ATOM      1  S   UNL     1       3.591   2.783  20.657  0.00  0.00    +0.000 S 
ENDROOT
BRANCH   1   2
ATOM      2  C   UNL     1       4.565   3.469  19.401  0.00  0.00    +0.000 A 
ATOM      3  N   UNL     1       5.718   4.069  19.617  0.00  0.00    +0.000 NA
ATOM      4  N   UNL     1       6.213   4.489  18.407  0.00  0.00    +0.000 NA
ATOM      5  C   UNL     1       5.346   4.155  17.471  0.00  0.00    +0.000 A 
ATOM      6  N   UNL     1       4.295   3.468  18.052  0.00  0.00    +0.000 N 
BRANCH   5   7
ATOM      7  C   UNL     1       5.525   4.523  15.995  0.00  0.00    +0.000 C 
ATOM      8  C   UNL     1       5.290   5.958  15.565  0.00  0.00    +0.000 C 
ATOM      9  C   UNL     1       6.680   5.426  15.617  0.00  0.00    +0.000 C 
ENDBRANCH   5   7
BRANCH   6  10
ATOM     10  C   UNL     1       3.189   2.905  17.289  0.00  0.00    +0.000 C 
ATOM     11  C   UNL     1       1.975   2.207  17.869  0.00  0.00    +0.000 C 
ATOM     12  C   UNL     1       1.819   3.552  17.242  0.00  0.00    +0.000 C 
ENDBRANCH   6  10
ENDBRANCH   1   2
BRANCH   1  13
ATOM     13  C   UNL     1       2.883   4.277  21.410  0.00  0.00    +0.000 C 
BRANCH  13  15
ATOM     14  O   UNL     1       0.649   4.171  20.466  0.00  0.00    +0.000 OA
ATOM     15  C   UNL     1       1.691   4.801  20.625  0.00  0.00    +0.000 C 
BRANCH  15  16
ATOM     16  C   UNL     1       1.772   6.177  20.055  0.00  0.00    +0.000 A 
ATOM     17  C   UNL     1       1.235   7.236  20.805  0.00  0.00    +0.000 A 
ATOM     18  C   UNL     1       1.306   8.550  20.332  0.00  0.00    +0.000 A 
ATOM     19  C   UNL     1       1.922   8.803  19.113  0.00  0.00    +0.000 A 
ATOM     20  F   UNL     1       1.999  10.060  18.662  0.00  0.00    +0.000 F 
ATOM     21  C   UNL     1       2.465   7.758  18.371  0.00  0.00    +0.000 A 
ATOM     22  F   UNL     1       3.073   8.008  17.204  0.00  0.00    +0.000 F 
ATOM     23  C   UNL     1       2.394   6.442  18.829  0.00  0.00    +0.000 A 
ENDBRANCH  15  16
ENDBRANCH  13  15
ENDBRANCH   1  13
TORSDOF 6
ENDMDL
