MODEL 1
REMARK VINA RESULT:      -9.0      0.000      0.000
REMARK  Name = 
REMARK  10 active torsions:
REMARK  status: ('A' for Active; 'I' for Inactive)
REMARK    1  A    between atoms: C_1  and  O_2
REMARK    2  A    between atoms: O_2  and  C_3
REMARK    3  A    between atoms: C_3  and  C_5
REMARK    4  A    between atoms: C_6  and  O_7
REMARK    5  A    between atoms: O_7  and  C_8
REMARK    6  A    between atoms: C_8  and  C_9
REMARK    7  A    between atoms: C_12  and  C_13
REMARK    8  A    between atoms: C_18  and  C_19
REMARK    9  A    between atoms: C_27  and  C_28
REMARK   10  A    between atoms: C_30  and  C_31
REMARK                            x       y       z     vdW  Elec       q    Type
REMARK                         _______ _______ _______ _____ _____    ______ ____
ROOT
ATOM      1  C   UNL     1       1.959   7.806  19.517  0.00  0.00    +0.000 A 
ATOM      2  C   UNL     1       2.396   8.289  18.288  0.00  0.00    +0.000 A 
ATOM      3  C   UNL     1       3.260   7.542  17.498  0.00  0.00    +0.000 A 
ATOM      4  C   UNL     1       3.762   6.311  17.936  0.00  0.00    +0.000 A 
ATOM      5  C   UNL     1       3.383   5.891  19.220  0.00  0.00    +0.000 A 
ATOM      6  C   UNL     1       2.455   6.591  19.979  0.00  0.00    +0.000 A 
ENDROOT
BRANCH   4   7
ATOM      7  C   UNL     1       4.643   5.520  17.047  0.00  0.00    +0.000 A 
ATOM      8  C   UNL     1       5.642   6.212  16.322  0.00  0.00    +0.000 A 
ATOM      9  C   UNL     1       6.444   5.581  15.381  0.00  0.00    +0.000 A 
ATOM     10  C   UNL     1       6.304   4.220  15.167  0.00  0.00    +0.000 A 
ATOM     11  C   UNL     1       5.370   3.491  15.906  0.00  0.00    +0.000 A 
ATOM     12  C   UNL     1       4.526   4.123  16.837  0.00  0.00    +0.000 A 
BRANCH  12  13
ATOM     13  C   UNL     1       3.552   3.295  17.543  0.00  0.00    +0.000 A 
ATOM     14  N   UNL     1       3.850   2.533  18.655  0.00  0.00    +0.000 NA
ATOM     15  N   UNL     1       2.812   1.744  18.884  0.00  0.00    +0.000 NA
ATOM     16  N   UNL     1       1.894   2.158  18.012  0.00  0.00    +0.000 N 
ATOM     17  N   UNL     1       2.274   3.122  17.155  0.00  0.00    +0.000 NA
ATOM     18  H   UNL     1       0.959   1.758  17.990  0.00  0.00    +0.000 HD
ENDBRANCH  12  13
ENDBRANCH   4   7
BRANCH   1  19
ATOM     19  C   UNL     1       0.957   8.571  20.322  0.00  0.00    +0.000 C 
BRANCH  19  20
ATOM     20  O   UNL     1       1.000   9.940  19.919  0.00  0.00    +0.000 OA
BRANCH  20  22
ATOM     21  C   UNL     1      -0.860  11.396  20.202  0.00  0.00    +0.000 A 
ATOM     22  C   UNL     1      -0.153  10.475  19.406  0.00  0.00    +0.000 A 
ATOM     23  C   UNL     1      -0.672  10.116  18.158  0.00  0.00    +0.000 A 
ATOM     24  C   UNL     1      -1.865  10.675  17.726  0.00  0.00    +0.000 A 
ATOM     25  C   UNL     1      -2.445  10.320  16.391  0.00  0.00    +0.000 C 
ATOM     26  N   UNL     1      -2.559  11.551  18.478  0.00  0.00    +0.000 NA
ATOM     27  C   UNL     1      -2.069  11.897  19.700  0.00  0.00    +0.000 A 
ATOM     28  C   UNL     1      -2.939  12.850  20.471  0.00  0.00    +0.000 C 
BRANCH  21  29
ATOM     29  C   UNL     1      -0.389  11.796  21.545  0.00  0.00    +0.000 C 
ATOM     30  O   UNL     1       0.620  12.508  21.722  0.00  0.00    +0.000 OA
BRANCH  29  32
ATOM     31  C   UNL     1      -0.534  10.098  23.137  0.00  0.00    +0.000 C 
ATOM     32  O   UNL     1      -1.118  11.254  22.529  0.00  0.00    +0.000 OA
ENDBRANCH  29  32
ENDBRANCH  21  29
ENDBRANCH  20  22
ENDBRANCH  19  20
ENDBRANCH   1  19
TORSDOF 7
ENDMDL
MODEL 2
REMARK VINA RESULT:      -9.0      2.078      2.846
REMARK  Name = 
REMARK  10 active torsions:
REMARK  status: ('A' for Active; 'I' for Inactive)
REMARK    1  A    between atoms: C_1  and  O_2
REMARK    2  A    between atoms: O_2  and  C_3
REMARK    3  A    between atoms: C_3  and  C_5
REMARK    4  A    between atoms: C_6  and  O_7
REMARK    5  A    between atoms: O_7  and  C_8
REMARK    6  A    between atoms: C_8  and  C_9
REMARK    7  A    between atoms: C_12  and  C_13
REMARK    8  A    between atoms: C_18  and  C_19
REMARK    9  A    between atoms: C_27  and  C_28
REMARK   10  A    between atoms: C_30  and  C_31
REMARK                            x       y       z     vdW  Elec       q    Type
REMARK                         _______ _______ _______ _____ _____    ______ ____
ROOT
ATOM      1  C   UNL     1       1.997   8.655  18.931  0.00  0.00    +0.000 A 
ATOM      2  C   UNL     1       2.444   8.085  17.745  0.00  0.00    +0.000 A 
ATOM      3  C   UNL     1       2.664   6.716  17.654  0.00  0.00    +0.000 A 
ATOM      4  C   UNL     1       2.501   5.879  18.765  0.00  0.00    +0.000 A 
ATOM      5  C   UNL     1       2.143   6.494  19.975  0.00  0.00    +0.000 A 
ATOM      6  C   UNL     1       1.839   7.846  20.052  0.00  0.00    +0.000 A 
ENDROOT
BRANCH   4   7
ATOM      7  C   UNL     1       2.698   4.419  18.619  0.00  0.00    +0.000 A 
ATOM      8  C   UNL     1       1.546   3.602  18.542  0.00  0.00    +0.000 A 
ATOM      9  C   UNL     1       1.623   2.216  18.516  0.00  0.00    +0.000 A 
ATOM     10  C   UNL     1       2.865   1.601  18.518  0.00  0.00    +0.000 A 
ATOM     11  C   UNL     1       4.026   2.375  18.533  0.00  0.00    +0.000 A 
ATOM     12  C   UNL     1       3.963   3.779  18.596  0.00  0.00    +0.000 A 
BRANCH  12  13
ATOM     13  C   UNL     1       5.224   4.515  18.644  0.00  0.00    +0.000 A 
ATOM     14  N   UNL     1       5.982   4.818  17.531  0.00  0.00    +0.000 NA
ATOM     15  N   UNL     1       7.151   5.270  17.959  0.00  0.00    +0.000 NA
ATOM     16  N   UNL     1       6.998   5.359  19.279  0.00  0.00    +0.000 N 
ATOM     17  N   UNL     1       5.827   4.920  19.777  0.00  0.00    +0.000 NA
ATOM     18  H   UNL     1       7.730   5.731  19.878  0.00  0.00    +0.000 HD
ENDBRANCH  12  13
ENDBRANCH   4   7
BRANCH   1  19
ATOM     19  C   UNL     1       1.672  10.114  18.998  0.00  0.00    +0.000 C 
BRANCH  19  20
ATOM     20  O   UNL     1       0.633  10.304  19.957  0.00  0.00    +0.000 OA
BRANCH  20  22
ATOM     21  C   UNL     1      -1.270  11.663  20.395  0.00  0.00    +0.000 A 
ATOM     22  C   UNL     1      -0.539  10.855  19.506  0.00  0.00    +0.000 A 
ATOM     23  C   UNL     1      -1.051  10.615  18.226  0.00  0.00    +0.000 A 
ATOM     24  C   UNL     1      -2.263  11.180  17.857  0.00  0.00    +0.000 A 
ATOM     25  C   UNL     1      -2.838  10.952  16.493  0.00  0.00    +0.000 C 
ATOM     26  N   UNL     1      -2.981  11.949  18.699  0.00  0.00    +0.000 NA
ATOM     27  C   UNL     1      -2.497  12.177  19.951  0.00  0.00    +0.000 A 
ATOM     28  C   UNL     1      -3.392  13.014  20.820  0.00  0.00    +0.000 C 
BRANCH  21  29
ATOM     29  C   UNL     1      -0.807  11.932  21.773  0.00  0.00    +0.000 C 
ATOM     30  O   UNL     1       0.079  12.770  22.036  0.00  0.00    +0.000 OA
BRANCH  29  32
ATOM     31  C   UNL     1      -0.550  10.085  23.174  0.00  0.00    +0.000 C 
ATOM     32  O   UNL     1      -1.388  11.133  22.678  0.00  0.00    +0.000 OA
ENDBRANCH  29  32
ENDBRANCH  21  29
ENDBRANCH  20  22
ENDBRANCH  19  20
ENDBRANCH   1  19
TORSDOF 7
ENDMDL
MODEL 3
REMARK VINA RESULT:      -8.9      2.938      9.042
REMARK  Name = 
REMARK  10 active torsions:
REMARK  status: ('A' for Active; 'I' for Inactive)
REMARK    1  A    between atoms: C_1  and  O_2
REMARK    2  A    between atoms: O_2  and  C_3
REMARK    3  A    between atoms: C_3  and  C_5
REMARK    4  A    between atoms: C_6  and  O_7
REMARK    5  A    between atoms: O_7  and  C_8
REMARK    6  A    between atoms: C_8  and  C_9
REMARK    7  A    between atoms: C_12  and  C_13
REMARK    8  A    between atoms: C_18  and  C_19
REMARK    9  A    between atoms: C_27  and  C_28
REMARK   10  A    between atoms: C_30  and  C_31
REMARK                            x       y       z     vdW  Elec       q    Type
REMARK                         _______ _______ _______ _____ _____    ______ ____
ROOT
ATOM      1  C   UNL     1       2.294   8.688  18.379  0.00  0.00    +0.000 A 
ATOM      2  C   UNL     1       1.713   8.204  19.545  0.00  0.00    +0.000 A 
ATOM      3  C   UNL     1       0.825   8.986  20.273  0.00  0.00    +0.000 A 
ATOM      4  C   UNL     1       0.532  10.300  19.889  0.00  0.00    +0.000 A 
ATOM      5  C   UNL     1       1.207  10.797  18.764  0.00  0.00    +0.000 A 
ATOM      6  C   UNL     1       2.029   9.996  17.985  0.00  0.00    +0.000 A 
ENDROOT
BRANCH   4   7
ATOM      7  C   UNL     1      -0.455  11.088  20.662  0.00  0.00    +0.000 A 
ATOM      8  C   UNL     1      -0.226  11.256  22.048  0.00  0.00    +0.000 A 
ATOM      9  C   UNL     1      -1.146  11.881  22.879  0.00  0.00    +0.000 A 
ATOM     10  C   UNL     1      -2.310  12.401  22.339  0.00  0.00    +0.000 A 
ATOM     11  C   UNL     1      -2.545  12.307  20.966  0.00  0.00    +0.000 A 
ATOM     12  C   UNL     1      -1.639  11.646  20.117  0.00  0.00    +0.000 A 
BRANCH  12  13
ATOM     13  C   UNL     1      -1.975  11.561  18.698  0.00  0.00    +0.000 A 
ATOM     14  N   UNL     1      -2.734  10.549  18.146  0.00  0.00    +0.000 NA
ATOM     15  N   UNL     1      -2.640  10.657  16.830  0.00  0.00    +0.000 NA
ATOM     16  N   UNL     1      -1.966  11.791  16.647  0.00  0.00    +0.000 N 
ATOM     17  N   UNL     1      -1.530  12.414  17.757  0.00  0.00    +0.000 NA
ATOM     18  H   UNL     1      -1.784  12.161  15.718  0.00  0.00    +0.000 HD
ENDBRANCH  12  13
ENDBRANCH   4   7
BRANCH   1  19
ATOM     19  C   UNL     1       3.177   7.810  17.549  0.00  0.00    +0.000 C 
BRANCH  19  20
ATOM     20  O   UNL     1       2.834   6.449  17.805  0.00  0.00    +0.000 OA
BRANCH  20  22
ATOM     21  C   UNL     1       3.490   4.346  18.704  0.00  0.00    +0.000 A 
ATOM     22  C   UNL     1       3.844   5.620  18.222  0.00  0.00    +0.000 A 
ATOM     23  C   UNL     1       5.190   6.000  18.227  0.00  0.00    +0.000 A 
ATOM     24  C   UNL     1       6.149   5.116  18.701  0.00  0.00    +0.000 A 
ATOM     25  C   UNL     1       7.600   5.486  18.713  0.00  0.00    +0.000 C 
ATOM     26  N   UNL     1       5.827   3.897  19.173  0.00  0.00    +0.000 NA
ATOM     27  C   UNL     1       4.518   3.523  19.185  0.00  0.00    +0.000 A 
ATOM     28  C   UNL     1       4.266   2.160  19.766  0.00  0.00    +0.000 C 
BRANCH  21  29
ATOM     29  C   UNL     1       2.085   3.890  18.759  0.00  0.00    +0.000 C 
ATOM     30  O   UNL     1       1.545   3.255  17.831  0.00  0.00    +0.000 OA
BRANCH  29  32
ATOM     31  C   UNL     1       0.994   3.238  20.714  0.00  0.00    +0.000 C 
ATOM     32  O   UNL     1       1.455   4.296  19.869  0.00  0.00    +0.000 OA
ENDBRANCH  29  32
ENDBRANCH  21  29
ENDBRANCH  20  22
ENDBRANCH  19  20
ENDBRANCH   1  19
TORSDOF 7
ENDMDL
MODEL 4
REMARK VINA RESULT:      -8.9      0.738      1.567
REMARK  Name = 
REMARK  10 active torsions:
REMARK  status: ('A' for Active; 'I' for Inactive)
REMARK    1  A    between atoms: C_1  and  O_2
REMARK    2  A    between atoms: O_2  and  C_3
REMARK    3  A    between atoms: C_3  and  C_5
REMARK    4  A    between atoms: C_6  and  O_7
REMARK    5  A    between atoms: O_7  and  C_8
REMARK    6  A    between atoms: C_8  and  C_9
REMARK    7  A    between atoms: C_12  and  C_13
REMARK    8  A    between atoms: C_18  and  C_19
REMARK    9  A    between atoms: C_27  and  C_28
REMARK   10  A    between atoms: C_30  and  C_31
REMARK                            x       y       z     vdW  Elec       q    Type
REMARK                         _______ _______ _______ _____ _____    ______ ____
ROOT
ATOM      1  C   UNL     1       1.808   8.064  19.695  0.00  0.00    +0.000 A 
ATOM      2  C   UNL     1       2.281   6.844  20.164  0.00  0.00    +0.000 A 
ATOM      3  C   UNL     1       3.145   6.074  19.395  0.00  0.00    +0.000 A 
ATOM      4  C   UNL     1       3.520   6.473  18.106  0.00  0.00    +0.000 A 
ATOM      5  C   UNL     1       2.952   7.660  17.619  0.00  0.00    +0.000 A 
ATOM      6  C   UNL     1       2.156   8.475  18.412  0.00  0.00    +0.000 A 
ENDROOT
BRANCH   4   7
ATOM      7  C   UNL     1       4.480   5.651  17.334  0.00  0.00    +0.000 A 
ATOM      8  C   UNL     1       5.606   6.302  16.778  0.00  0.00    +0.000 A 
ATOM      9  C   UNL     1       6.504   5.645  15.947  0.00  0.00    +0.000 A 
ATOM     10  C   UNL     1       6.328   4.297  15.682  0.00  0.00    +0.000 A 
ATOM     11  C   UNL     1       5.262   3.606  16.261  0.00  0.00    +0.000 A 
ATOM     12  C   UNL     1       4.325   4.266  17.076  0.00  0.00    +0.000 A 
BRANCH  12  13
ATOM     13  C   UNL     1       3.218   3.479  17.614  0.00  0.00    +0.000 A 
ATOM     14  N   UNL     1       1.913   3.585  17.179  0.00  0.00    +0.000 NA
ATOM     15  N   UNL     1       1.155   2.914  18.031  0.00  0.00    +0.000 NA
ATOM     16  N   UNL     1       2.029   2.321  18.842  0.00  0.00    +0.000 N 
ATOM     17  N   UNL     1       3.327   2.614  18.640  0.00  0.00    +0.000 NA
ATOM     18  H   UNL     1       1.731   1.688  19.580  0.00  0.00    +0.000 HD
ENDBRANCH  12  13
ENDBRANCH   4   7
BRANCH   1  19
ATOM     19  C   UNL     1       0.953   8.932  20.563  0.00  0.00    +0.000 C 
BRANCH  19  20
ATOM     20  O   UNL     1       0.951  10.253  20.023  0.00  0.00    +0.000 OA
BRANCH  20  22
ATOM     21  C   UNL     1      -0.853  11.719  20.529  0.00  0.00    +0.000 A 
ATOM     22  C   UNL     1      -0.265  10.778  19.665  0.00  0.00    +0.000 A 
ATOM     23  C   UNL     1      -0.954  10.387  18.512  0.00  0.00    +0.000 A 
ATOM     24  C   UNL     1      -2.197  10.938  18.239  0.00  0.00    +0.000 A 
ATOM     25  C   UNL     1      -2.960  10.550  17.010  0.00  0.00    +0.000 C 
ATOM     26  N   UNL     1      -2.779  11.834  19.059  0.00  0.00    +0.000 NA
ATOM     27  C   UNL     1      -2.122  12.210  20.191  0.00  0.00    +0.000 A 
ATOM     28  C   UNL     1      -2.875  13.184  21.052  0.00  0.00    +0.000 C 
BRANCH  21  29
ATOM     29  C   UNL     1      -0.197  12.153  21.781  0.00  0.00    +0.000 C 
ATOM     30  O   UNL     1      -0.514  11.703  22.900  0.00  0.00    +0.000 OA
BRANCH  29  32
ATOM     31  C   UNL     1       0.342  14.398  22.108  0.00  0.00    +0.000 C 
ATOM     32  O   UNL     1       0.707  13.120  21.580  0.00  0.00    +0.000 OA
ENDBRANCH  29  32
ENDBRANCH  21  29
ENDBRANCH  20  22
ENDBRANCH  19  20
ENDBRANCH   1  19
TORSDOF 7
ENDMDL
MODEL 5
REMARK VINA RESULT:      -8.8      2.072      3.458
REMARK  Name = 
REMARK  10 active torsions:
REMARK  status: ('A' for Active; 'I' for Inactive)
REMARK    1  A    between atoms: C_1  and  O_2
REMARK    2  A    between atoms: O_2  and  C_3
REMARK    3  A    between atoms: C_3  and  C_5
REMARK    4  A    between atoms: C_6  and  O_7
REMARK    5  A    between atoms: O_7  and  C_8
REMARK    6  A    between atoms: C_8  and  C_9
REMARK    7  A    between atoms: C_12  and  C_13
REMARK    8  A    between atoms: C_18  and  C_19
REMARK    9  A    between atoms: C_27  and  C_28
REMARK   10  A    between atoms: C_30  and  C_31
REMARK                            x       y       z     vdW  Elec       q    Type
REMARK                         _______ _______ _______ _____ _____    ______ ____
ROOT
ATOM      1  C   UNL     1       0.937   9.265  19.706  0.00  0.00    +0.000 A 
ATOM      2  C   UNL     1       1.306   9.298  18.366  0.00  0.00    +0.000 A 
ATOM      3  C   UNL     1       2.091   8.290  17.822  0.00  0.00    +0.000 A 
ATOM      4  C   UNL     1       2.583   7.244  18.614  0.00  0.00    +0.000 A 
ATOM      5  C   UNL     1       2.276   7.288  19.983  0.00  0.00    +0.000 A 
ATOM      6  C   UNL     1       1.423   8.244  20.516  0.00  0.00    +0.000 A 
ENDROOT
BRANCH   4   7
ATOM      7  C   UNL     1       3.377   6.162  17.990  0.00  0.00    +0.000 A 
ATOM      8  C   UNL     1       4.332   6.524  17.012  0.00  0.00    +0.000 A 
ATOM      9  C   UNL     1       5.047   5.578  16.290  0.00  0.00    +0.000 A 
ATOM     10  C   UNL     1       4.862   4.232  16.558  0.00  0.00    +0.000 A 
ATOM     11  C   UNL     1       3.972   3.836  17.558  0.00  0.00    +0.000 A 
ATOM     12  C   UNL     1       3.215   4.782  18.273  0.00  0.00    +0.000 A 
BRANCH  12  13
ATOM     13  C   UNL     1       2.279   4.284  19.279  0.00  0.00    +0.000 A 
ATOM     14  N   UNL     1       2.620   4.041  20.594  0.00  0.00    +0.000 NA
ATOM     15  N   UNL     1       1.612   3.385  21.148  0.00  0.00    +0.000 NA
ATOM     16  N   UNL     1       0.668   3.392  20.210  0.00  0.00    +0.000 N 
ATOM     17  N   UNL     1       1.002   3.940  19.028  0.00  0.00    +0.000 NA
ATOM     18  H   UNL     1      -0.254   2.995  20.376  0.00  0.00    +0.000 HD
ENDBRANCH  12  13
ENDBRANCH   4   7
BRANCH   1  19
ATOM     19  C   UNL     1       0.015  10.302  20.266  0.00  0.00    +0.000 C 
BRANCH  19  20
ATOM     20  O   UNL     1      -0.708  10.896  19.188  0.00  0.00    +0.000 OA
BRANCH  20  22
ATOM     21  C   UNL     1      -2.977  11.388  18.670  0.00  0.00    +0.000 A 
ATOM     22  C   UNL     1      -1.861  11.567  19.507  0.00  0.00    +0.000 A 
ATOM     23  C   UNL     1      -1.957  12.445  20.591  0.00  0.00    +0.000 A 
ATOM     24  C   UNL     1      -3.149  13.116  20.824  0.00  0.00    +0.000 A 
ATOM     25  C   UNL     1      -3.291  14.058  21.982  0.00  0.00    +0.000 C 
ATOM     26  N   UNL     1      -4.225  12.963  20.029  0.00  0.00    +0.000 NA
ATOM     27  C   UNL     1      -4.136  12.121  18.963  0.00  0.00    +0.000 A 
ATOM     28  C   UNL     1      -5.379  12.052  18.121  0.00  0.00    +0.000 C 
BRANCH  21  29
ATOM     29  C   UNL     1      -2.938  10.502  17.487  0.00  0.00    +0.000 C 
ATOM     30  O   UNL     1      -3.206   9.286  17.545  0.00  0.00    +0.000 OA
BRANCH  29  32
ATOM     31  C   UNL     1      -2.851  10.480  15.156  0.00  0.00    +0.000 C 
ATOM     32  O   UNL     1      -2.516  11.134  16.384  0.00  0.00    +0.000 OA
ENDBRANCH  29  32
ENDBRANCH  21  29
ENDBRANCH  20  22
ENDBRANCH  19  20
ENDBRANCH   1  19
TORSDOF 7
ENDMDL
MODEL 6
REMARK VINA RESULT:      -8.8      1.040      1.536
REMARK  Name = 
REMARK  10 active torsions:
REMARK  status: ('A' for Active; 'I' for Inactive)
REMARK    1  A    between atoms: C_1  and  O_2
REMARK    2  A    between atoms: O_2  and  C_3
REMARK    3  A    between atoms: C_3  and  C_5
REMARK    4  A    between atoms: C_6  and  O_7
REMARK    5  A    between atoms: O_7  and  C_8
REMARK    6  A    between atoms: C_8  and  C_9
REMARK    7  A    between atoms: C_12  and  C_13
REMARK    8  A    between atoms: C_18  and  C_19
REMARK    9  A    between atoms: C_27  and  C_28
REMARK   10  A    between atoms: C_30  and  C_31
REMARK                            x       y       z     vdW  Elec       q    Type
REMARK                         _______ _______ _______ _____ _____    ______ ____
ROOT
ATOM      1  C   UNL     1       1.554   8.586  19.475  0.00  0.00    +0.000 A 
ATOM      2  C   UNL     1       2.006   7.417  20.077  0.00  0.00    +0.000 A 
ATOM      3  C   UNL     1       2.869   6.561  19.405  0.00  0.00    +0.000 A 
ATOM      4  C   UNL     1       3.263   6.816  18.085  0.00  0.00    +0.000 A 
ATOM      5  C   UNL     1       2.715   7.951  17.468  0.00  0.00    +0.000 A 
ATOM      6  C   UNL     1       1.922   8.855  18.160  0.00  0.00    +0.000 A 
ENDROOT
BRANCH   4   7
ATOM      7  C   UNL     1       4.221   5.906  17.417  0.00  0.00    +0.000 A 
ATOM      8  C   UNL     1       5.382   6.476  16.845  0.00  0.00    +0.000 A 
ATOM      9  C   UNL     1       6.285   5.727  16.101  0.00  0.00    +0.000 A 
ATOM     10  C   UNL     1       6.077   4.366  15.946  0.00  0.00    +0.000 A 
ATOM     11  C   UNL     1       4.974   3.756  16.546  0.00  0.00    +0.000 A 
ATOM     12  C   UNL     1       4.033   4.508  17.272  0.00  0.00    +0.000 A 
BRANCH  12  13
ATOM     13  C   UNL     1       2.888   3.800  17.839  0.00  0.00    +0.000 A 
ATOM     14  N   UNL     1       1.620   3.824  17.295  0.00  0.00    +0.000 NA
ATOM     15  N   UNL     1       0.799   3.282  18.180  0.00  0.00    +0.000 NA
ATOM     16  N   UNL     1       1.608   2.829  19.135  0.00  0.00    +0.000 N 
ATOM     17  N   UNL     1       2.917   3.102  18.990  0.00  0.00    +0.000 NA
ATOM     18  H   UNL     1       1.254   2.312  19.936  0.00  0.00    +0.000 HD
ENDBRANCH  12  13
ENDBRANCH   4   7
BRANCH   1  19
ATOM     19  C   UNL     1       0.700   9.551  20.235  0.00  0.00    +0.000 C 
BRANCH  19  20
ATOM     20  O   UNL     1       0.484  10.705  19.423  0.00  0.00    +0.000 OA
BRANCH  20  22
ATOM     21  C   UNL     1      -1.655  11.716  19.671  0.00  0.00    +0.000 A 
ATOM     22  C   UNL     1      -0.783  10.895  18.934  0.00  0.00    +0.000 A 
ATOM     23  C   UNL     1      -1.250  10.278  17.769  0.00  0.00    +0.000 A 
ATOM     24  C   UNL     1      -2.559  10.491  17.360  0.00  0.00    +0.000 A 
ATOM     25  C   UNL     1      -3.091   9.854  16.113  0.00  0.00    +0.000 C 
ATOM     26  N   UNL     1      -3.410  11.267  18.058  0.00  0.00    +0.000 NA
ATOM     27  C   UNL     1      -2.967  11.861  19.201  0.00  0.00    +0.000 A 
ATOM     28  C   UNL     1      -4.006  12.672  19.922  0.00  0.00    +0.000 C 
BRANCH  21  29
ATOM     29  C   UNL     1      -1.239  12.372  20.929  0.00  0.00    +0.000 C 
ATOM     30  O   UNL     1      -0.668  13.480  20.956  0.00  0.00    +0.000 OA
BRANCH  29  32
ATOM     31  C   UNL     1      -1.896  12.343  23.167  0.00  0.00    +0.000 C 
ATOM     32  O   UNL     1      -1.478  11.615  22.009  0.00  0.00    +0.000 OA
ENDBRANCH  29  32
ENDBRANCH  21  29
ENDBRANCH  20  22
ENDBRANCH  19  20
ENDBRANCH   1  19
TORSDOF 7
ENDMDL
MODEL 7
REMARK VINA RESULT:      -8.8      1.791      3.241
REMARK  Name = 
REMARK  10 active torsions:
REMARK  status: ('A' for Active; 'I' for Inactive)
REMARK    1  A    between atoms: C_1  and  O_2
REMARK    2  A    between atoms: O_2  and  C_3
REMARK    3  A    between atoms: C_3  and  C_5
REMARK    4  A    between atoms: C_6  and  O_7
REMARK    5  A    between atoms: O_7  and  C_8
REMARK    6  A    between atoms: C_8  and  C_9
REMARK    7  A    between atoms: C_12  and  C_13
REMARK    8  A    between atoms: C_18  and  C_19
REMARK    9  A    between atoms: C_27  and  C_28
REMARK   10  A    between atoms: C_30  and  C_31
REMARK                            x       y       z     vdW  Elec       q    Type
REMARK                         _______ _______ _______ _____ _____    ______ ____
ROOT
ATOM      1  C   UNL     1       1.269   8.988  19.472  0.00  0.00    +0.000 A 
ATOM      2  C   UNL     1       1.764   7.884  20.157  0.00  0.00    +0.000 A 
ATOM      3  C   UNL     1       2.599   6.972  19.524  0.00  0.00    +0.000 A 
ATOM      4  C   UNL     1       2.921   7.102  18.167  0.00  0.00    +0.000 A 
ATOM      5  C   UNL     1       2.330   8.170  17.475  0.00  0.00    +0.000 A 
ATOM      6  C   UNL     1       1.564   9.132  18.120  0.00  0.00    +0.000 A 
ENDROOT
BRANCH   4   7
ATOM      7  C   UNL     1       3.852   6.138  17.538  0.00  0.00    +0.000 A 
ATOM      8  C   UNL     1       4.989   6.656  16.875  0.00  0.00    +0.000 A 
ATOM      9  C   UNL     1       5.861   5.846  16.161  0.00  0.00    +0.000 A 
ATOM     10  C   UNL     1       5.648   4.478  16.125  0.00  0.00    +0.000 A 
ATOM     11  C   UNL     1       4.570   3.922  16.816  0.00  0.00    +0.000 A 
ATOM     12  C   UNL     1       3.658   4.734  17.514  0.00  0.00    +0.000 A 
BRANCH  12  13
ATOM     13  C   UNL     1       2.536   4.078  18.182  0.00  0.00    +0.000 A 
ATOM     14  N   UNL     1       2.621   3.478  19.422  0.00  0.00    +0.000 NA
ATOM     15  N   UNL     1       1.505   2.792  19.607  0.00  0.00    +0.000 NA
ATOM     16  N   UNL     1       0.748   3.119  18.561  0.00  0.00    +0.000 N 
ATOM     17  N   UNL     1       1.314   3.920  17.640  0.00  0.00    +0.000 NA
ATOM     18  H   UNL     1      -0.203   2.773  18.461  0.00  0.00    +0.000 HD
ENDBRANCH  12  13
ENDBRANCH   4   7
BRANCH   1  19
ATOM     19  C   UNL     1       0.447  10.016  20.182  0.00  0.00    +0.000 C 
BRANCH  19  20
ATOM     20  O   UNL     1      -0.341  10.713  19.217  0.00  0.00    +0.000 OA
BRANCH  20  22
ATOM     21  C   UNL     1      -2.608  11.383  18.949  0.00  0.00    +0.000 A 
ATOM     22  C   UNL     1      -1.410  11.431  19.687  0.00  0.00    +0.000 A 
ATOM     23  C   UNL     1      -1.347  12.234  20.831  0.00  0.00    +0.000 A 
ATOM     24  C   UNL     1      -2.463  12.960  21.219  0.00  0.00    +0.000 A 
ATOM     25  C   UNL     1      -2.434  13.823  22.444  0.00  0.00    +0.000 C 
ATOM     26  N   UNL     1      -3.615  12.932  20.521  0.00  0.00    +0.000 NA
ATOM     27  C   UNL     1      -3.681  12.165  19.399  0.00  0.00    +0.000 A 
ATOM     28  C   UNL     1      -4.997  12.236  18.675  0.00  0.00    +0.000 C 
BRANCH  21  29
ATOM     29  C   UNL     1      -2.736  10.584  17.712  0.00  0.00    +0.000 C 
ATOM     30  O   UNL     1      -3.108   9.393  17.714  0.00  0.00    +0.000 OA
BRANCH  29  32
ATOM     31  C   UNL     1      -2.919  10.793  15.397  0.00  0.00    +0.000 C 
ATOM     32  O   UNL     1      -2.344  11.255  16.622  0.00  0.00    +0.000 OA
ENDBRANCH  29  32
ENDBRANCH  21  29
ENDBRANCH  20  22
ENDBRANCH  19  20
ENDBRANCH   1  19
TORSDOF 7
ENDMDL
MODEL 8
REMARK VINA RESULT:      -8.7      1.450      1.751
REMARK  Name = 
REMARK  10 active torsions:
REMARK  status: ('A' for Active; 'I' for Inactive)
REMARK    1  A    between atoms: C_1  and  O_2
REMARK    2  A    between atoms: O_2  and  C_3
REMARK    3  A    between atoms: C_3  and  C_5
REMARK    4  A    between atoms: C_6  and  O_7
REMARK    5  A    between atoms: O_7  and  C_8
REMARK    6  A    between atoms: C_8  and  C_9
REMARK    7  A    between atoms: C_12  and  C_13
REMARK    8  A    between atoms: C_18  and  C_19
REMARK    9  A    between atoms: C_27  and  C_28
REMARK   10  A    between atoms: C_30  and  C_31
REMARK                            x       y       z     vdW  Elec       q    Type
REMARK                         _______ _______ _______ _____ _____    ______ ____
ROOT
ATOM      1  C   UNL     1       1.183   9.059  19.744  0.00  0.00    +0.000 A 
ATOM      2  C   UNL     1       1.614   9.184  18.428  0.00  0.00    +0.000 A 
ATOM      3  C   UNL     1       2.365   8.181  17.829  0.00  0.00    +0.000 A 
ATOM      4  C   UNL     1       2.761   7.044  18.545  0.00  0.00    +0.000 A 
ATOM      5  C   UNL     1       2.396   6.989  19.898  0.00  0.00    +0.000 A 
ATOM      6  C   UNL     1       1.575   7.945  20.479  0.00  0.00    +0.000 A 
ENDROOT
BRANCH   4   7
ATOM      7  C   UNL     1       3.520   5.973  17.860  0.00  0.00    +0.000 A 
ATOM      8  C   UNL     1       4.508   6.360  16.925  0.00  0.00    +0.000 A 
ATOM      9  C   UNL     1       5.197   5.435  16.150  0.00  0.00    +0.000 A 
ATOM     10  C   UNL     1       4.950   4.083  16.322  0.00  0.00    +0.000 A 
ATOM     11  C   UNL     1       4.024   3.659  17.278  0.00  0.00    +0.000 A 
ATOM     12  C   UNL     1       3.294   4.586  18.044  0.00  0.00    +0.000 A 
BRANCH  12  13
ATOM     13  C   UNL     1       2.320   4.061  18.997  0.00  0.00    +0.000 A 
ATOM     14  N   UNL     1       2.628   3.694  20.291  0.00  0.00    +0.000 NA
ATOM     15  N   UNL     1       1.579   3.053  20.782  0.00  0.00    +0.000 NA
ATOM     16  N   UNL     1       0.649   3.188  19.838  0.00  0.00    +0.000 N 
ATOM     17  N   UNL     1       1.029   3.810  18.707  0.00  0.00    +0.000 NA
ATOM     18  H   UNL     1      -0.295   2.831  19.963  0.00  0.00    +0.000 HD
ENDBRANCH  12  13
ENDBRANCH   4   7
BRANCH   1  19
ATOM     19  C   UNL     1       0.298  10.098  20.355  0.00  0.00    +0.000 C 
BRANCH  19  20
ATOM     20  O   UNL     1       0.047  11.111  19.382  0.00  0.00    +0.000 OA
BRANCH  20  22
ATOM     21  C   UNL     1      -2.187  11.922  19.485  0.00  0.00    +0.000 A 
ATOM     22  C   UNL     1      -1.209  11.151  18.832  0.00  0.00    +0.000 A 
ATOM     23  C   UNL     1      -1.563  10.430  17.687  0.00  0.00    +0.000 A 
ATOM     24  C   UNL     1      -2.865  10.493  17.215  0.00  0.00    +0.000 A 
ATOM     25  C   UNL     1      -3.278   9.741  15.986  0.00  0.00    +0.000 C 
ATOM     26  N   UNL     1      -3.817  11.220  17.832  0.00  0.00    +0.000 NA
ATOM     27  C   UNL     1      -3.485  11.914  18.955  0.00  0.00    +0.000 A 
ATOM     28  C   UNL     1      -4.628  12.659  19.585  0.00  0.00    +0.000 C 
BRANCH  21  29
ATOM     29  C   UNL     1      -1.893  12.683  20.719  0.00  0.00    +0.000 C 
ATOM     30  O   UNL     1      -1.385  13.822  20.704  0.00  0.00    +0.000 OA
BRANCH  29  32
ATOM     31  C   UNL     1      -1.285  12.250  22.928  0.00  0.00    +0.000 C 
ATOM     32  O   UNL     1      -2.163  11.986  21.830  0.00  0.00    +0.000 OA
ENDBRANCH  29  32
ENDBRANCH  21  29
ENDBRANCH  20  22
ENDBRANCH  19  20
ENDBRANCH   1  19
TORSDOF 7
ENDMDL
MODEL 9
REMARK VINA RESULT:      -8.7      2.192      3.014
REMARK  Name = 
REMARK  10 active torsions:
REMARK  status: ('A' for Active; 'I' for Inactive)
REMARK    1  A    between atoms: C_1  and  O_2
REMARK    2  A    between atoms: O_2  and  C_3
REMARK    3  A    between atoms: C_3  and  C_5
REMARK    4  A    between atoms: C_6  and  O_7
REMARK    5  A    between atoms: O_7  and  C_8
REMARK    6  A    between atoms: C_8  and  C_9
REMARK    7  A    between atoms: C_12  and  C_13
REMARK    8  A    between atoms: C_18  and  C_19
REMARK    9  A    between atoms: C_27  and  C_28
REMARK   10  A    between atoms: C_30  and  C_31
REMARK                            x       y       z     vdW  Elec       q    Type
REMARK                         _______ _______ _______ _____ _____    ______ ____
ROOT
ATOM      1  C   UNL     1       1.804   8.740  19.119  0.00  0.00    +0.000 A 
ATOM      2  C   UNL     1       2.174   8.240  17.876  0.00  0.00    +0.000 A 
ATOM      3  C   UNL     1       2.460   6.891  17.710  0.00  0.00    +0.000 A 
ATOM      4  C   UNL     1       2.441   6.006  18.795  0.00  0.00    +0.000 A 
ATOM      5  C   UNL     1       2.159   6.554  20.055  0.00  0.00    +0.000 A 
ATOM      6  C   UNL     1       1.791   7.883  20.215  0.00  0.00    +0.000 A 
ENDROOT
BRANCH   4   7
ATOM      7  C   UNL     1       2.704   4.566  18.571  0.00  0.00    +0.000 A 
ATOM      8  C   UNL     1       1.590   3.709  18.416  0.00  0.00    +0.000 A 
ATOM      9  C   UNL     1       1.727   2.330  18.314  0.00  0.00    +0.000 A 
ATOM     10  C   UNL     1       2.993   1.768  18.316  0.00  0.00    +0.000 A 
ATOM     11  C   UNL     1       4.120   2.587  18.407  0.00  0.00    +0.000 A 
ATOM     12  C   UNL     1       3.995   3.981  18.547  0.00  0.00    +0.000 A 
BRANCH  12  13
ATOM     13  C   UNL     1       5.223   4.764  18.672  0.00  0.00    +0.000 A 
ATOM     14  N   UNL     1       5.818   5.435  17.624  0.00  0.00    +0.000 NA
ATOM     15  N   UNL     1       7.013   5.829  18.034  0.00  0.00    +0.000 NA
ATOM     16  N   UNL     1       7.028   5.517  19.329  0.00  0.00    +0.000 N 
ATOM     17  N   UNL     1       5.950   4.865  19.800  0.00  0.00    +0.000 NA
ATOM     18  H   UNL     1       7.817   5.752  19.926  0.00  0.00    +0.000 HD
ENDBRANCH  12  13
ENDBRANCH   4   7
BRANCH   1  19
ATOM     19  C   UNL     1       1.407  10.174  19.275  0.00  0.00    +0.000 C 
BRANCH  19  20
ATOM     20  O   UNL     1       0.282  10.242  20.150  0.00  0.00    +0.000 OA
BRANCH  20  22
ATOM     21  C   UNL     1      -1.526  11.767  20.404  0.00  0.00    +0.000 A 
ATOM     22  C   UNL     1      -0.871  10.783  19.642  0.00  0.00    +0.000 A 
ATOM     23  C   UNL     1      -1.439  10.370  18.432  0.00  0.00    +0.000 A 
ATOM     24  C   UNL     1      -2.629  10.940  18.005  0.00  0.00    +0.000 A 
ATOM     25  C   UNL     1      -3.261  10.528  16.710  0.00  0.00    +0.000 C 
ATOM     26  N   UNL     1      -3.273  11.877  18.725  0.00  0.00    +0.000 NA
ATOM     27  C   UNL     1      -2.736  12.276  19.911  0.00  0.00    +0.000 A 
ATOM     28  C   UNL     1      -3.553  13.297  20.652  0.00  0.00    +0.000 C 
BRANCH  21  29
ATOM     29  C   UNL     1      -1.001  12.229  21.708  0.00  0.00    +0.000 C 
ATOM     30  O   UNL     1      -1.323  11.700  22.790  0.00  0.00    +0.000 OA
BRANCH  29  32
ATOM     31  C   UNL     1      -0.432  14.312  22.588  0.00  0.00    +0.000 C 
ATOM     32  O   UNL     1      -0.215  13.307  21.593  0.00  0.00    +0.000 OA
ENDBRANCH  29  32
ENDBRANCH  21  29
ENDBRANCH  20  22
ENDBRANCH  19  20
ENDBRANCH   1  19
TORSDOF 7
ENDMDL
