MODEL 1
REMARK VINA RESULT:      -9.3      0.000      0.000
REMARK  Name = 
REMARK  11 active torsions:
REMARK  status: ('A' for Active; 'I' for Inactive)
REMARK    1  A    between atoms: C_2  and  O_3
REMARK    2  A    between atoms: C_2  and  C_4
REMARK    3  A    between atoms: C_4  and  C_5
REMARK    4  A    between atoms: C_5  and  N_6
REMARK    5  A    between atoms: C_5  and  C_23
REMARK    6  A    between atoms: C_7  and  C_9
REMARK    7  A    between atoms: C_9  and  C_10
REMARK    8  A    between atoms: C_10  and  C_11
REMARK    9  A    between atoms: C_11  and  C_12
REMARK   10  A    between atoms: C_12  and  C_13
REMARK   11  A    between atoms: C_26  and  C_27
REMARK                            x       y       z     vdW  Elec       q    Type
REMARK                         _______ _______ _______ _____ _____    ______ ____
ROOT
ATOM      1  N   UNL     1       6.579   5.588  17.657  0.00  0.00    +0.000 N 
ATOM      2  C   UNL     1       7.663   5.737  18.491  0.00  0.00    +0.000 C 
ATOM      3  O   UNL     1       8.154   4.805  19.122  0.00  0.00    +0.000 OA
ATOM      4  H   UNL     1       6.200   6.407  17.199  0.00  0.00    +0.000 HD
ENDROOT
BRANCH   1   5
ATOM      5  C   UNL     1       6.036   4.285  17.259  0.00  0.00    +0.000 C 
BRANCH   5   6
ATOM      6  C   UNL     1       4.732   4.022  18.002  0.00  0.00    +0.000 A 
ATOM      7  C   UNL     1       4.740   3.384  19.256  0.00  0.00    +0.000 A 
ATOM      8  C   UNL     1       3.544   3.179  19.966  0.00  0.00    +0.000 A 
ATOM      9  C   UNL     1       2.317   3.609  19.445  0.00  0.00    +0.000 A 
ATOM     10  C   UNL     1       2.306   4.239  18.197  0.00  0.00    +0.000 A 
ATOM     11  C   UNL     1       3.493   4.448  17.493  0.00  0.00    +0.000 A 
BRANCH   9  12
ATOM     12  C   UNL     1       1.019   3.426  20.192  0.00  0.00    +0.000 C 
ATOM     13  F   UNL     1       0.398   4.594  20.513  0.00  0.00    +0.000 F 
ATOM     14  F   UNL     1       0.109   2.700  19.482  0.00  0.00    +0.000 F 
ATOM     15  F   UNL     1       1.185   2.757  21.368  0.00  0.00    +0.000 F 
ENDBRANCH   9  12
ENDBRANCH   5   6
BRANCH   5  16
ATOM     16  C   UNL     1       5.927   4.098  15.739  0.00  0.00    +0.000 C 
BRANCH  16  18
ATOM     17  O   UNL     1       5.532   6.293  14.843  0.00  0.00    +0.000 OA
ATOM     18  C   UNL     1       6.300   5.356  15.013  0.00  0.00    +0.000 C 
BRANCH  18  19
ATOM     19  O   UNL     1       7.567   5.358  14.537  0.00  0.00    +0.000 OA
ATOM     20  H   UNL     1       7.744   6.085  13.902  0.00  0.00    +0.000 HD
ENDBRANCH  18  19
ENDBRANCH  16  18
ENDBRANCH   5  16
ENDBRANCH   1   5
BRANCH   2  21
ATOM     21  C   UNL     1       8.137   7.167  18.660  0.00  0.00    +0.000 C 
BRANCH  21  22
ATOM     22  C   UNL     1       7.458   8.110  17.667  0.00  0.00    +0.000 C 
BRANCH  22  23
ATOM     23  C   UNL     1       8.270   9.388  17.439  0.00  0.00    +0.000 C 
BRANCH  23  24
ATOM     24  C   UNL     1       8.862   9.919  18.745  0.00  0.00    +0.000 C 
BRANCH  24  25
ATOM     25  C   UNL     1       9.627  11.194  18.517  0.00  0.00    +0.000 A 
ATOM     26  C   UNL     1      11.017  11.200  18.574  0.00  0.00    +0.000 A 
ATOM     27  C   UNL     1      11.689  12.387  18.308  0.00  0.00    +0.000 A 
ATOM     28  C   UNL     1      10.956  13.527  17.971  0.00  0.00    +0.000 A 
ATOM     29  C   UNL     1       9.563  13.440  17.944  0.00  0.00    +0.000 A 
ATOM     30  N   UNL     1       8.901  12.298  18.209  0.00  0.00    +0.000 NA
ATOM     31  N   UNL     1       8.782  14.526  17.573  0.00  0.00    +0.000 N 
ATOM     32  C   UNL     1       9.361  15.837  17.764  0.00  0.00    +0.000 C 
ATOM     33  C   UNL     1      10.727  15.874  17.088  0.00  0.00    +0.000 C 
ATOM     34  C   UNL     1      11.652  14.839  17.730  0.00  0.00    +0.000 C 
ATOM     35  H   UNL     1       7.818  14.366  17.841  0.00  0.00    +0.000 HD
ENDBRANCH  24  25
ENDBRANCH  23  24
ENDBRANCH  22  23
ENDBRANCH  21  22
ENDBRANCH   2  21
TORSDOF 11
ENDMDL
MODEL 2
REMARK VINA RESULT:      -9.3      1.077      1.372
REMARK  Name = 
REMARK  11 active torsions:
REMARK  status: ('A' for Active; 'I' for Inactive)
REMARK    1  A    between atoms: C_2  and  O_3
REMARK    2  A    between atoms: C_2  and  C_4
REMARK    3  A    between atoms: C_4  and  C_5
REMARK    4  A    between atoms: C_5  and  N_6
REMARK    5  A    between atoms: C_5  and  C_23
REMARK    6  A    between atoms: C_7  and  C_9
REMARK    7  A    between atoms: C_9  and  C_10
REMARK    8  A    between atoms: C_10  and  C_11
REMARK    9  A    between atoms: C_11  and  C_12
REMARK   10  A    between atoms: C_12  and  C_13
REMARK   11  A    between atoms: C_26  and  C_27
REMARK                            x       y       z     vdW  Elec       q    Type
REMARK                         _______ _______ _______ _____ _____    ______ ____
ROOT
ATOM      1  N   UNL     1       6.431   5.784  17.354  0.00  0.00    +0.000 N 
ATOM      2  C   UNL     1       7.521   5.497  18.144  0.00  0.00    +0.000 C 
ATOM      3  O   UNL     1       7.901   4.351  18.366  0.00  0.00    +0.000 OA
ATOM      4  H   UNL     1       6.149   6.750  17.246  0.00  0.00    +0.000 HD
ENDROOT
BRANCH   1   5
ATOM      5  C   UNL     1       5.750   4.788  16.521  0.00  0.00    +0.000 C 
BRANCH   5   6
ATOM      6  C   UNL     1       4.495   4.295  17.231  0.00  0.00    +0.000 A 
ATOM      7  C   UNL     1       4.337   2.931  17.537  0.00  0.00    +0.000 A 
ATOM      8  C   UNL     1       3.203   2.476  18.232  0.00  0.00    +0.000 A 
ATOM      9  C   UNL     1       2.205   3.371  18.641  0.00  0.00    +0.000 A 
ATOM     10  C   UNL     1       2.358   4.727  18.334  0.00  0.00    +0.000 A 
ATOM     11  C   UNL     1       3.487   5.180  17.649  0.00  0.00    +0.000 A 
BRANCH   9  12
ATOM     12  C   UNL     1       0.988   2.921  19.410  0.00  0.00    +0.000 C 
ATOM     13  F   UNL     1       0.055   2.289  18.645  0.00  0.00    +0.000 F 
ATOM     14  F   UNL     1       1.300   2.053  20.414  0.00  0.00    +0.000 F 
ATOM     15  F   UNL     1       0.338   3.958  20.009  0.00  0.00    +0.000 F 
ENDBRANCH   9  12
ENDBRANCH   5   6
BRANCH   5  16
ATOM     16  C   UNL     1       5.499   5.255  15.079  0.00  0.00    +0.000 C 
BRANCH  16  18
ATOM     17  O   UNL     1       6.481   4.034  13.258  0.00  0.00    +0.000 OA
ATOM     18  C   UNL     1       6.616   4.833  14.174  0.00  0.00    +0.000 C 
BRANCH  18  19
ATOM     19  O   UNL     1       7.807   5.403  14.473  0.00  0.00    +0.000 OA
ATOM     20  H   UNL     1       8.577   4.897  14.136  0.00  0.00    +0.000 HD
ENDBRANCH  18  19
ENDBRANCH  16  18
ENDBRANCH   5  16
ENDBRANCH   1   5
BRANCH   2  21
ATOM     21  C   UNL     1       8.150   6.703  18.813  0.00  0.00    +0.000 C 
BRANCH  21  22
ATOM     22  C   UNL     1       7.989   7.968  17.971  0.00  0.00    +0.000 C 
BRANCH  22  23
ATOM     23  C   UNL     1       8.624   9.190  18.639  0.00  0.00    +0.000 C 
BRANCH  23  24
ATOM     24  C   UNL     1       8.590  10.413  17.721  0.00  0.00    +0.000 C 
BRANCH  24  25
ATOM     25  C   UNL     1       9.478  11.510  18.244  0.00  0.00    +0.000 A 
ATOM     26  C   UNL     1      10.342  11.269  19.307  0.00  0.00    +0.000 A 
ATOM     27  C   UNL     1      11.183  12.293  19.728  0.00  0.00    +0.000 A 
ATOM     28  C   UNL     1      11.151  13.520  19.063  0.00  0.00    +0.000 A 
ATOM     29  C   UNL     1      10.248  13.684  18.010  0.00  0.00    +0.000 A 
ATOM     30  N   UNL     1       9.424  12.702  17.600  0.00  0.00    +0.000 NA
ATOM     31  N   UNL     1      10.201  14.865  17.282  0.00  0.00    +0.000 N 
ATOM     32  C   UNL     1      10.664  16.059  17.952  0.00  0.00    +0.000 C 
ATOM     33  C   UNL     1      12.060  15.801  18.508  0.00  0.00    +0.000 C 
ATOM     34  C   UNL     1      12.009  14.664  19.529  0.00  0.00    +0.000 C 
ATOM     35  H   UNL     1       9.347  14.901  16.737  0.00  0.00    +0.000 HD
ENDBRANCH  24  25
ENDBRANCH  23  24
ENDBRANCH  22  23
ENDBRANCH  21  22
ENDBRANCH   2  21
TORSDOF 11
ENDMDL
MODEL 3
REMARK VINA RESULT:      -8.9      1.496      1.872
REMARK  Name = 
REMARK  11 active torsions:
REMARK  status: ('A' for Active; 'I' for Inactive)
REMARK    1  A    between atoms: C_2  and  O_3
REMARK    2  A    between atoms: C_2  and  C_4
REMARK    3  A    between atoms: C_4  and  C_5
REMARK    4  A    between atoms: C_5  and  N_6
REMARK    5  A    between atoms: C_5  and  C_23
REMARK    6  A    between atoms: C_7  and  C_9
REMARK    7  A    between atoms: C_9  and  C_10
REMARK    8  A    between atoms: C_10  and  C_11
REMARK    9  A    between atoms: C_11  and  C_12
REMARK   10  A    between atoms: C_12  and  C_13
REMARK   11  A    between atoms: C_26  and  C_27
REMARK                            x       y       z     vdW  Elec       q    Type
REMARK                         _______ _______ _______ _____ _____    ______ ____
ROOT
ATOM      1  N   UNL     1       6.398   5.810  17.122  0.00  0.00    +0.000 N 
ATOM      2  C   UNL     1       7.408   5.657  18.043  0.00  0.00    +0.000 C 
ATOM      3  O   UNL     1       7.675   4.581  18.570  0.00  0.00    +0.000 OA
ATOM      4  H   UNL     1       6.207   6.735  16.758  0.00  0.00    +0.000 HD
ENDROOT
BRANCH   1   5
ATOM      5  C   UNL     1       5.686   4.686  16.505  0.00  0.00    +0.000 C 
BRANCH   5   6
ATOM      6  C   UNL     1       4.492   4.298  17.368  0.00  0.00    +0.000 A 
ATOM      7  C   UNL     1       3.485   5.237  17.659  0.00  0.00    +0.000 A 
ATOM      8  C   UNL     1       2.359   4.873  18.417  0.00  0.00    +0.000 A 
ATOM      9  C   UNL     1       2.209   3.565  18.896  0.00  0.00    +0.000 A 
ATOM     10  C   UNL     1       3.210   2.630  18.612  0.00  0.00    +0.000 A 
ATOM     11  C   UNL     1       4.326   2.991  17.855  0.00  0.00    +0.000 A 
BRANCH   9  12
ATOM     12  C   UNL     1       1.001   3.134  19.691  0.00  0.00    +0.000 C 
ATOM     13  F   UNL     1       0.084   2.435  18.967  0.00  0.00    +0.000 F 
ATOM     14  F   UNL     1       1.332   2.337  20.747  0.00  0.00    +0.000 F 
ATOM     15  F   UNL     1       0.327   4.191  20.226  0.00  0.00    +0.000 F 
ENDBRANCH   9  12
ENDBRANCH   5   6
BRANCH   5  16
ATOM     16  C   UNL     1       5.332   4.913  15.029  0.00  0.00    +0.000 C 
BRANCH  16  18
ATOM     17  O   UNL     1       6.467   3.841  13.202  0.00  0.00    +0.000 OA
ATOM     18  C   UNL     1       6.505   4.622  14.142  0.00  0.00    +0.000 C 
BRANCH  18  19
ATOM     19  O   UNL     1       7.630   5.290  14.487  0.00  0.00    +0.000 OA
ATOM     20  H   UNL     1       8.429   4.985  14.006  0.00  0.00    +0.000 HD
ENDBRANCH  18  19
ENDBRANCH  16  18
ENDBRANCH   5  16
ENDBRANCH   1   5
BRANCH   2  21
ATOM     21  C   UNL     1       8.096   6.947  18.446  0.00  0.00    +0.000 C 
BRANCH  21  22
ATOM     22  C   UNL     1       7.482   8.159  17.747  0.00  0.00    +0.000 C 
BRANCH  22  23
ATOM     23  C   UNL     1       8.429   9.362  17.741  0.00  0.00    +0.000 C 
BRANCH  23  24
ATOM     24  C   UNL     1       8.921   9.696  19.150  0.00  0.00    +0.000 C 
BRANCH  24  25
ATOM     25  C   UNL     1       9.605  11.037  19.183  0.00  0.00    +0.000 A 
ATOM     26  C   UNL     1      10.415  11.440  18.126  0.00  0.00    +0.000 A 
ATOM     27  C   UNL     1      10.988  12.706  18.170  0.00  0.00    +0.000 A 
ATOM     28  C   UNL     1      10.719  13.539  19.258  0.00  0.00    +0.000 A 
ATOM     29  C   UNL     1       9.902  13.056  20.282  0.00  0.00    +0.000 A 
ATOM     30  N   UNL     1       9.349  11.829  20.253  0.00  0.00    +0.000 NA
ATOM     31  N   UNL     1       9.561  13.854  21.366  0.00  0.00    +0.000 N 
ATOM     32  C   UNL     1      10.474  14.926  21.694  0.00  0.00    +0.000 C 
ATOM     33  C   UNL     1      10.723  15.760  20.443  0.00  0.00    +0.000 C 
ATOM     34  C   UNL     1      11.366  14.894  19.360  0.00  0.00    +0.000 C 
ATOM     35  H   UNL     1       9.180  13.281  22.111  0.00  0.00    +0.000 HD
ENDBRANCH  24  25
ENDBRANCH  23  24
ENDBRANCH  22  23
ENDBRANCH  21  22
ENDBRANCH   2  21
TORSDOF 11
ENDMDL
MODEL 4
REMARK VINA RESULT:      -8.8      1.135      1.751
REMARK  Name = 
REMARK  11 active torsions:
REMARK  status: ('A' for Active; 'I' for Inactive)
REMARK    1  A    between atoms: C_2  and  O_3
REMARK    2  A    between atoms: C_2  and  C_4
REMARK    3  A    between atoms: C_4  and  C_5
REMARK    4  A    between atoms: C_5  and  N_6
REMARK    5  A    between atoms: C_5  and  C_23
REMARK    6  A    between atoms: C_7  and  C_9
REMARK    7  A    between atoms: C_9  and  C_10
REMARK    8  A    between atoms: C_10  and  C_11
REMARK    9  A    between atoms: C_11  and  C_12
REMARK   10  A    between atoms: C_12  and  C_13
REMARK   11  A    between atoms: C_26  and  C_27
REMARK                            x       y       z     vdW  Elec       q    Type
REMARK                         _______ _______ _______ _____ _____    ______ ____
ROOT
ATOM      1  N   UNL     1       6.521   6.262  17.363  0.00  0.00    +0.000 N 
ATOM      2  C   UNL     1       7.530   6.871  18.072  0.00  0.00    +0.000 C 
ATOM      3  O   UNL     1       8.158   6.304  18.963  0.00  0.00    +0.000 OA
ATOM      4  H   UNL     1       6.018   6.801  16.670  0.00  0.00    +0.000 HD
ENDROOT
BRANCH   1   5
ATOM      5  C   UNL     1       6.236   4.825  17.431  0.00  0.00    +0.000 C 
BRANCH   5   6
ATOM      6  C   UNL     1       4.941   4.593  18.200  0.00  0.00    +0.000 A 
ATOM      7  C   UNL     1       3.782   5.323  17.884  0.00  0.00    +0.000 A 
ATOM      8  C   UNL     1       2.573   5.081  18.560  0.00  0.00    +0.000 A 
ATOM      9  C   UNL     1       2.493   4.104  19.561  0.00  0.00    +0.000 A 
ATOM     10  C   UNL     1       3.646   3.380  19.880  0.00  0.00    +0.000 A 
ATOM     11  C   UNL     1       4.845   3.616  19.205  0.00  0.00    +0.000 A 
BRANCH   9  12
ATOM     12  C   UNL     1       1.207   3.803  20.288  0.00  0.00    +0.000 C 
ATOM     13  F   UNL     1       0.370   2.971  19.610  0.00  0.00    +0.000 F 
ATOM     14  F   UNL     1       1.421   3.213  21.499  0.00  0.00    +0.000 F 
ATOM     15  F   UNL     1       0.482   4.927  20.551  0.00  0.00    +0.000 F 
ENDBRANCH   9  12
ENDBRANCH   5   6
BRANCH   5  16
ATOM     16  C   UNL     1       6.277   4.121  16.067  0.00  0.00    +0.000 C 
BRANCH  16  18
ATOM     17  O   UNL     1       5.489   5.757  14.493  0.00  0.00    +0.000 OA
ATOM     18  C   UNL     1       6.422   5.112  14.952  0.00  0.00    +0.000 C 
BRANCH  18  19
ATOM     19  O   UNL     1       7.684   5.220  14.477  0.00  0.00    +0.000 OA
ATOM     20  H   UNL     1       8.368   4.922  15.114  0.00  0.00    +0.000 HD
ENDBRANCH  18  19
ENDBRANCH  16  18
ENDBRANCH   5  16
ENDBRANCH   1   5
BRANCH   2  21
ATOM     21  C   UNL     1       7.734   8.338  17.748  0.00  0.00    +0.000 C 
BRANCH  21  22
ATOM     22  C   UNL     1       8.797   8.974  18.642  0.00  0.00    +0.000 C 
BRANCH  22  23
ATOM     23  C   UNL     1       8.846  10.497  18.486  0.00  0.00    +0.000 C 
BRANCH  23  24
ATOM     24  C   UNL     1      10.148  10.951  17.824  0.00  0.00    +0.000 C 
BRANCH  24  25
ATOM     25  C   UNL     1      10.507  12.353  18.237  0.00  0.00    +0.000 A 
ATOM     26  C   UNL     1      10.827  12.636  19.561  0.00  0.00    +0.000 A 
ATOM     27  C   UNL     1      11.202  13.932  19.894  0.00  0.00    +0.000 A 
ATOM     28  C   UNL     1      11.268  14.903  18.892  0.00  0.00    +0.000 A 
ATOM     29  C   UNL     1      10.924  14.539  17.588  0.00  0.00    +0.000 A 
ATOM     30  N   UNL     1      10.550  13.289  17.257  0.00  0.00    +0.000 NA
ATOM     31  N   UNL     1      11.013  15.447  16.542  0.00  0.00    +0.000 N 
ATOM     32  C   UNL     1      10.917  16.848  16.889  0.00  0.00    +0.000 C 
ATOM     33  C   UNL     1      11.933  17.154  17.983  0.00  0.00    +0.000 C 
ATOM     34  C   UNL     1      11.620  16.326  19.229  0.00  0.00    +0.000 C 
ATOM     35  H   UNL     1      10.503  15.099  15.738  0.00  0.00    +0.000 HD
ENDBRANCH  24  25
ENDBRANCH  23  24
ENDBRANCH  22  23
ENDBRANCH  21  22
ENDBRANCH   2  21
TORSDOF 11
ENDMDL
MODEL 5
REMARK VINA RESULT:      -8.7      1.292      1.633
REMARK  Name = 
REMARK  11 active torsions:
REMARK  status: ('A' for Active; 'I' for Inactive)
REMARK    1  A    between atoms: C_2  and  O_3
REMARK    2  A    between atoms: C_2  and  C_4
REMARK    3  A    between atoms: C_4  and  C_5
REMARK    4  A    between atoms: C_5  and  N_6
REMARK    5  A    between atoms: C_5  and  C_23
REMARK    6  A    between atoms: C_7  and  C_9
REMARK    7  A    between atoms: C_9  and  C_10
REMARK    8  A    between atoms: C_10  and  C_11
REMARK    9  A    between atoms: C_11  and  C_12
REMARK   10  A    between atoms: C_12  and  C_13
REMARK   11  A    between atoms: C_26  and  C_27
REMARK                            x       y       z     vdW  Elec       q    Type
REMARK                         _______ _______ _______ _____ _____    ______ ____
ROOT
ATOM      1  N   UNL     1       6.433   5.536  16.987  0.00  0.00    +0.000 N 
ATOM      2  C   UNL     1       5.927   6.790  16.736  0.00  0.00    +0.000 C 
ATOM      3  O   UNL     1       5.010   6.995  15.945  0.00  0.00    +0.000 OA
ATOM      4  H   UNL     1       7.217   5.445  17.621  0.00  0.00    +0.000 HD
ENDROOT
BRANCH   1   5
ATOM      5  C   UNL     1       5.800   4.298  16.521  0.00  0.00    +0.000 C 
BRANCH   5   6
ATOM      6  C   UNL     1       4.638   3.937  17.439  0.00  0.00    +0.000 A 
ATOM      7  C   UNL     1       4.784   4.002  18.836  0.00  0.00    +0.000 A 
ATOM      8  C   UNL     1       3.703   3.714  19.687  0.00  0.00    +0.000 A 
ATOM      9  C   UNL     1       2.452   3.361  19.163  0.00  0.00    +0.000 A 
ATOM     10  C   UNL     1       2.305   3.292  17.774  0.00  0.00    +0.000 A 
ATOM     11  C   UNL     1       3.377   3.583  16.929  0.00  0.00    +0.000 A 
BRANCH   9  12
ATOM     12  C   UNL     1       1.265   3.069  20.047  0.00  0.00    +0.000 C 
ATOM     13  F   UNL     1       0.768   4.165  20.683  0.00  0.00    +0.000 F 
ATOM     14  F   UNL     1       0.220   2.533  19.353  0.00  0.00    +0.000 F 
ATOM     15  F   UNL     1       1.555   2.169  21.028  0.00  0.00    +0.000 F 
ENDBRANCH   9  12
ENDBRANCH   5   6
BRANCH   5  16
ATOM     16  C   UNL     1       5.426   4.316  15.032  0.00  0.00    +0.000 C 
BRANCH  16  18
ATOM     17  O   UNL     1       7.555   5.127  14.266  0.00  0.00    +0.000 OA
ATOM     18  C   UNL     1       6.652   4.308  14.168  0.00  0.00    +0.000 C 
BRANCH  18  19
ATOM     19  O   UNL     1       6.664   3.318  13.246  0.00  0.00    +0.000 OA
ATOM     20  H   UNL     1       6.870   3.632  12.339  0.00  0.00    +0.000 HD
ENDBRANCH  18  19
ENDBRANCH  16  18
ENDBRANCH   5  16
ENDBRANCH   1   5
BRANCH   2  21
ATOM     21  C   UNL     1       6.665   7.919  17.427  0.00  0.00    +0.000 C 
BRANCH  21  22
ATOM     22  C   UNL     1       7.900   7.416  18.174  0.00  0.00    +0.000 C 
BRANCH  22  23
ATOM     23  C   UNL     1       8.747   8.564  18.728  0.00  0.00    +0.000 C 
BRANCH  23  24
ATOM     24  C   UNL     1       8.376   9.899  18.079  0.00  0.00    +0.000 C 
BRANCH  24  25
ATOM     25  C   UNL     1       9.332  10.987  18.489  0.00  0.00    +0.000 A 
ATOM     26  C   UNL     1      10.080  10.864  19.655  0.00  0.00    +0.000 A 
ATOM     27  C   UNL     1      10.989  11.866  19.973  0.00  0.00    +0.000 A 
ATOM     28  C   UNL     1      11.141  12.951  19.107  0.00  0.00    +0.000 A 
ATOM     29  C   UNL     1      10.346  13.003  17.959  0.00  0.00    +0.000 A 
ATOM     30  N   UNL     1       9.456  12.043  17.647  0.00  0.00    +0.000 NA
ATOM     31  N   UNL     1      10.483  14.032  17.038  0.00  0.00    +0.000 N 
ATOM     32  C   UNL     1      11.016  15.281  17.534  0.00  0.00    +0.000 C 
ATOM     33  C   UNL     1      12.329  15.002  18.258  0.00  0.00    +0.000 C 
ATOM     34  C   UNL     1      12.077  14.077  19.450  0.00  0.00    +0.000 C 
ATOM     35  H   UNL     1       9.683  14.047  16.415  0.00  0.00    +0.000 HD
ENDBRANCH  24  25
ENDBRANCH  23  24
ENDBRANCH  22  23
ENDBRANCH  21  22
ENDBRANCH   2  21
TORSDOF 11
ENDMDL
MODEL 6
REMARK VINA RESULT:      -8.7      1.204      1.714
REMARK  Name = 
REMARK  11 active torsions:
REMARK  status: ('A' for Active; 'I' for Inactive)
REMARK    1  A    between atoms: C_2  and  O_3
REMARK    2  A    between atoms: C_2  and  C_4
REMARK    3  A    between atoms: C_4  and  C_5
REMARK    4  A    between atoms: C_5  and  N_6
REMARK    5  A    between atoms: C_5  and  C_23
REMARK    6  A    between atoms: C_7  and  C_9
REMARK    7  A    between atoms: C_9  and  C_10
REMARK    8  A    between atoms: C_10  and  C_11
REMARK    9  A    between atoms: C_11  and  C_12
REMARK   10  A    between atoms: C_12  and  C_13
REMARK   11  A    between atoms: C_26  and  C_27
REMARK                            x       y       z     vdW  Elec       q    Type
REMARK                         _______ _______ _______ _____ _____    ______ ____
ROOT
ATOM      1  N   UNL     1       6.389   6.020  17.446  0.00  0.00    +0.000 N 
ATOM      2  C   UNL     1       7.537   5.917  18.197  0.00  0.00    +0.000 C 
ATOM      3  O   UNL     1       7.999   4.841  18.567  0.00  0.00    +0.000 OA
ATOM      4  H   UNL     1       6.042   6.941  17.211  0.00  0.00    +0.000 HD
ENDROOT
BRANCH   1   5
ATOM      5  C   UNL     1       5.724   4.872  16.821  0.00  0.00    +0.000 C 
BRANCH   5   6
ATOM      6  C   UNL     1       4.480   4.500  17.620  0.00  0.00    +0.000 A 
ATOM      7  C   UNL     1       3.659   3.434  17.209  0.00  0.00    +0.000 A 
ATOM      8  C   UNL     1       2.536   3.058  17.966  0.00  0.00    +0.000 A 
ATOM      9  C   UNL     1       2.211   3.732  19.150  0.00  0.00    +0.000 A 
ATOM     10  C   UNL     1       3.023   4.794  19.559  0.00  0.00    +0.000 A 
ATOM     11  C   UNL     1       4.141   5.165  18.810  0.00  0.00    +0.000 A 
BRANCH   9  12
ATOM     12  C   UNL     1       1.028   3.338  19.999  0.00  0.00    +0.000 C 
ATOM     13  F   UNL     1       0.382   4.392  20.570  0.00  0.00    +0.000 F 
ATOM     14  F   UNL     1       0.082   2.659  19.289  0.00  0.00    +0.000 F 
ATOM     15  F   UNL     1       1.376   2.514  21.028  0.00  0.00    +0.000 F 
ENDBRANCH   9  12
ENDBRANCH   5   6
BRANCH   5  16
ATOM     16  C   UNL     1       5.460   5.051  15.319  0.00  0.00    +0.000 C 
BRANCH  16  18
ATOM     17  O   UNL     1       7.688   5.325  14.460  0.00  0.00    +0.000 OA
ATOM     18  C   UNL     1       6.661   4.662  14.511  0.00  0.00    +0.000 C 
BRANCH  18  19
ATOM     19  O   UNL     1       6.503   3.512  13.815  0.00  0.00    +0.000 OA
ATOM     20  H   UNL     1       7.351   3.100  13.545  0.00  0.00    +0.000 HD
ENDBRANCH  18  19
ENDBRANCH  16  18
ENDBRANCH   5  16
ENDBRANCH   1   5
BRANCH   2  21
ATOM     21  C   UNL     1       8.127   7.243  18.632  0.00  0.00    +0.000 C 
BRANCH  21  22
ATOM     22  C   UNL     1       8.047   8.291  17.522  0.00  0.00    +0.000 C 
BRANCH  22  23
ATOM     23  C   UNL     1       8.023   9.718  18.077  0.00  0.00    +0.000 C 
BRANCH  23  24
ATOM     24  C   UNL     1       9.432  10.304  18.180  0.00  0.00    +0.000 C 
BRANCH  24  25
ATOM     25  C   UNL     1       9.399  11.808  18.134  0.00  0.00    +0.000 A 
ATOM     26  C   UNL     1       8.272  12.473  17.665  0.00  0.00    +0.000 A 
ATOM     27  C   UNL     1       8.261  13.863  17.686  0.00  0.00    +0.000 A 
ATOM     28  C   UNL     1       9.367  14.547  18.195  0.00  0.00    +0.000 A 
ATOM     29  C   UNL     1      10.463  13.805  18.640  0.00  0.00    +0.000 A 
ATOM     30  N   UNL     1      10.487  12.460  18.615  0.00  0.00    +0.000 NA
ATOM     31  N   UNL     1      11.572  14.426  19.197  0.00  0.00    +0.000 N 
ATOM     32  C   UNL     1      11.813  15.797  18.806  0.00  0.00    +0.000 C 
ATOM     33  C   UNL     1      10.542  16.606  19.043  0.00  0.00    +0.000 C 
ATOM     34  C   UNL     1       9.407  16.052  18.182  0.00  0.00    +0.000 C 
ATOM     35  H   UNL     1      12.350  13.777  19.234  0.00  0.00    +0.000 HD
ENDBRANCH  24  25
ENDBRANCH  23  24
ENDBRANCH  22  23
ENDBRANCH  21  22
ENDBRANCH   2  21
TORSDOF 11
ENDMDL
MODEL 7
REMARK VINA RESULT:      -8.7      1.437      1.887
REMARK  Name = 
REMARK  11 active torsions:
REMARK  status: ('A' for Active; 'I' for Inactive)
REMARK    1  A    between atoms: C_2  and  O_3
REMARK    2  A    between atoms: C_2  and  C_4
REMARK    3  A    between atoms: C_4  and  C_5
REMARK    4  A    between atoms: C_5  and  N_6
REMARK    5  A    between atoms: C_5  and  C_23
REMARK    6  A    between atoms: C_7  and  C_9
REMARK    7  A    between atoms: C_9  and  C_10
REMARK    8  A    between atoms: C_10  and  C_11
REMARK    9  A    between atoms: C_11  and  C_12
REMARK   10  A    between atoms: C_12  and  C_13
REMARK   11  A    between atoms: C_26  and  C_27
REMARK                            x       y       z     vdW  Elec       q    Type
REMARK                         _______ _______ _______ _____ _____    ______ ____
ROOT
ATOM      1  N   UNL     1       6.797   5.750  17.718  0.00  0.00    +0.000 N 
ATOM      2  C   UNL     1       7.669   5.912  18.770  0.00  0.00    +0.000 C 
ATOM      3  O   UNL     1       7.837   5.058  19.636  0.00  0.00    +0.000 OA
ATOM      4  H   UNL     1       6.677   6.512  17.063  0.00  0.00    +0.000 HD
ENDROOT
BRANCH   1   5
ATOM      5  C   UNL     1       6.151   4.475  17.390  0.00  0.00    +0.000 C 
BRANCH   5   6
ATOM      6  C   UNL     1       4.854   4.337  18.178  0.00  0.00    +0.000 A 
ATOM      7  C   UNL     1       3.713   5.072  17.810  0.00  0.00    +0.000 A 
ATOM      8  C   UNL     1       2.501   4.916  18.506  0.00  0.00    +0.000 A 
ATOM      9  C   UNL     1       2.400   4.021  19.578  0.00  0.00    +0.000 A 
ATOM     10  C   UNL     1       3.534   3.292  19.949  0.00  0.00    +0.000 A 
ATOM     11  C   UNL     1       4.736   3.443  19.255  0.00  0.00    +0.000 A 
BRANCH   9  12
ATOM     12  C   UNL     1       1.109   3.811  20.330  0.00  0.00    +0.000 C 
ATOM     13  F   UNL     1       0.427   4.961  20.588  0.00  0.00    +0.000 F 
ATOM     14  F   UNL     1       0.241   3.003  19.657  0.00  0.00    +0.000 F 
ATOM     15  F   UNL     1       1.303   3.214  21.540  0.00  0.00    +0.000 F 
ENDBRANCH   9  12
ENDBRANCH   5   6
BRANCH   5  16
ATOM     16  C   UNL     1       5.984   4.235  15.883  0.00  0.00    +0.000 C 
BRANCH  16  18
ATOM     17  O   UNL     1       7.574   5.473  14.573  0.00  0.00    +0.000 OA
ATOM     18  C   UNL     1       6.469   5.414  15.092  0.00  0.00    +0.000 C 
BRANCH  18  19
ATOM     19  O   UNL     1       5.575   6.428  15.020  0.00  0.00    +0.000 OA
ATOM     20  H   UNL     1       5.631   7.051  15.776  0.00  0.00    +0.000 HD
ENDBRANCH  18  19
ENDBRANCH  16  18
ENDBRANCH   5  16
ENDBRANCH   1   5
BRANCH   2  21
ATOM     21  C   UNL     1       8.324   7.277  18.843  0.00  0.00    +0.000 C 
BRANCH  21  22
ATOM     22  C   UNL     1       7.968   8.141  17.633  0.00  0.00    +0.000 C 
BRANCH  22  23
ATOM     23  C   UNL     1       7.901   9.629  17.988  0.00  0.00    +0.000 C 
BRANCH  23  24
ATOM     24  C   UNL     1       9.278  10.289  17.905  0.00  0.00    +0.000 C 
BRANCH  24  25
ATOM     25  C   UNL     1       9.435  11.354  18.957  0.00  0.00    +0.000 A 
ATOM     26  C   UNL     1       9.369  11.025  20.307  0.00  0.00    +0.000 A 
ATOM     27  C   UNL     1       9.569  12.027  21.248  0.00  0.00    +0.000 A 
ATOM     28  C   UNL     1       9.851  13.325  20.815  0.00  0.00    +0.000 A 
ATOM     29  C   UNL     1       9.893  13.574  19.442  0.00  0.00    +0.000 A 
ATOM     30  N   UNL     1       9.691  12.613  18.521  0.00  0.00    +0.000 NA
ATOM     31  N   UNL     1      10.212  14.832  18.950  0.00  0.00    +0.000 N 
ATOM     32  C   UNL     1       9.950  15.956  19.822  0.00  0.00    +0.000 C 
ATOM     33  C   UNL     1      10.614  15.697  21.169  0.00  0.00    +0.000 C 
ATOM     34  C   UNL     1      10.020  14.442  21.808  0.00  0.00    +0.000 C 
ATOM     35  H   UNL     1       9.959  14.895  17.970  0.00  0.00    +0.000 HD
ENDBRANCH  24  25
ENDBRANCH  23  24
ENDBRANCH  22  23
ENDBRANCH  21  22
ENDBRANCH   2  21
TORSDOF 11
ENDMDL
MODEL 8
REMARK VINA RESULT:      -8.7      1.218      1.770
REMARK  Name = 
REMARK  11 active torsions:
REMARK  status: ('A' for Active; 'I' for Inactive)
REMARK    1  A    between atoms: C_2  and  O_3
REMARK    2  A    between atoms: C_2  and  C_4
REMARK    3  A    between atoms: C_4  and  C_5
REMARK    4  A    between atoms: C_5  and  N_6
REMARK    5  A    between atoms: C_5  and  C_23
REMARK    6  A    between atoms: C_7  and  C_9
REMARK    7  A    between atoms: C_9  and  C_10
REMARK    8  A    between atoms: C_10  and  C_11
REMARK    9  A    between atoms: C_11  and  C_12
REMARK   10  A    between atoms: C_12  and  C_13
REMARK   11  A    between atoms: C_26  and  C_27
REMARK                            x       y       z     vdW  Elec       q    Type
REMARK                         _______ _______ _______ _____ _____    ______ ____
ROOT
ATOM      1  N   UNL     1       6.910   5.249  17.178  0.00  0.00    +0.000 N 
ATOM      2  C   UNL     1       6.609   6.555  17.486  0.00  0.00    +0.000 C 
ATOM      3  O   UNL     1       5.531   7.075  17.210  0.00  0.00    +0.000 OA
ATOM      4  H   UNL     1       7.833   4.897  17.398  0.00  0.00    +0.000 HD
ENDROOT
BRANCH   1   5
ATOM      5  C   UNL     1       5.920   4.280  16.698  0.00  0.00    +0.000 C 
BRANCH   5   6
ATOM      6  C   UNL     1       4.788   4.156  17.711  0.00  0.00    +0.000 A 
ATOM      7  C   UNL     1       3.449   4.304  17.308  0.00  0.00    +0.000 A 
ATOM      8  C   UNL     1       2.398   4.146  18.229  0.00  0.00    +0.000 A 
ATOM      9  C   UNL     1       2.660   3.834  19.569  0.00  0.00    +0.000 A 
ATOM     10  C   UNL     1       3.992   3.691  19.974  0.00  0.00    +0.000 A 
ATOM     11  C   UNL     1       5.034   3.842  19.058  0.00  0.00    +0.000 A 
BRANCH   9  12
ATOM     12  C   UNL     1       1.557   3.634  20.578  0.00  0.00    +0.000 C 
ATOM     13  F   UNL     1       1.025   2.381  20.574  0.00  0.00    +0.000 F 
ATOM     14  F   UNL     1       1.974   3.861  21.856  0.00  0.00    +0.000 F 
ATOM     15  F   UNL     1       0.509   4.483  20.378  0.00  0.00    +0.000 F 
ENDBRANCH   9  12
ENDBRANCH   5   6
BRANCH   5  16
ATOM     16  C   UNL     1       5.437   4.545  15.265  0.00  0.00    +0.000 C 
BRANCH  16  18
ATOM     17  O   UNL     1       7.498   5.285  14.275  0.00  0.00    +0.000 OA
ATOM     18  C   UNL     1       6.576   4.482  14.292  0.00  0.00    +0.000 C 
BRANCH  18  19
ATOM     19  O   UNL     1       6.484   3.461  13.409  0.00  0.00    +0.000 OA
ATOM     20  H   UNL     1       5.707   2.882  13.561  0.00  0.00    +0.000 HD
ENDBRANCH  18  19
ENDBRANCH  16  18
ENDBRANCH   5  16
ENDBRANCH   1   5
BRANCH   2  21
ATOM     21  C   UNL     1       7.754   7.341  18.093  0.00  0.00    +0.000 C 
BRANCH  21  22
ATOM     22  C   UNL     1       7.645   8.834  17.782  0.00  0.00    +0.000 C 
BRANCH  22  23
ATOM     23  C   UNL     1       8.986   9.555  17.938  0.00  0.00    +0.000 C 
BRANCH  23  24
ATOM     24  C   UNL     1       9.118  10.204  19.317  0.00  0.00    +0.000 C 
BRANCH  24  25
ATOM     25  C   UNL     1       9.955  11.453  19.252  0.00  0.00    +0.000 A 
ATOM     26  C   UNL     1      10.879  11.733  20.253  0.00  0.00    +0.000 A 
ATOM     27  C   UNL     1      11.669  12.870  20.131  0.00  0.00    +0.000 A 
ATOM     28  C   UNL     1      11.528  13.682  19.004  0.00  0.00    +0.000 A 
ATOM     29  C   UNL     1      10.572  13.335  18.048  0.00  0.00    +0.000 A 
ATOM     30  N   UNL     1       9.795  12.241  18.160  0.00  0.00    +0.000 NA
ATOM     31  N   UNL     1      10.417  14.077  16.885  0.00  0.00    +0.000 N 
ATOM     32  C   UNL     1      10.830  15.462  16.938  0.00  0.00    +0.000 C 
ATOM     33  C   UNL     1      12.263  15.527  17.456  0.00  0.00    +0.000 C 
ATOM     34  C   UNL     1      12.331  14.948  18.870  0.00  0.00    +0.000 C 
ATOM     35  H   UNL     1       9.539  13.839  16.437  0.00  0.00    +0.000 HD
ENDBRANCH  24  25
ENDBRANCH  23  24
ENDBRANCH  22  23
ENDBRANCH  21  22
ENDBRANCH   2  21
TORSDOF 11
ENDMDL
MODEL 9
REMARK VINA RESULT:      -8.5      3.432      4.221
REMARK  Name = 
REMARK  11 active torsions:
REMARK  status: ('A' for Active; 'I' for Inactive)
REMARK    1  A    between atoms: C_2  and  O_3
REMARK    2  A    between atoms: C_2  and  C_4
REMARK    3  A    between atoms: C_4  and  C_5
REMARK    4  A    between atoms: C_5  and  N_6
REMARK    5  A    between atoms: C_5  and  C_23
REMARK    6  A    between atoms: C_7  and  C_9
REMARK    7  A    between atoms: C_9  and  C_10
REMARK    8  A    between atoms: C_10  and  C_11
REMARK    9  A    between atoms: C_11  and  C_12
REMARK   10  A    between atoms: C_12  and  C_13
REMARK   11  A    between atoms: C_26  and  C_27
REMARK                            x       y       z     vdW  Elec       q    Type
REMARK                         _______ _______ _______ _____ _____    ______ ____
ROOT
ATOM      1  N   UNL     1       5.139   6.013  18.553  0.00  0.00    +0.000 N 
ATOM      2  C   UNL     1       6.144   5.119  18.840  0.00  0.00    +0.000 C 
ATOM      3  O   UNL     1       5.936   4.020  19.347  0.00  0.00    +0.000 OA
ATOM      4  H   UNL     1       5.386   6.917  18.173  0.00  0.00    +0.000 HD
ENDROOT
BRANCH   1   5
ATOM      5  C   UNL     1       3.713   5.675  18.609  0.00  0.00    +0.000 C 
BRANCH   5   6
ATOM      6  C   UNL     1       2.889   6.946  18.774  0.00  0.00    +0.000 A 
ATOM      7  C   UNL     1       2.771   7.864  17.715  0.00  0.00    +0.000 A 
ATOM      8  C   UNL     1       1.976   9.016  17.846  0.00  0.00    +0.000 A 
ATOM      9  C   UNL     1       1.278   9.275  19.033  0.00  0.00    +0.000 A 
ATOM     10  C   UNL     1       1.397   8.366  20.090  0.00  0.00    +0.000 A 
ATOM     11  C   UNL     1       2.183   7.219  19.958  0.00  0.00    +0.000 A 
BRANCH   9  12
ATOM     12  C   UNL     1       0.397  10.488  19.198  0.00  0.00    +0.000 C 
ATOM     13  F   UNL     1      -0.276  10.524  20.381  0.00  0.00    +0.000 F 
ATOM     14  F   UNL     1       1.102  11.654  19.132  0.00  0.00    +0.000 F 
ATOM     15  F   UNL     1      -0.553  10.578  18.226  0.00  0.00    +0.000 F 
ENDBRANCH   9  12
ENDBRANCH   5   6
BRANCH   5  16
ATOM     16  C   UNL     1       3.243   4.782  17.452  0.00  0.00    +0.000 C 
BRANCH  16  18
ATOM     17  O   UNL     1       1.309   3.384  17.737  0.00  0.00    +0.000 OA
ATOM     18  C   UNL     1       2.493   3.588  17.962  0.00  0.00    +0.000 C 
BRANCH  18  19
ATOM     19  O   UNL     1       3.243   2.756  18.722  0.00  0.00    +0.000 OA
ATOM     20  H   UNL     1       3.991   3.204  19.170  0.00  0.00    +0.000 HD
ENDBRANCH  18  19
ENDBRANCH  16  18
ENDBRANCH   5  16
ENDBRANCH   1   5
BRANCH   2  21
ATOM     21  C   UNL     1       7.545   5.640  18.586  0.00  0.00    +0.000 C 
BRANCH  21  22
ATOM     22  C   UNL     1       7.530   6.921  17.752  0.00  0.00    +0.000 C 
BRANCH  22  23
ATOM     23  C   UNL     1       8.313   8.054  18.422  0.00  0.00    +0.000 C 
BRANCH  23  24
ATOM     24  C   UNL     1       8.117   9.381  17.688  0.00  0.00    +0.000 C 
BRANCH  24  25
ATOM     25  C   UNL     1       8.833  10.502  18.393  0.00  0.00    +0.000 A 
ATOM     26  C   UNL     1       9.455  10.280  19.617  0.00  0.00    +0.000 A 
ATOM     27  C   UNL     1      10.149  11.327  20.212  0.00  0.00    +0.000 A 
ATOM     28  C   UNL     1      10.219  12.559  19.558  0.00  0.00    +0.000 A 
ATOM     29  C   UNL     1       9.560  12.703  18.335  0.00  0.00    +0.000 A 
ATOM     30  N   UNL     1       8.878  11.698  17.754  0.00  0.00    +0.000 NA
ATOM     31  N   UNL     1       9.631  13.888  17.616  0.00  0.00    +0.000 N 
ATOM     32  C   UNL     1       9.896  15.091  18.373  0.00  0.00    +0.000 C 
ATOM     33  C   UNL     1      11.147  14.874  19.217  0.00  0.00    +0.000 C 
ATOM     34  C   UNL     1      10.917  13.727  20.201  0.00  0.00    +0.000 C 
ATOM     35  H   UNL     1       8.914  13.901  16.899  0.00  0.00    +0.000 HD
ENDBRANCH  24  25
ENDBRANCH  23  24
ENDBRANCH  22  23
ENDBRANCH  21  22
ENDBRANCH   2  21
TORSDOF 11
ENDMDL
