MODEL 1
REMARK VINA RESULT:      -8.1      0.000      0.000
REMARK  Name = 
REMARK  8 active torsions:
REMARK  status: ('A' for Active; 'I' for Inactive)
REMARK    1  A    between atoms: C_1  and  C_2
REMARK    2  A    between atoms: C_7  and  C_8
REMARK    3  A    between atoms: C_10  and  C_11
REMARK    4  A    between atoms: C_11  and  S_12
REMARK    5  A    between atoms: S_12  and  C_14
REMARK    6  A    between atoms: C_14  and  C_15
REMARK    7  A    between atoms: N_17  and  C_18
REMARK    8  A    between atoms: C_24  and  C_25
REMARK                            x       y       z     vdW  Elec       q    Type
REMARK                         _______ _______ _______ _____ _____    ______ ____
ROOT
ATOM      1  C   UNL     1       7.518   5.386  17.934  0.00  0.00    +0.000 C 
ENDROOT
BRANCH   1   4
ATOM      2  C   UNL     1       4.348   3.970  18.716  0.00  0.00    +0.000 A 
ATOM      3  N   UNL     1       5.422   4.668  19.068  0.00  0.00    +0.000 NA
ATOM      4  C   UNL     1       6.197   4.708  17.928  0.00  0.00    +0.000 A 
ATOM      5  C   UNL     1       5.541   4.030  16.920  0.00  0.00    +0.000 A 
ATOM      6  C   UNL     1       5.818   3.715  15.509  0.00  0.00    +0.000 C 
ATOM      7  O   UNL     1       4.354   3.569  17.416  0.00  0.00    +0.000 OA
BRANCH   2  14
ATOM      8  C   UNL     1       4.617   1.803  20.672  0.00  0.00    +0.000 C 
ATOM      9  C   UNL     1       3.362   2.619  20.568  0.00  0.00    +0.000 A 
ATOM     10  C   UNL     1       2.314   2.405  21.475  0.00  0.00    +0.000 A 
ATOM     11  C   UNL     1       1.081   3.017  21.278  0.00  0.00    +0.000 A 
ATOM     12  C   UNL     1       0.885   3.843  20.174  0.00  0.00    +0.000 A 
ATOM     13  C   UNL     1       1.950   4.128  19.316  0.00  0.00    +0.000 A 
ATOM     14  C   UNL     1       3.213   3.558  19.529  0.00  0.00    +0.000 A 
ENDBRANCH   2  14
ENDBRANCH   1   4
BRANCH   1  15
ATOM     15  S   UNL     1       7.480   7.055  17.216  0.00  0.00    +0.000 S 
ATOM     16  O   UNL     1       5.985   7.543  17.170  0.00  0.00    +0.000 OA
BRANCH  15  17
ATOM     17  C   UNL     1       8.344   7.940  18.542  0.00  0.00    +0.000 C 
BRANCH  17  18
ATOM     18  C   UNL     1       8.411   9.428  18.264  0.00  0.00    +0.000 C 
ATOM     19  O   UNL     1       7.703   9.956  17.413  0.00  0.00    +0.000 OA
ATOM     20  N   UNL     1       9.324  10.143  19.020  0.00  0.00    +0.000 N 
ATOM     21  H   UNL     1       9.962   9.635  19.629  0.00  0.00    +0.000 HD
BRANCH  20  22
ATOM     22  C   UNL     1       9.431  11.605  18.911  0.00  0.00    +0.000 C 
ATOM     23  C   UNL     1       9.882  12.252  20.229  0.00  0.00    +0.000 C 
ATOM     24  C   UNL     1      11.349  11.973  20.560  0.00  0.00    +0.000 C 
ATOM     25  C   UNL     1      12.270  12.444  19.443  0.00  0.00    +0.000 C 
ATOM     26  C   UNL     1      11.851  11.839  18.120  0.00  0.00    +0.000 C 
ATOM     27  C   UNL     1      10.372  12.053  17.787  0.00  0.00    +0.000 C 
ENDBRANCH  20  22
ENDBRANCH  17  18
ENDBRANCH  15  17
ENDBRANCH   1  15
TORSDOF 6
ENDMDL
MODEL 2
REMARK VINA RESULT:      -8.0      0.464      1.379
REMARK  Name = 
REMARK  8 active torsions:
REMARK  status: ('A' for Active; 'I' for Inactive)
REMARK    1  A    between atoms: C_1  and  C_2
REMARK    2  A    between atoms: C_7  and  C_8
REMARK    3  A    between atoms: C_10  and  C_11
REMARK    4  A    between atoms: C_11  and  S_12
REMARK    5  A    between atoms: S_12  and  C_14
REMARK    6  A    between atoms: C_14  and  C_15
REMARK    7  A    between atoms: N_17  and  C_18
REMARK    8  A    between atoms: C_24  and  C_25
REMARK                            x       y       z     vdW  Elec       q    Type
REMARK                         _______ _______ _______ _____ _____    ______ ____
ROOT
ATOM      1  C   UNL     1       7.611   5.279  17.836  0.00  0.00    +0.000 C 
ENDROOT
BRANCH   1   4
ATOM      2  C   UNL     1       4.448   4.090  18.950  0.00  0.00    +0.000 A 
ATOM      3  N   UNL     1       5.601   4.705  19.186  0.00  0.00    +0.000 NA
ATOM      4  C   UNL     1       6.252   4.699  17.970  0.00  0.00    +0.000 A 
ATOM      5  C   UNL     1       5.444   4.081  17.036  0.00  0.00    +0.000 A 
ATOM      6  C   UNL     1       5.545   3.759  15.603  0.00  0.00    +0.000 C 
ATOM      7  O   UNL     1       4.286   3.702  17.655  0.00  0.00    +0.000 OA
BRANCH   2  14
ATOM      8  C   UNL     1       2.151   5.879  19.298  0.00  0.00    +0.000 C 
ATOM      9  C   UNL     1       2.204   4.529  19.951  0.00  0.00    +0.000 A 
ATOM     10  C   UNL     1       1.102   4.065  20.684  0.00  0.00    +0.000 A 
ATOM     11  C   UNL     1       1.205   2.906  21.446  0.00  0.00    +0.000 A 
ATOM     12  C   UNL     1       2.409   2.206  21.485  0.00  0.00    +0.000 A 
ATOM     13  C   UNL     1       3.482   2.615  20.690  0.00  0.00    +0.000 A 
ATOM     14  C   UNL     1       3.378   3.754  19.878  0.00  0.00    +0.000 A 
ENDBRANCH   2  14
ENDBRANCH   1   4
BRANCH   1  15
ATOM     15  S   UNL     1       7.624   6.931  17.080  0.00  0.00    +0.000 S 
ATOM     16  O   UNL     1       6.141   7.339  16.750  0.00  0.00    +0.000 OA
BRANCH  15  17
ATOM     17  C   UNL     1       8.186   7.882  18.517  0.00  0.00    +0.000 C 
BRANCH  17  18
ATOM     18  C   UNL     1       8.298   9.360  18.196  0.00  0.00    +0.000 C 
ATOM     19  O   UNL     1       7.591   9.888  17.344  0.00  0.00    +0.000 OA
ATOM     20  N   UNL     1       9.250  10.064  18.914  0.00  0.00    +0.000 N 
ATOM     21  H   UNL     1       9.882   9.551  19.524  0.00  0.00    +0.000 HD
BRANCH  20  22
ATOM     22  C   UNL     1       9.403  11.518  18.762  0.00  0.00    +0.000 C 
ATOM     23  C   UNL     1       9.653  12.217  20.107  0.00  0.00    +0.000 C 
ATOM     24  C   UNL     1      11.042  11.932  20.680  0.00  0.00    +0.000 C 
ATOM     25  C   UNL     1      12.139  12.339  19.706  0.00  0.00    +0.000 C 
ATOM     26  C   UNL     1      11.923  11.681  18.359  0.00  0.00    +0.000 C 
ATOM     27  C   UNL     1      10.520  11.902  17.785  0.00  0.00    +0.000 C 
ENDBRANCH  20  22
ENDBRANCH  17  18
ENDBRANCH  15  17
ENDBRANCH   1  15
TORSDOF 6
ENDMDL
MODEL 3
REMARK VINA RESULT:      -7.8      3.925      6.314
REMARK  Name = 
REMARK  8 active torsions:
REMARK  status: ('A' for Active; 'I' for Inactive)
REMARK    1  A    between atoms: C_1  and  C_2
REMARK    2  A    between atoms: C_7  and  C_8
REMARK    3  A    between atoms: C_10  and  C_11
REMARK    4  A    between atoms: C_11  and  S_12
REMARK    5  A    between atoms: S_12  and  C_14
REMARK    6  A    between atoms: C_14  and  C_15
REMARK    7  A    between atoms: N_17  and  C_18
REMARK    8  A    between atoms: C_24  and  C_25
REMARK                            x       y       z     vdW  Elec       q    Type
REMARK                         _______ _______ _______ _____ _____    ______ ____
ROOT
ATOM      1  C   UNL     1       3.925   3.008  19.454  0.00  0.00    +0.000 C 
ENDROOT
BRANCH   1   4
ATOM      2  C   UNL     1       2.178   6.042  20.092  0.00  0.00    +0.000 A 
ATOM      3  N   UNL     1       3.088   5.352  19.416  0.00  0.00    +0.000 NA
ATOM      4  C   UNL     1       3.020   4.079  19.941  0.00  0.00    +0.000 A 
ATOM      5  C   UNL     1       2.047   4.054  20.921  0.00  0.00    +0.000 A 
ATOM      6  C   UNL     1       1.498   3.040  21.836  0.00  0.00    +0.000 C 
ATOM      7  O   UNL     1       1.498   5.302  21.012  0.00  0.00    +0.000 OA
BRANCH   2  14
ATOM      8  C   UNL     1       3.004   7.637  17.776  0.00  0.00    +0.000 C 
ATOM      9  C   UNL     1       2.110   8.200  18.842  0.00  0.00    +0.000 A 
ATOM     10  C   UNL     1       1.585   9.492  18.699  0.00  0.00    +0.000 A 
ATOM     11  C   UNL     1       0.912  10.095  19.757  0.00  0.00    +0.000 A 
ATOM     12  C   UNL     1       0.763   9.414  20.962  0.00  0.00    +0.000 A 
ATOM     13  C   UNL     1       1.208   8.096  21.081  0.00  0.00    +0.000 A 
ATOM     14  C   UNL     1       1.845   7.456  20.008  0.00  0.00    +0.000 A 
ENDBRANCH   2  14
ENDBRANCH   1   4
BRANCH   1  15
ATOM     15  S   UNL     1       3.371   2.240  17.903  0.00  0.00    +0.000 S 
ATOM     16  O   UNL     1       1.869   1.806  18.072  0.00  0.00    +0.000 OA
BRANCH  15  17
ATOM     17  C   UNL     1       3.441   3.704  16.836  0.00  0.00    +0.000 C 
BRANCH  17  18
ATOM     18  C   UNL     1       4.854   3.972  16.355  0.00  0.00    +0.000 C 
ATOM     19  O   UNL     1       5.153   3.905  15.167  0.00  0.00    +0.000 OA
ATOM     20  N   UNL     1       5.777   4.286  17.337  0.00  0.00    +0.000 N 
ATOM     21  H   UNL     1       5.498   4.216  18.313  0.00  0.00    +0.000 HD
BRANCH  20  22
ATOM     22  C   UNL     1       7.160   4.651  17.000  0.00  0.00    +0.000 C 
ATOM     23  C   UNL     1       7.250   6.041  16.352  0.00  0.00    +0.000 C 
ATOM     24  C   UNL     1       6.982   7.179  17.338  0.00  0.00    +0.000 C 
ATOM     25  C   UNL     1       7.941   7.127  18.520  0.00  0.00    +0.000 C 
ATOM     26  C   UNL     1       7.894   5.765  19.181  0.00  0.00    +0.000 C 
ATOM     27  C   UNL     1       8.103   4.602  18.207  0.00  0.00    +0.000 C 
ENDBRANCH  20  22
ENDBRANCH  17  18
ENDBRANCH  15  17
ENDBRANCH   1  15
TORSDOF 6
ENDMDL
MODEL 4
REMARK VINA RESULT:      -7.7      4.960      7.522
REMARK  Name = 
REMARK  8 active torsions:
REMARK  status: ('A' for Active; 'I' for Inactive)
REMARK    1  A    between atoms: C_1  and  C_2
REMARK    2  A    between atoms: C_7  and  C_8
REMARK    3  A    between atoms: C_10  and  C_11
REMARK    4  A    between atoms: C_11  and  S_12
REMARK    5  A    between atoms: S_12  and  C_14
REMARK    6  A    between atoms: C_14  and  C_15
REMARK    7  A    between atoms: N_17  and  C_18
REMARK    8  A    between atoms: C_24  and  C_25
REMARK                            x       y       z     vdW  Elec       q    Type
REMARK                         _______ _______ _______ _____ _____    ______ ____
ROOT
ATOM      1  C   UNL     1       2.593   6.296  20.291  0.00  0.00    +0.000 C 
ENDROOT
BRANCH   1   4
ATOM      2  C   UNL     1       0.663   9.281  20.473  0.00  0.00    +0.000 A 
ATOM      3  N   UNL     1       1.105   8.154  21.019  0.00  0.00    +0.000 NA
ATOM      4  C   UNL     1       1.926   7.602  20.058  0.00  0.00    +0.000 A 
ATOM      5  C   UNL     1       1.952   8.439  18.961  0.00  0.00    +0.000 A 
ATOM      6  C   UNL     1       2.611   8.431  17.645  0.00  0.00    +0.000 C 
ATOM      7  O   UNL     1       1.157   9.519  19.227  0.00  0.00    +0.000 OA
BRANCH   2  14
ATOM      8  C   UNL     1       0.096   9.400  23.346  0.00  0.00    +0.000 C 
ATOM      9  C   UNL     1      -0.460  10.415  22.391  0.00  0.00    +0.000 A 
ATOM     10  C   UNL     1      -1.204  11.498  22.880  0.00  0.00    +0.000 A 
ATOM     11  C   UNL     1      -1.879  12.338  22.000  0.00  0.00    +0.000 A 
ATOM     12  C   UNL     1      -1.819  12.100  20.629  0.00  0.00    +0.000 A 
ATOM     13  C   UNL     1      -1.010  11.076  20.132  0.00  0.00    +0.000 A 
ATOM     14  C   UNL     1      -0.284  10.251  21.003  0.00  0.00    +0.000 A 
ENDBRANCH   2  14
ENDBRANCH   1   4
BRANCH   1  15
ATOM     15  S   UNL     1       1.824   4.918  19.389  0.00  0.00    +0.000 S 
ATOM     16  O   UNL     1       1.880   5.237  17.850  0.00  0.00    +0.000 OA
BRANCH  15  17
ATOM     17  C   UNL     1       3.048   3.633  19.766  0.00  0.00    +0.000 C 
BRANCH  17  18
ATOM     18  C   UNL     1       4.067   3.496  18.653  0.00  0.00    +0.000 C 
ATOM     19  O   UNL     1       4.042   2.552  17.870  0.00  0.00    +0.000 OA
ATOM     20  N   UNL     1       5.027   4.491  18.586  0.00  0.00    +0.000 N 
ATOM     21  H   UNL     1       5.066   5.186  19.328  0.00  0.00    +0.000 HD
BRANCH  20  22
ATOM     22  C   UNL     1       6.022   4.525  17.505  0.00  0.00    +0.000 C 
ATOM     23  C   UNL     1       5.722   5.626  16.476  0.00  0.00    +0.000 C 
ATOM     24  C   UNL     1       5.973   7.034  17.017  0.00  0.00    +0.000 C 
ATOM     25  C   UNL     1       7.407   7.195  17.503  0.00  0.00    +0.000 C 
ATOM     26  C   UNL     1       7.750   6.118  18.511  0.00  0.00    +0.000 C 
ATOM     27  C   UNL     1       7.456   4.699  18.018  0.00  0.00    +0.000 C 
ENDBRANCH  20  22
ENDBRANCH  17  18
ENDBRANCH  15  17
ENDBRANCH   1  15
TORSDOF 6
ENDMDL
MODEL 5
REMARK VINA RESULT:      -7.6      5.455      7.762
REMARK  Name = 
REMARK  8 active torsions:
REMARK  status: ('A' for Active; 'I' for Inactive)
REMARK    1  A    between atoms: C_1  and  C_2
REMARK    2  A    between atoms: C_7  and  C_8
REMARK    3  A    between atoms: C_10  and  C_11
REMARK    4  A    between atoms: C_11  and  S_12
REMARK    5  A    between atoms: S_12  and  C_14
REMARK    6  A    between atoms: C_14  and  C_15
REMARK    7  A    between atoms: N_17  and  C_18
REMARK    8  A    between atoms: C_24  and  C_25
REMARK                            x       y       z     vdW  Elec       q    Type
REMARK                         _______ _______ _______ _____ _____    ______ ____
ROOT
ATOM      1  C   UNL     1       5.187   4.282  18.962  0.00  0.00    +0.000 C 
ENDROOT
BRANCH   1   4
ATOM      2  C   UNL     1       2.528   6.617  19.341  0.00  0.00    +0.000 A 
ATOM      3  N   UNL     1       3.781   6.243  19.573  0.00  0.00    +0.000 NA
ATOM      4  C   UNL     1       3.912   5.041  18.910  0.00  0.00    +0.000 A 
ATOM      5  C   UNL     1       2.716   4.743  18.288  0.00  0.00    +0.000 A 
ATOM      6  C   UNL     1       2.208   3.644  17.451  0.00  0.00    +0.000 C 
ATOM      7  O   UNL     1       1.834   5.754  18.551  0.00  0.00    +0.000 OA
BRANCH   2  14
ATOM      8  C   UNL     1       2.187   8.997  17.664  0.00  0.00    +0.000 C 
ATOM      9  C   UNL     1       1.515   8.871  18.999  0.00  0.00    +0.000 A 
ATOM     10  C   UNL     1       0.635   9.873  19.433  0.00  0.00    +0.000 A 
ATOM     11  C   UNL     1       0.152   9.865  20.738  0.00  0.00    +0.000 A 
ATOM     12  C   UNL     1       0.547   8.860  21.617  0.00  0.00    +0.000 A 
ATOM     13  C   UNL     1       1.353   7.812  21.165  0.00  0.00    +0.000 A 
ATOM     14  C   UNL     1       1.809   7.780  19.839  0.00  0.00    +0.000 A 
ENDBRANCH   2  14
ENDBRANCH   1   4
BRANCH   1  15
ATOM     15  S   UNL     1       6.391   4.800  17.703  0.00  0.00    +0.000 S 
ATOM     16  O   UNL     1       7.839   4.574  18.276  0.00  0.00    +0.000 OA
BRANCH  15  17
ATOM     17  C   UNL     1       6.048   3.526  16.460  0.00  0.00    +0.000 C 
BRANCH  17  18
ATOM     18  C   UNL     1       5.759   4.137  15.103  0.00  0.00    +0.000 C 
ATOM     19  O   UNL     1       5.151   5.197  14.991  0.00  0.00    +0.000 OA
ATOM     20  N   UNL     1       6.215   3.422  14.009  0.00  0.00    +0.000 N 
ATOM     21  H   UNL     1       6.611   2.497  14.157  0.00  0.00    +0.000 HD
BRANCH  20  22
ATOM     22  C   UNL     1       6.077   3.944  12.641  0.00  0.00    +0.000 C 
ATOM     23  C   UNL     1       7.376   3.801  11.834  0.00  0.00    +0.000 C 
ATOM     24  C   UNL     1       7.691   2.352  11.460  0.00  0.00    +0.000 C 
ATOM     25  C   UNL     1       6.551   1.722  10.670  0.00  0.00    +0.000 C 
ATOM     26  C   UNL     1       5.245   1.854  11.426  0.00  0.00    +0.000 C 
ATOM     27  C   UNL     1       4.931   3.287  11.864  0.00  0.00    +0.000 C 
ENDBRANCH  20  22
ENDBRANCH  17  18
ENDBRANCH  15  17
ENDBRANCH   1  15
TORSDOF 6
ENDMDL
MODEL 6
REMARK VINA RESULT:      -7.5      5.089      7.117
REMARK  Name = 
REMARK  8 active torsions:
REMARK  status: ('A' for Active; 'I' for Inactive)
REMARK    1  A    between atoms: C_1  and  C_2
REMARK    2  A    between atoms: C_7  and  C_8
REMARK    3  A    between atoms: C_10  and  C_11
REMARK    4  A    between atoms: C_11  and  S_12
REMARK    5  A    between atoms: S_12  and  C_14
REMARK    6  A    between atoms: C_14  and  C_15
REMARK    7  A    between atoms: N_17  and  C_18
REMARK    8  A    between atoms: C_24  and  C_25
REMARK                            x       y       z     vdW  Elec       q    Type
REMARK                         _______ _______ _______ _____ _____    ______ ____
ROOT
ATOM      1  C   UNL     1       3.172   2.663  21.190  0.00  0.00    +0.000 C 
ENDROOT
BRANCH   1   4
ATOM      2  C   UNL     1       1.729   5.817  20.396  0.00  0.00    +0.000 A 
ATOM      3  N   UNL     1       2.708   5.093  20.926  0.00  0.00    +0.000 NA
ATOM      4  C   UNL     1       2.332   3.785  20.704  0.00  0.00    +0.000 A 
ATOM      5  C   UNL     1       1.128   3.777  20.028  0.00  0.00    +0.000 A 
ATOM      6  C   UNL     1       0.217   2.744  19.509  0.00  0.00    +0.000 C 
ATOM      7  O   UNL     1       0.746   5.073  19.818  0.00  0.00    +0.000 OA
BRANCH   2  14
ATOM      8  C   UNL     1       2.687   7.420  18.136  0.00  0.00    +0.000 C 
ATOM      9  C   UNL     1       1.881   8.027  19.247  0.00  0.00    +0.000 A 
ATOM     10  C   UNL     1       1.501   9.375  19.176  0.00  0.00    +0.000 A 
ATOM     11  C   UNL     1       0.919   9.997  20.276  0.00  0.00    +0.000 A 
ATOM     12  C   UNL     1       0.717   9.280  21.452  0.00  0.00    +0.000 A 
ATOM     13  C   UNL     1       1.014   7.916  21.500  0.00  0.00    +0.000 A 
ATOM     14  C   UNL     1       1.555   7.262  20.384  0.00  0.00    +0.000 A 
ENDBRANCH   2  14
ENDBRANCH   1   4
BRANCH   1  15
ATOM     15  S   UNL     1       4.604   2.314  20.127  0.00  0.00    +0.000 S 
ATOM     16  O   UNL     1       5.422   1.132  20.766  0.00  0.00    +0.000 OA
BRANCH  15  17
ATOM     17  C   UNL     1       3.717   1.693  18.673  0.00  0.00    +0.000 C 
BRANCH  17  18
ATOM     18  C   UNL     1       3.577   2.764  17.609  0.00  0.00    +0.000 C 
ATOM     19  O   UNL     1       2.533   2.917  16.984  0.00  0.00    +0.000 OA
ATOM     20  N   UNL     1       4.698   3.543  17.386  0.00  0.00    +0.000 N 
ATOM     21  H   UNL     1       5.568   3.298  17.853  0.00  0.00    +0.000 HD
BRANCH  20  22
ATOM     22  C   UNL     1       4.672   4.671  16.444  0.00  0.00    +0.000 C 
ATOM     23  C   UNL     1       5.629   5.798  16.862  0.00  0.00    +0.000 C 
ATOM     24  C   UNL     1       7.102   5.428  16.684  0.00  0.00    +0.000 C 
ATOM     25  C   UNL     1       7.406   5.037  15.244  0.00  0.00    +0.000 C 
ATOM     26  C   UNL     1       6.473   3.936  14.785  0.00  0.00    +0.000 C 
ATOM     27  C   UNL     1       4.991   4.255  15.004  0.00  0.00    +0.000 C 
ENDBRANCH  20  22
ENDBRANCH  17  18
ENDBRANCH  15  17
ENDBRANCH   1  15
TORSDOF 6
ENDMDL
MODEL 7
REMARK VINA RESULT:      -7.3      7.015      8.991
REMARK  Name = 
REMARK  8 active torsions:
REMARK  status: ('A' for Active; 'I' for Inactive)
REMARK    1  A    between atoms: C_1  and  C_2
REMARK    2  A    between atoms: C_7  and  C_8
REMARK    3  A    between atoms: C_10  and  C_11
REMARK    4  A    between atoms: C_11  and  S_12
REMARK    5  A    between atoms: S_12  and  C_14
REMARK    6  A    between atoms: C_14  and  C_15
REMARK    7  A    between atoms: N_17  and  C_18
REMARK    8  A    between atoms: C_24  and  C_25
REMARK                            x       y       z     vdW  Elec       q    Type
REMARK                         _______ _______ _______ _____ _____    ______ ____
ROOT
ATOM      1  C   UNL     1       1.516   8.762  21.168  0.00  0.00    +0.000 C 
ENDROOT
BRANCH   1   4
ATOM      2  C   UNL     1       2.281   5.920  19.167  0.00  0.00    +0.000 A 
ATOM      3  N   UNL     1       1.958   6.458  20.337  0.00  0.00    +0.000 NA
ATOM      4  C   UNL     1       1.842   7.807  20.079  0.00  0.00    +0.000 A 
ATOM      5  C   UNL     1       2.094   8.027  18.740  0.00  0.00    +0.000 A 
ATOM      6  C   UNL     1       2.134   9.201  17.853  0.00  0.00    +0.000 C 
ATOM      7  O   UNL     1       2.362   6.823  18.151  0.00  0.00    +0.000 OA
BRANCH   2  14
ATOM      8  C   UNL     1       5.040   4.935  19.269  0.00  0.00    +0.000 C 
ATOM      9  C   UNL     1       3.883   4.012  19.026  0.00  0.00    +0.000 A 
ATOM     10  C   UNL     1       4.103   2.631  18.923  0.00  0.00    +0.000 A 
ATOM     11  C   UNL     1       3.076   1.787  18.514  0.00  0.00    +0.000 A 
ATOM     12  C   UNL     1       1.826   2.316  18.202  0.00  0.00    +0.000 A 
ATOM     13  C   UNL     1       1.577   3.677  18.386  0.00  0.00    +0.000 A 
ATOM     14  C   UNL     1       2.588   4.534  18.844  0.00  0.00    +0.000 A 
ENDBRANCH   2  14
ENDBRANCH   1   4
BRANCH   1  15
ATOM     15  S   UNL     1      -0.093   9.579  20.960  0.00  0.00    +0.000 S 
ATOM     16  O   UNL     1      -0.711   9.833  22.384  0.00  0.00    +0.000 OA
BRANCH  15  17
ATOM     17  C   UNL     1       0.490  11.158  20.285  0.00  0.00    +0.000 C 
BRANCH  17  18
ATOM     18  C   UNL     1       0.023  12.328  21.127  0.00  0.00    +0.000 C 
ATOM     19  O   UNL     1       0.817  13.087  21.672  0.00  0.00    +0.000 OA
ATOM     20  N   UNL     1      -1.348  12.476  21.248  0.00  0.00    +0.000 N 
ATOM     21  H   UNL     1      -1.955  11.752  20.868  0.00  0.00    +0.000 HD
BRANCH  20  22
ATOM     22  C   UNL     1      -1.936  13.616  21.965  0.00  0.00    +0.000 C 
ATOM     23  C   UNL     1      -3.246  14.093  21.320  0.00  0.00    +0.000 C 
ATOM     24  C   UNL     1      -4.404  13.116  21.524  0.00  0.00    +0.000 C 
ATOM     25  C   UNL     1      -4.655  12.853  23.002  0.00  0.00    +0.000 C 
ATOM     26  C   UNL     1      -3.382  12.393  23.683  0.00  0.00    +0.000 C 
ATOM     27  C   UNL     1      -2.189  13.324  23.448  0.00  0.00    +0.000 C 
ENDBRANCH  20  22
ENDBRANCH  17  18
ENDBRANCH  15  17
ENDBRANCH   1  15
TORSDOF 6
ENDMDL
MODEL 8
REMARK VINA RESULT:      -7.2      1.348      1.767
REMARK  Name = 
REMARK  8 active torsions:
REMARK  status: ('A' for Active; 'I' for Inactive)
REMARK    1  A    between atoms: C_1  and  C_2
REMARK    2  A    between atoms: C_7  and  C_8
REMARK    3  A    between atoms: C_10  and  C_11
REMARK    4  A    between atoms: C_11  and  S_12
REMARK    5  A    between atoms: S_12  and  C_14
REMARK    6  A    between atoms: C_14  and  C_15
REMARK    7  A    between atoms: N_17  and  C_18
REMARK    8  A    between atoms: C_24  and  C_25
REMARK                            x       y       z     vdW  Elec       q    Type
REMARK                         _______ _______ _______ _____ _____    ______ ____
ROOT
ATOM      1  C   UNL     1       6.106   6.868  16.848  0.00  0.00    +0.000 C 
ENDROOT
BRANCH   1   4
ATOM      2  C   UNL     1       3.887   4.460  18.241  0.00  0.00    +0.000 A 
ATOM      3  N   UNL     1       4.434   5.670  18.248  0.00  0.00    +0.000 NA
ATOM      4  C   UNL     1       5.278   5.676  17.158  0.00  0.00    +0.000 A 
ATOM      5  C   UNL     1       5.195   4.452  16.524  0.00  0.00    +0.000 A 
ATOM      6  C   UNL     1       5.818   3.832  15.344  0.00  0.00    +0.000 C 
ATOM      7  O   UNL     1       4.298   3.678  17.205  0.00  0.00    +0.000 OA
BRANCH   2  14
ATOM      8  C   UNL     1       4.764   2.327  20.052  0.00  0.00    +0.000 C 
ATOM      9  C   UNL     1       3.400   2.942  20.160  0.00  0.00    +0.000 A 
ATOM     10  C   UNL     1       2.541   2.553  21.199  0.00  0.00    +0.000 A 
ATOM     11  C   UNL     1       1.214   2.971  21.204  0.00  0.00    +0.000 A 
ATOM     12  C   UNL     1       0.736   3.775  20.173  0.00  0.00    +0.000 A 
ATOM     13  C   UNL     1       1.608   4.236  19.184  0.00  0.00    +0.000 A 
ATOM     14  C   UNL     1       2.959   3.863  19.191  0.00  0.00    +0.000 A 
ENDBRANCH   2  14
ENDBRANCH   1   4
BRANCH   1  15
ATOM     15  S   UNL     1       7.147   7.410  18.235  0.00  0.00    +0.000 S 
ATOM     16  O   UNL     1       8.215   6.291  18.524  0.00  0.00    +0.000 OA
BRANCH  15  17
ATOM     17  C   UNL     1       7.970   8.809  17.425  0.00  0.00    +0.000 C 
BRANCH  17  18
ATOM     18  C   UNL     1       8.790   9.617  18.412  0.00  0.00    +0.000 C 
ATOM     19  O   UNL     1       8.899   9.279  19.586  0.00  0.00    +0.000 OA
ATOM     20  N   UNL     1       9.393  10.755  17.906  0.00  0.00    +0.000 N 
ATOM     21  H   UNL     1       9.175  11.045  16.956  0.00  0.00    +0.000 HD
BRANCH  20  22
ATOM     22  C   UNL     1      10.285  11.582  18.733  0.00  0.00    +0.000 C 
ATOM     23  C   UNL     1      11.539  12.026  17.965  0.00  0.00    +0.000 C 
ATOM     24  C   UNL     1      11.242  13.073  16.891  0.00  0.00    +0.000 C 
ATOM     25  C   UNL     1      10.570  14.304  17.484  0.00  0.00    +0.000 C 
ATOM     26  C   UNL     1       9.333  13.908  18.264  0.00  0.00    +0.000 C 
ATOM     27  C   UNL     1       9.588  12.819  19.310  0.00  0.00    +0.000 C 
ENDBRANCH  20  22
ENDBRANCH  17  18
ENDBRANCH  15  17
ENDBRANCH   1  15
TORSDOF 6
ENDMDL
MODEL 9
REMARK VINA RESULT:      -7.2      4.820      7.485
REMARK  Name = 
REMARK  8 active torsions:
REMARK  status: ('A' for Active; 'I' for Inactive)
REMARK    1  A    between atoms: C_1  and  C_2
REMARK    2  A    between atoms: C_7  and  C_8
REMARK    3  A    between atoms: C_10  and  C_11
REMARK    4  A    between atoms: C_11  and  S_12
REMARK    5  A    between atoms: S_12  and  C_14
REMARK    6  A    between atoms: C_14  and  C_15
REMARK    7  A    between atoms: N_17  and  C_18
REMARK    8  A    between atoms: C_24  and  C_25
REMARK                            x       y       z     vdW  Elec       q    Type
REMARK                         _______ _______ _______ _____ _____    ______ ____
ROOT
ATOM      1  C   UNL     1       2.799   5.963  19.490  0.00  0.00    +0.000 C 
ENDROOT
BRANCH   1   4
ATOM      2  C   UNL     1       1.157   8.928  20.574  0.00  0.00    +0.000 A 
ATOM      3  N   UNL     1       1.643   7.717  20.823  0.00  0.00    +0.000 NA
ATOM      4  C   UNL     1       2.180   7.305  19.622  0.00  0.00    +0.000 A 
ATOM      5  C   UNL     1       2.001   8.306  18.688  0.00  0.00    +0.000 A 
ATOM      6  C   UNL     1       2.331   8.491  17.265  0.00  0.00    +0.000 C 
ATOM      7  O   UNL     1       1.360   9.349  19.295  0.00  0.00    +0.000 OA
BRANCH   2  14
ATOM      8  C   UNL     1       1.275  11.832  20.189  0.00  0.00    +0.000 C 
ATOM      9  C   UNL     1       0.356  11.207  21.198  0.00  0.00    +0.000 A 
ATOM     10  C   UNL     1      -0.531  12.014  21.925  0.00  0.00    +0.000 A 
ATOM     11  C   UNL     1      -1.251  11.480  22.989  0.00  0.00    +0.000 A 
ATOM     12  C   UNL     1      -1.087  10.141  23.334  0.00  0.00    +0.000 A 
ATOM     13  C   UNL     1      -0.271   9.313  22.560  0.00  0.00    +0.000 A 
ATOM     14  C   UNL     1       0.424   9.825  21.455  0.00  0.00    +0.000 A 
ENDBRANCH   2  14
ENDBRANCH   1   4
BRANCH   1  15
ATOM     15  S   UNL     1       2.166   4.750  20.687  0.00  0.00    +0.000 S 
ATOM     16  O   UNL     1       0.852   4.112  20.101  0.00  0.00    +0.000 OA
BRANCH  15  17
ATOM     17  C   UNL     1       3.507   3.535  20.576  0.00  0.00    +0.000 C 
BRANCH  17  18
ATOM     18  C   UNL     1       4.125   3.516  19.192  0.00  0.00    +0.000 C 
ATOM     19  O   UNL     1       3.589   2.932  18.256  0.00  0.00    +0.000 OA
ATOM     20  N   UNL     1       5.329   4.186  19.059  0.00  0.00    +0.000 N 
ATOM     21  H   UNL     1       5.781   4.553  19.893  0.00  0.00    +0.000 HD
BRANCH  20  22
ATOM     22  C   UNL     1       5.993   4.317  17.754  0.00  0.00    +0.000 C 
ATOM     23  C   UNL     1       5.321   5.377  16.868  0.00  0.00    +0.000 C 
ATOM     24  C   UNL     1       5.565   6.805  17.356  0.00  0.00    +0.000 C 
ATOM     25  C   UNL     1       7.053   7.115  17.448  0.00  0.00    +0.000 C 
ATOM     26  C   UNL     1       7.758   6.083  18.304  0.00  0.00    +0.000 C 
ATOM     27  C   UNL     1       7.486   4.639  17.873  0.00  0.00    +0.000 C 
ENDBRANCH  20  22
ENDBRANCH  17  18
ENDBRANCH  15  17
ENDBRANCH   1  15
TORSDOF 6
ENDMDL
