MODEL 1
REMARK VINA RESULT:      -8.6      0.000      0.000
REMARK  Name = 
REMARK  12 active torsions:
REMARK  status: ('A' for Active; 'I' for Inactive)
REMARK    1  A    between atoms: C_1  and  C_2
REMARK    2  A    between atoms: C_2  and  N_3
REMARK    3  A    between atoms: N_3  and  C_4
REMARK    4  A    between atoms: N_3  and  C_6
REMARK    5  A    between atoms: C_4  and  C_5
REMARK    6  A    between atoms: C_9  and  C_10
REMARK    7  A    between atoms: C_10  and  N_11
REMARK    8  A    between atoms: N_11  and  C_12
REMARK    9  A    between atoms: N_11  and  S_18
REMARK   10  A    between atoms: S_18  and  C_21
REMARK   11  A    between atoms: C_24  and  O_25
REMARK   12  A    between atoms: O_25  and  C_26
REMARK                            x       y       z     vdW  Elec       q    Type
REMARK                         _______ _______ _______ _____ _____    ______ ____
ROOT
ATOM      1  N   UNL     1       3.632   4.887  19.091  0.00  0.00    +0.000 NA
ENDROOT
BRANCH   1   2
ATOM      2  C   UNL     1       2.846   3.569  18.841  0.00  0.00    +0.000 C 
ATOM      3  C   UNL     1       3.172   2.456  19.861  0.00  0.00    +0.000 C 
ATOM      4  C   UNL     1       2.667   2.788  21.264  0.00  0.00    +0.000 C 
ATOM      5  C   UNL     1       1.150   2.936  21.265  0.00  0.00    +0.000 C 
ATOM      6  C   UNL     1       0.693   3.956  20.229  0.00  0.00    +0.000 C 
ATOM      7  C   UNL     1       1.306   3.702  18.852  0.00  0.00    +0.000 C 
ENDBRANCH   1   2
BRANCH   1   8
ATOM      8  S   UNL     1       5.391   4.573  18.987  0.00  0.00    +0.000 S 
ATOM      9  O   UNL     1       6.108   5.660  19.615  0.00  0.00    +0.000 OA
ATOM     10  O   UNL     1       5.592   3.198  19.412  0.00  0.00    +0.000 OA
BRANCH   8  11
ATOM     11  C   UNL     1       5.814   4.652  17.254  0.00  0.00    +0.000 A 
ATOM     12  C   UNL     1       5.158   3.811  16.359  0.00  0.00    +0.000 A 
ATOM     13  C   UNL     1       5.537   3.822  15.015  0.00  0.00    +0.000 A 
ATOM     14  C   UNL     1       6.544   4.682  14.555  0.00  0.00    +0.000 A 
ATOM     15  C   UNL     1       7.152   5.565  15.447  0.00  0.00    +0.000 A 
ATOM     16  C   UNL     1       6.785   5.555  16.799  0.00  0.00    +0.000 A 
BRANCH  14  17
ATOM     17  O   UNL     1       6.850   4.532  13.231  0.00  0.00    +0.000 OA
ATOM     18  C   UNL     1       6.239   3.450  12.538  0.00  0.00    +0.000 C 
ENDBRANCH  14  17
ENDBRANCH   8  11
ENDBRANCH   1   8
BRANCH   1  19
ATOM     19  C   UNL     1       3.307   5.961  18.080  0.00  0.00    +0.000 C 
BRANCH  19  23
ATOM     20  C   UNL     1       1.131   9.510  19.333  0.00  0.00    +0.000 A 
ATOM     21  C   UNL     1       1.739   9.450  18.068  0.00  0.00    +0.000 A 
ATOM     22  C   UNL     1       2.472   8.329  17.654  0.00  0.00    +0.000 A 
ATOM     23  C   UNL     1       2.676   7.258  18.525  0.00  0.00    +0.000 A 
ATOM     24  C   UNL     1       2.159   7.351  19.825  0.00  0.00    +0.000 A 
ATOM     25  C   UNL     1       1.399   8.458  20.218  0.00  0.00    +0.000 A 
BRANCH  20  26
ATOM     26  N   UNL     1       0.228  10.527  19.725  0.00  0.00    +0.000 N 
BRANCH  26  28
ATOM     27  C   UNL     1      -0.403  11.492  21.924  0.00  0.00    +0.000 C 
ATOM     28  C   UNL     1      -0.493  10.293  20.990  0.00  0.00    +0.000 C 
ENDBRANCH  26  28
BRANCH  26  29
ATOM     29  C   UNL     1      -0.538  11.063  18.581  0.00  0.00    +0.000 C 
ATOM     30  C   UNL     1      -1.888  10.383  18.402  0.00  0.00    +0.000 C 
ENDBRANCH  26  29
ENDBRANCH  20  26
ENDBRANCH  19  23
ENDBRANCH   1  19
TORSDOF 9
ENDMDL
MODEL 2
REMARK VINA RESULT:      -8.5      0.413      1.172
REMARK  Name = 
REMARK  12 active torsions:
REMARK  status: ('A' for Active; 'I' for Inactive)
REMARK    1  A    between atoms: C_1  and  C_2
REMARK    2  A    between atoms: C_2  and  N_3
REMARK    3  A    between atoms: N_3  and  C_4
REMARK    4  A    between atoms: N_3  and  C_6
REMARK    5  A    between atoms: C_4  and  C_5
REMARK    6  A    between atoms: C_9  and  C_10
REMARK    7  A    between atoms: C_10  and  N_11
REMARK    8  A    between atoms: N_11  and  C_12
REMARK    9  A    between atoms: N_11  and  S_18
REMARK   10  A    between atoms: S_18  and  C_21
REMARK   11  A    between atoms: C_24  and  O_25
REMARK   12  A    between atoms: O_25  and  C_26
REMARK                            x       y       z     vdW  Elec       q    Type
REMARK                         _______ _______ _______ _____ _____    ______ ____
ROOT
ATOM      1  N   UNL     1       3.662   4.956  19.144  0.00  0.00    +0.000 NA
ENDROOT
BRANCH   1   2
ATOM      2  C   UNL     1       2.844   3.674  18.824  0.00  0.00    +0.000 C 
ATOM      3  C   UNL     1       3.145   2.499  19.781  0.00  0.00    +0.000 C 
ATOM      4  C   UNL     1       2.650   2.766  21.202  0.00  0.00    +0.000 C 
ATOM      5  C   UNL     1       1.138   2.950  21.215  0.00  0.00    +0.000 C 
ATOM      6  C   UNL     1       0.703   4.036  20.238  0.00  0.00    +0.000 C 
ATOM      7  C   UNL     1       1.308   3.842  18.847  0.00  0.00    +0.000 C 
ENDBRANCH   1   2
BRANCH   1   8
ATOM      8  S   UNL     1       5.413   4.607  19.019  0.00  0.00    +0.000 S 
ATOM      9  O   UNL     1       6.159   5.685  19.628  0.00  0.00    +0.000 OA
ATOM     10  O   UNL     1       5.592   3.232  19.456  0.00  0.00    +0.000 OA
BRANCH   8  11
ATOM     11  C   UNL     1       5.815   4.661  17.281  0.00  0.00    +0.000 A 
ATOM     12  C   UNL     1       5.140   3.813  16.404  0.00  0.00    +0.000 A 
ATOM     13  C   UNL     1       5.502   3.805  15.056  0.00  0.00    +0.000 A 
ATOM     14  C   UNL     1       6.511   4.651  14.573  0.00  0.00    +0.000 A 
ATOM     15  C   UNL     1       7.137   5.540  15.445  0.00  0.00    +0.000 A 
ATOM     16  C   UNL     1       6.787   5.550  16.802  0.00  0.00    +0.000 A 
BRANCH  14  17
ATOM     17  O   UNL     1       6.799   4.481  13.246  0.00  0.00    +0.000 OA
ATOM     18  C   UNL     1       6.139   3.421  12.566  0.00  0.00    +0.000 C 
ENDBRANCH  14  17
ENDBRANCH   8  11
ENDBRANCH   1   8
BRANCH   1  19
ATOM     19  C   UNL     1       3.362   6.091  18.192  0.00  0.00    +0.000 C 
BRANCH  19  23
ATOM     20  C   UNL     1       0.881   9.385  19.568  0.00  0.00    +0.000 A 
ATOM     21  C   UNL     1       1.440   9.397  18.279  0.00  0.00    +0.000 A 
ATOM     22  C   UNL     1       2.269   8.362  17.824  0.00  0.00    +0.000 A 
ATOM     23  C   UNL     1       2.618   7.312  18.676  0.00  0.00    +0.000 A 
ATOM     24  C   UNL     1       2.148   7.343  19.996  0.00  0.00    +0.000 A 
ATOM     25  C   UNL     1       1.294   8.361  20.431  0.00  0.00    +0.000 A 
BRANCH  20  26
ATOM     26  N   UNL     1      -0.106  10.300  20.006  0.00  0.00    +0.000 N 
BRANCH  26  28
ATOM     27  C   UNL     1      -0.581  12.486  18.930  0.00  0.00    +0.000 C 
ATOM     28  C   UNL     1      -0.861  10.989  18.943  0.00  0.00    +0.000 C 
ENDBRANCH  26  28
BRANCH  26  29
ATOM     29  C   UNL     1       0.351  11.101  21.161  0.00  0.00    +0.000 C 
ATOM     30  C   UNL     1      -0.514  10.903  22.398  0.00  0.00    +0.000 C 
ENDBRANCH  26  29
ENDBRANCH  20  26
ENDBRANCH  19  23
ENDBRANCH   1  19
TORSDOF 9
ENDMDL
MODEL 3
REMARK VINA RESULT:      -8.3      0.746      1.561
REMARK  Name = 
REMARK  12 active torsions:
REMARK  status: ('A' for Active; 'I' for Inactive)
REMARK    1  A    between atoms: C_1  and  C_2
REMARK    2  A    between atoms: C_2  and  N_3
REMARK    3  A    between atoms: N_3  and  C_4
REMARK    4  A    between atoms: N_3  and  C_6
REMARK    5  A    between atoms: C_4  and  C_5
REMARK    6  A    between atoms: C_9  and  C_10
REMARK    7  A    between atoms: C_10  and  N_11
REMARK    8  A    between atoms: N_11  and  C_12
REMARK    9  A    between atoms: N_11  and  S_18
REMARK   10  A    between atoms: S_18  and  C_21
REMARK   11  A    between atoms: C_24  and  O_25
REMARK   12  A    between atoms: O_25  and  C_26
REMARK                            x       y       z     vdW  Elec       q    Type
REMARK                         _______ _______ _______ _____ _____    ______ ____
ROOT
ATOM      1  N   UNL     1       3.742   5.023  19.159  0.00  0.00    +0.000 NA
ENDROOT
BRANCH   1   2
ATOM      2  C   UNL     1       2.888   3.772  18.809  0.00  0.00    +0.000 C 
ATOM      3  C   UNL     1       3.184   2.554  19.711  0.00  0.00    +0.000 C 
ATOM      4  C   UNL     1       2.729   2.774  21.153  0.00  0.00    +0.000 C 
ATOM      5  C   UNL     1       1.222   2.991  21.210  0.00  0.00    +0.000 C 
ATOM      6  C   UNL     1       0.789   4.125  20.287  0.00  0.00    +0.000 C 
ATOM      7  C   UNL     1       1.357   3.974  18.875  0.00  0.00    +0.000 C 
ENDBRANCH   1   2
BRANCH   1   8
ATOM      8  S   UNL     1       5.483   4.622  19.037  0.00  0.00    +0.000 S 
ATOM      9  O   UNL     1       6.259   5.678  19.649  0.00  0.00    +0.000 OA
ATOM     10  O   UNL     1       5.621   3.242  19.472  0.00  0.00    +0.000 OA
BRANCH   8  11
ATOM     11  C   UNL     1       5.889   4.668  17.300  0.00  0.00    +0.000 A 
ATOM     12  C   UNL     1       5.354   3.698  16.455  0.00  0.00    +0.000 A 
ATOM     13  C   UNL     1       5.726   3.690  15.109  0.00  0.00    +0.000 A 
ATOM     14  C   UNL     1       6.605   4.655  14.597  0.00  0.00    +0.000 A 
ATOM     15  C   UNL     1       7.087   5.659  15.436  0.00  0.00    +0.000 A 
ATOM     16  C   UNL     1       6.727   5.670  16.790  0.00  0.00    +0.000 A 
BRANCH  14  17
ATOM     17  O   UNL     1       6.927   4.478  13.279  0.00  0.00    +0.000 OA
ATOM     18  C   UNL     1       6.189   3.504  12.552  0.00  0.00    +0.000 C 
ENDBRANCH  14  17
ENDBRANCH   8  11
ENDBRANCH   1   8
BRANCH   1  19
ATOM     19  C   UNL     1       3.483   6.185  18.230  0.00  0.00    +0.000 C 
BRANCH  19  23
ATOM     20  C   UNL     1       1.042   9.591  19.386  0.00  0.00    +0.000 A 
ATOM     21  C   UNL     1       1.319   8.564  20.302  0.00  0.00    +0.000 A 
ATOM     22  C   UNL     1       2.078   7.440  19.944  0.00  0.00    +0.000 A 
ATOM     23  C   UNL     1       2.525   7.280  18.631  0.00  0.00    +0.000 A 
ATOM     24  C   UNL     1       2.167   8.250  17.684  0.00  0.00    +0.000 A 
ATOM     25  C   UNL     1       1.440   9.385  18.058  0.00  0.00    +0.000 A 
BRANCH  20  26
ATOM     26  N   UNL     1       0.449  10.826  19.743  0.00  0.00    +0.000 N 
BRANCH  26  28
ATOM     27  C   UNL     1      -1.697  10.526  18.533  0.00  0.00    +0.000 C 
ATOM     28  C   UNL     1      -0.475  11.406  18.751  0.00  0.00    +0.000 C 
ENDBRANCH  26  28
BRANCH  26  29
ATOM     29  C   UNL     1       1.409  11.732  20.408  0.00  0.00    +0.000 C 
ATOM     30  C   UNL     1       1.776  12.937  19.553  0.00  0.00    +0.000 C 
ENDBRANCH  26  29
ENDBRANCH  20  26
ENDBRANCH  19  23
ENDBRANCH   1  19
TORSDOF 9
ENDMDL
MODEL 4
REMARK VINA RESULT:      -8.3      1.944      2.979
REMARK  Name = 
REMARK  12 active torsions:
REMARK  status: ('A' for Active; 'I' for Inactive)
REMARK    1  A    between atoms: C_1  and  C_2
REMARK    2  A    between atoms: C_2  and  N_3
REMARK    3  A    between atoms: N_3  and  C_4
REMARK    4  A    between atoms: N_3  and  C_6
REMARK    5  A    between atoms: C_4  and  C_5
REMARK    6  A    between atoms: C_9  and  C_10
REMARK    7  A    between atoms: C_10  and  N_11
REMARK    8  A    between atoms: N_11  and  C_12
REMARK    9  A    between atoms: N_11  and  S_18
REMARK   10  A    between atoms: S_18  and  C_21
REMARK   11  A    between atoms: C_24  and  O_25
REMARK   12  A    between atoms: O_25  and  C_26
REMARK                            x       y       z     vdW  Elec       q    Type
REMARK                         _______ _______ _______ _____ _____    ______ ____
ROOT
ATOM      1  N   UNL     1       3.523   4.678  18.651  0.00  0.00    +0.000 NA
ENDROOT
BRANCH   1   2
ATOM      2  C   UNL     1       2.531   3.486  18.552  0.00  0.00    +0.000 C 
ATOM      3  C   UNL     1       2.924   2.286  19.442  0.00  0.00    +0.000 C 
ATOM      4  C   UNL     1       2.793   2.600  20.932  0.00  0.00    +0.000 C 
ATOM      5  C   UNL     1       1.349   2.937  21.282  0.00  0.00    +0.000 C 
ATOM      6  C   UNL     1       0.813   4.062  20.404  0.00  0.00    +0.000 C 
ATOM      7  C   UNL     1       1.065   3.810  18.917  0.00  0.00    +0.000 C 
ENDBRANCH   1   2
BRANCH   1   8
ATOM      8  S   UNL     1       5.131   4.182  18.042  0.00  0.00    +0.000 S 
ATOM      9  O   UNL     1       5.755   3.301  19.004  0.00  0.00    +0.000 OA
ATOM     10  O   UNL     1       4.942   3.769  16.661  0.00  0.00    +0.000 OA
BRANCH   8  11
ATOM     11  C   UNL     1       6.137   5.657  18.014  0.00  0.00    +0.000 A 
ATOM     12  C   UNL     1       5.793   6.692  17.148  0.00  0.00    +0.000 A 
ATOM     13  C   UNL     1       6.618   7.817  17.074  0.00  0.00    +0.000 A 
ATOM     14  C   UNL     1       7.764   7.926  17.874  0.00  0.00    +0.000 A 
ATOM     15  C   UNL     1       8.066   6.912  18.783  0.00  0.00    +0.000 A 
ATOM     16  C   UNL     1       7.250   5.776  18.858  0.00  0.00    +0.000 A 
BRANCH  14  17
ATOM     17  O   UNL     1       8.506   9.052  17.643  0.00  0.00    +0.000 OA
ATOM     18  C   UNL     1       8.904   9.815  18.774  0.00  0.00    +0.000 C 
ENDBRANCH  14  17
ENDBRANCH   8  11
ENDBRANCH   1   8
BRANCH   1  19
ATOM     19  C   UNL     1       3.083   5.871  17.835  0.00  0.00    +0.000 C 
BRANCH  19  23
ATOM     20  C   UNL     1       1.136   9.200  19.841  0.00  0.00    +0.000 A 
ATOM     21  C   UNL     1       1.442   9.268  18.472  0.00  0.00    +0.000 A 
ATOM     22  C   UNL     1       2.098   8.220  17.810  0.00  0.00    +0.000 A 
ATOM     23  C   UNL     1       2.528   7.097  18.519  0.00  0.00    +0.000 A 
ATOM     24  C   UNL     1       2.318   7.065  19.905  0.00  0.00    +0.000 A 
ATOM     25  C   UNL     1       1.633   8.099  20.551  0.00  0.00    +0.000 A 
BRANCH  20  26
ATOM     26  N   UNL     1       0.313  10.138  20.511  0.00  0.00    +0.000 N 
BRANCH  26  28
ATOM     27  C   UNL     1       1.207  12.433  20.199  0.00  0.00    +0.000 C 
ATOM     28  C   UNL     1       0.124  11.430  19.826  0.00  0.00    +0.000 C 
ENDBRANCH  26  28
BRANCH  26  29
ATOM     29  C   UNL     1       0.563  10.157  21.967  0.00  0.00    +0.000 C 
ATOM     30  C   UNL     1      -0.546   9.486  22.767  0.00  0.00    +0.000 C 
ENDBRANCH  26  29
ENDBRANCH  20  26
ENDBRANCH  19  23
ENDBRANCH   1  19
TORSDOF 9
ENDMDL
MODEL 5
REMARK VINA RESULT:      -8.2      0.749      1.458
REMARK  Name = 
REMARK  12 active torsions:
REMARK  status: ('A' for Active; 'I' for Inactive)
REMARK    1  A    between atoms: C_1  and  C_2
REMARK    2  A    between atoms: C_2  and  N_3
REMARK    3  A    between atoms: N_3  and  C_4
REMARK    4  A    between atoms: N_3  and  C_6
REMARK    5  A    between atoms: C_4  and  C_5
REMARK    6  A    between atoms: C_9  and  C_10
REMARK    7  A    between atoms: C_10  and  N_11
REMARK    8  A    between atoms: N_11  and  C_12
REMARK    9  A    between atoms: N_11  and  S_18
REMARK   10  A    between atoms: S_18  and  C_21
REMARK   11  A    between atoms: C_24  and  O_25
REMARK   12  A    between atoms: O_25  and  C_26
REMARK                            x       y       z     vdW  Elec       q    Type
REMARK                         _______ _______ _______ _____ _____    ______ ____
ROOT
ATOM      1  N   UNL     1       3.766   5.052  19.189  0.00  0.00    +0.000 NA
ENDROOT
BRANCH   1   2
ATOM      2  C   UNL     1       2.895   3.829  18.788  0.00  0.00    +0.000 C 
ATOM      3  C   UNL     1       3.152   2.579  19.659  0.00  0.00    +0.000 C 
ATOM      4  C   UNL     1       2.675   2.767  21.099  0.00  0.00    +0.000 C 
ATOM      5  C   UNL     1       1.172   3.012  21.136  0.00  0.00    +0.000 C 
ATOM      6  C   UNL     1       0.777   4.179  20.240  0.00  0.00    +0.000 C 
ATOM      7  C   UNL     1       1.367   4.058  18.834  0.00  0.00    +0.000 C 
ENDBRANCH   1   2
BRANCH   1   8
ATOM      8  S   UNL     1       5.500   4.615  19.106  0.00  0.00    +0.000 S 
ATOM      9  O   UNL     1       6.292   5.702  19.636  0.00  0.00    +0.000 OA
ATOM     10  O   UNL     1       5.614   3.271  19.650  0.00  0.00    +0.000 OA
BRANCH   8  11
ATOM     11  C   UNL     1       5.912   4.515  17.372  0.00  0.00    +0.000 A 
ATOM     12  C   UNL     1       6.999   5.244  16.893  0.00  0.00    +0.000 A 
ATOM     13  C   UNL     1       7.280   5.222  15.526  0.00  0.00    +0.000 A 
ATOM     14  C   UNL     1       6.503   4.462  14.640  0.00  0.00    +0.000 A 
ATOM     15  C   UNL     1       5.456   3.687  15.137  0.00  0.00    +0.000 A 
ATOM     16  C   UNL     1       5.160   3.709  16.507  0.00  0.00    +0.000 A 
BRANCH  14  17
ATOM     17  O   UNL     1       6.859   4.594  13.326  0.00  0.00    +0.000 OA
ATOM     18  C   UNL     1       6.394   3.600  12.421  0.00  0.00    +0.000 C 
ENDBRANCH  14  17
ENDBRANCH   8  11
ENDBRANCH   1   8
BRANCH   1  19
ATOM     19  C   UNL     1       3.559   6.239  18.278  0.00  0.00    +0.000 C 
BRANCH  19  23
ATOM     20  C   UNL     1       0.981   9.587  19.300  0.00  0.00    +0.000 A 
ATOM     21  C   UNL     1       1.324   8.625  20.265  0.00  0.00    +0.000 A 
ATOM     22  C   UNL     1       2.128   7.520  19.951  0.00  0.00    +0.000 A 
ATOM     23  C   UNL     1       2.558   7.309  18.640  0.00  0.00    +0.000 A 
ATOM     24  C   UNL     1       2.137   8.208  17.650  0.00  0.00    +0.000 A 
ATOM     25  C   UNL     1       1.364   9.327  17.978  0.00  0.00    +0.000 A 
BRANCH  20  26
ATOM     26  N   UNL     1       0.338  10.811  19.603  0.00  0.00    +0.000 N 
BRANCH  26  28
ATOM     27  C   UNL     1       1.724  12.643  20.544  0.00  0.00    +0.000 C 
ATOM     28  C   UNL     1       0.784  11.482  20.838  0.00  0.00    +0.000 C 
ENDBRANCH  26  28
BRANCH  26  29
ATOM     29  C   UNL     1      -1.113  10.760  19.329  0.00  0.00    +0.000 C 
ATOM     30  C   UNL     1      -1.813  12.086  19.592  0.00  0.00    +0.000 C 
ENDBRANCH  26  29
ENDBRANCH  20  26
ENDBRANCH  19  23
ENDBRANCH   1  19
TORSDOF 9
ENDMDL
MODEL 6
REMARK VINA RESULT:      -8.2      1.239      1.880
REMARK  Name = 
REMARK  12 active torsions:
REMARK  status: ('A' for Active; 'I' for Inactive)
REMARK    1  A    between atoms: C_1  and  C_2
REMARK    2  A    between atoms: C_2  and  N_3
REMARK    3  A    between atoms: N_3  and  C_4
REMARK    4  A    between atoms: N_3  and  C_6
REMARK    5  A    between atoms: C_4  and  C_5
REMARK    6  A    between atoms: C_9  and  C_10
REMARK    7  A    between atoms: C_10  and  N_11
REMARK    8  A    between atoms: N_11  and  C_12
REMARK    9  A    between atoms: N_11  and  S_18
REMARK   10  A    between atoms: S_18  and  C_21
REMARK   11  A    between atoms: C_24  and  O_25
REMARK   12  A    between atoms: O_25  and  C_26
REMARK                            x       y       z     vdW  Elec       q    Type
REMARK                         _______ _______ _______ _____ _____    ______ ____
ROOT
ATOM      1  N   UNL     1       4.305   5.027  18.434  0.00  0.00    +0.000 NA
ENDROOT
BRANCH   1   2
ATOM      2  C   UNL     1       3.836   3.601  18.031  0.00  0.00    +0.000 C 
ATOM      3  C   UNL     1       4.015   2.555  19.153  0.00  0.00    +0.000 C 
ATOM      4  C   UNL     1       3.077   2.804  20.334  0.00  0.00    +0.000 C 
ATOM      5  C   UNL     1       1.623   2.709  19.889  0.00  0.00    +0.000 C 
ATOM      6  C   UNL     1       1.339   3.642  18.718  0.00  0.00    +0.000 C 
ATOM      7  C   UNL     1       2.359   3.487  17.590  0.00  0.00    +0.000 C 
ENDBRANCH   1   2
BRANCH   1   8
ATOM      8  S   UNL     1       6.028   5.245  18.001  0.00  0.00    +0.000 S 
ATOM      9  O   UNL     1       6.375   6.645  18.111  0.00  0.00    +0.000 OA
ATOM     10  O   UNL     1       6.770   4.230  18.730  0.00  0.00    +0.000 OA
BRANCH   8  11
ATOM     11  C   UNL     1       6.164   4.849  16.265  0.00  0.00    +0.000 A 
ATOM     12  C   UNL     1       5.114   4.180  15.640  0.00  0.00    +0.000 A 
ATOM     13  C   UNL     1       5.249   3.807  14.301  0.00  0.00    +0.000 A 
ATOM     14  C   UNL     1       6.408   4.119  13.578  0.00  0.00    +0.000 A 
ATOM     15  C   UNL     1       7.428   4.843  14.193  0.00  0.00    +0.000 A 
ATOM     16  C   UNL     1       7.307   5.214  15.539  0.00  0.00    +0.000 A 
BRANCH  14  17
ATOM     17  O   UNL     1       6.421   3.631  12.300  0.00  0.00    +0.000 OA
ATOM     18  C   UNL     1       5.231   3.012  11.826  0.00  0.00    +0.000 C 
ENDBRANCH  14  17
ENDBRANCH   8  11
ENDBRANCH   1   8
BRANCH   1  19
ATOM     19  C   UNL     1       3.525   6.117  17.736  0.00  0.00    +0.000 C 
BRANCH  19  23
ATOM     20  C   UNL     1       1.203   8.976  20.045  0.00  0.00    +0.000 A 
ATOM     21  C   UNL     1       1.590   7.748  20.605  0.00  0.00    +0.000 A 
ATOM     22  C   UNL     1       2.313   6.796  19.870  0.00  0.00    +0.000 A 
ATOM     23  C   UNL     1       2.610   7.021  18.525  0.00  0.00    +0.000 A 
ATOM     24  C   UNL     1       2.139   8.199  17.928  0.00  0.00    +0.000 A 
ATOM     25  C   UNL     1       1.450   9.158  18.677  0.00  0.00    +0.000 A 
BRANCH  20  26
ATOM     26  N   UNL     1       0.644  10.041  20.792  0.00  0.00    +0.000 N 
BRANCH  26  28
ATOM     27  C   UNL     1      -0.356  12.111  19.855  0.00  0.00    +0.000 C 
ATOM     28  C   UNL     1       0.920  11.397  20.281  0.00  0.00    +0.000 C 
ENDBRANCH  26  28
BRANCH  26  29
ATOM     29  C   UNL     1       0.750   9.815  22.248  0.00  0.00    +0.000 C 
ATOM     30  C   UNL     1      -0.602   9.820  22.948  0.00  0.00    +0.000 C 
ENDBRANCH  26  29
ENDBRANCH  20  26
ENDBRANCH  19  23
ENDBRANCH   1  19
TORSDOF 9
ENDMDL
MODEL 7
REMARK VINA RESULT:      -8.1      0.711      1.460
REMARK  Name = 
REMARK  12 active torsions:
REMARK  status: ('A' for Active; 'I' for Inactive)
REMARK    1  A    between atoms: C_1  and  C_2
REMARK    2  A    between atoms: C_2  and  N_3
REMARK    3  A    between atoms: N_3  and  C_4
REMARK    4  A    between atoms: N_3  and  C_6
REMARK    5  A    between atoms: C_4  and  C_5
REMARK    6  A    between atoms: C_9  and  C_10
REMARK    7  A    between atoms: C_10  and  N_11
REMARK    8  A    between atoms: N_11  and  C_12
REMARK    9  A    between atoms: N_11  and  S_18
REMARK   10  A    between atoms: S_18  and  C_21
REMARK   11  A    between atoms: C_24  and  O_25
REMARK   12  A    between atoms: O_25  and  C_26
REMARK                            x       y       z     vdW  Elec       q    Type
REMARK                         _______ _______ _______ _____ _____    ______ ____
ROOT
ATOM      1  N   UNL     1       3.749   4.852  19.084  0.00  0.00    +0.000 NA
ENDROOT
BRANCH   1   2
ATOM      2  C   UNL     1       3.084   3.458  18.908  0.00  0.00    +0.000 C 
ATOM      3  C   UNL     1       3.382   2.485  20.070  0.00  0.00    +0.000 C 
ATOM      4  C   UNL     1       2.716   2.919  21.376  0.00  0.00    +0.000 C 
ATOM      5  C   UNL     1       1.201   2.947  21.220  0.00  0.00    +0.000 C 
ATOM      6  C   UNL     1       0.781   3.815  20.040  0.00  0.00    +0.000 C 
ATOM      7  C   UNL     1       1.546   3.470  18.762  0.00  0.00    +0.000 C 
ENDBRANCH   1   2
BRANCH   1   8
ATOM      8  S   UNL     1       5.528   4.696  18.959  0.00  0.00    +0.000 S 
ATOM      9  O   UNL     1       6.144   5.951  19.329  0.00  0.00    +0.000 OA
ATOM     10  O   UNL     1       5.883   3.459  19.635  0.00  0.00    +0.000 OA
BRANCH   8  11
ATOM     11  C   UNL     1       5.893   4.470  17.227  0.00  0.00    +0.000 A 
ATOM     12  C   UNL     1       6.898   5.237  16.642  0.00  0.00    +0.000 A 
ATOM     13  C   UNL     1       7.138   5.111  15.272  0.00  0.00    +0.000 A 
ATOM     14  C   UNL     1       6.402   4.211  14.490  0.00  0.00    +0.000 A 
ATOM     15  C   UNL     1       5.440   3.402  15.095  0.00  0.00    +0.000 A 
ATOM     16  C   UNL     1       5.186   3.527  16.467  0.00  0.00    +0.000 A 
BRANCH  14  17
ATOM     17  O   UNL     1       6.704   4.248  13.156  0.00  0.00    +0.000 OA
ATOM     18  C   UNL     1       5.941   3.417  12.290  0.00  0.00    +0.000 C 
ENDBRANCH  14  17
ENDBRANCH   8  11
ENDBRANCH   1   8
BRANCH   1  19
ATOM     19  C   UNL     1       3.311   5.844  18.032  0.00  0.00    +0.000 C 
BRANCH  19  23
ATOM     20  C   UNL     1       1.312   9.541  19.144  0.00  0.00    +0.000 A 
ATOM     21  C   UNL     1       2.008   9.439  17.929  0.00  0.00    +0.000 A 
ATOM     22  C   UNL     1       2.687   8.268  17.562  0.00  0.00    +0.000 A 
ATOM     23  C   UNL     1       2.745   7.183  18.438  0.00  0.00    +0.000 A 
ATOM     24  C   UNL     1       2.139   7.311  19.696  0.00  0.00    +0.000 A 
ATOM     25  C   UNL     1       1.435   8.470  20.040  0.00  0.00    +0.000 A 
BRANCH  20  26
ATOM     26  N   UNL     1       0.459  10.621  19.476  0.00  0.00    +0.000 N 
BRANCH  26  28
ATOM     27  C   UNL     1      -1.458  10.298  17.933  0.00  0.00    +0.000 C 
ATOM     28  C   UNL     1      -0.987  10.350  19.379  0.00  0.00    +0.000 C 
ENDBRANCH  26  28
BRANCH  26  29
ATOM     29  C   UNL     1       0.959  11.907  18.946  0.00  0.00    +0.000 C 
ATOM     30  C   UNL     1       0.318  13.113  19.618  0.00  0.00    +0.000 C 
ENDBRANCH  26  29
ENDBRANCH  20  26
ENDBRANCH  19  23
ENDBRANCH   1  19
TORSDOF 9
ENDMDL
MODEL 8
REMARK VINA RESULT:      -8.1      1.877      2.934
REMARK  Name = 
REMARK  12 active torsions:
REMARK  status: ('A' for Active; 'I' for Inactive)
REMARK    1  A    between atoms: C_1  and  C_2
REMARK    2  A    between atoms: C_2  and  N_3
REMARK    3  A    between atoms: N_3  and  C_4
REMARK    4  A    between atoms: N_3  and  C_6
REMARK    5  A    between atoms: C_4  and  C_5
REMARK    6  A    between atoms: C_9  and  C_10
REMARK    7  A    between atoms: C_10  and  N_11
REMARK    8  A    between atoms: N_11  and  C_12
REMARK    9  A    between atoms: N_11  and  S_18
REMARK   10  A    between atoms: S_18  and  C_21
REMARK   11  A    between atoms: C_24  and  O_25
REMARK   12  A    between atoms: O_25  and  C_26
REMARK                            x       y       z     vdW  Elec       q    Type
REMARK                         _______ _______ _______ _____ _____    ______ ____
ROOT
ATOM      1  N   UNL     1       3.530   4.623  18.626  0.00  0.00    +0.000 NA
ENDROOT
BRANCH   1   2
ATOM      2  C   UNL     1       2.592   3.383  18.651  0.00  0.00    +0.000 C 
ATOM      3  C   UNL     1       3.024   2.307  19.671  0.00  0.00    +0.000 C 
ATOM      4  C   UNL     1       2.859   2.777  21.116  0.00  0.00    +0.000 C 
ATOM      5  C   UNL     1       1.397   3.086  21.414  0.00  0.00    +0.000 C 
ATOM      6  C   UNL     1       0.826   4.083  20.413  0.00  0.00    +0.000 C 
ATOM      7  C   UNL     1       1.108   3.680  18.965  0.00  0.00    +0.000 C 
ENDBRANCH   1   2
BRANCH   1   8
ATOM      8  S   UNL     1       5.145   4.149  18.015  0.00  0.00    +0.000 S 
ATOM      9  O   UNL     1       5.773   3.260  18.967  0.00  0.00    +0.000 OA
ATOM     10  O   UNL     1       4.963   3.755  16.628  0.00  0.00    +0.000 OA
BRANCH   8  11
ATOM     11  C   UNL     1       6.137   5.633  18.012  0.00  0.00    +0.000 A 
ATOM     12  C   UNL     1       5.794   6.674  17.151  0.00  0.00    +0.000 A 
ATOM     13  C   UNL     1       6.609   7.806  17.098  0.00  0.00    +0.000 A 
ATOM     14  C   UNL     1       7.745   7.918  17.912  0.00  0.00    +0.000 A 
ATOM     15  C   UNL     1       8.045   6.899  18.816  0.00  0.00    +0.000 A 
ATOM     16  C   UNL     1       7.239   5.755  18.871  0.00  0.00    +0.000 A 
BRANCH  14  17
ATOM     17  O   UNL     1       8.479   9.053  17.699  0.00  0.00    +0.000 OA
ATOM     18  C   UNL     1       8.976   9.733  18.845  0.00  0.00    +0.000 C 
ENDBRANCH  14  17
ENDBRANCH   8  11
ENDBRANCH   1   8
BRANCH   1  19
ATOM     19  C   UNL     1       3.016   5.724  17.729  0.00  0.00    +0.000 C 
BRANCH  19  23
ATOM     20  C   UNL     1       1.412   9.387  19.434  0.00  0.00    +0.000 A 
ATOM     21  C   UNL     1       1.842   9.347  18.098  0.00  0.00    +0.000 A 
ATOM     22  C   UNL     1       2.392   8.186  17.534  0.00  0.00    +0.000 A 
ATOM     23  C   UNL     1       2.590   7.047  18.318  0.00  0.00    +0.000 A 
ATOM     24  C   UNL     1       2.259   7.110  19.678  0.00  0.00    +0.000 A 
ATOM     25  C   UNL     1       1.679   8.260  20.223  0.00  0.00    +0.000 A 
BRANCH  20  26
ATOM     26  N   UNL     1       0.682  10.463  19.994  0.00  0.00    +0.000 N 
BRANCH  26  28
ATOM     27  C   UNL     1      -1.527  11.093  19.051  0.00  0.00    +0.000 C 
ATOM     28  C   UNL     1      -0.777  10.268  20.088  0.00  0.00    +0.000 C 
ENDBRANCH  26  28
BRANCH  26  29
ATOM     29  C   UNL     1       1.176  11.775  19.525  0.00  0.00    +0.000 C 
ATOM     30  C   UNL     1       1.455  12.744  20.666  0.00  0.00    +0.000 C 
ENDBRANCH  26  29
ENDBRANCH  20  26
ENDBRANCH  19  23
ENDBRANCH   1  19
TORSDOF 9
ENDMDL
MODEL 9
REMARK VINA RESULT:      -8.1      2.161      3.388
REMARK  Name = 
REMARK  12 active torsions:
REMARK  status: ('A' for Active; 'I' for Inactive)
REMARK    1  A    between atoms: C_1  and  C_2
REMARK    2  A    between atoms: C_2  and  N_3
REMARK    3  A    between atoms: N_3  and  C_4
REMARK    4  A    between atoms: N_3  and  C_6
REMARK    5  A    between atoms: C_4  and  C_5
REMARK    6  A    between atoms: C_9  and  C_10
REMARK    7  A    between atoms: C_10  and  N_11
REMARK    8  A    between atoms: N_11  and  C_12
REMARK    9  A    between atoms: N_11  and  S_18
REMARK   10  A    between atoms: S_18  and  C_21
REMARK   11  A    between atoms: C_24  and  O_25
REMARK   12  A    between atoms: O_25  and  C_26
REMARK                            x       y       z     vdW  Elec       q    Type
REMARK                         _______ _______ _______ _____ _____    ______ ____
ROOT
ATOM      1  N   UNL     1       4.157   4.425  18.043  0.00  0.00    +0.000 NA
ENDROOT
BRANCH   1   2
ATOM      2  C   UNL     1       3.868   2.901  18.140  0.00  0.00    +0.000 C 
ATOM      3  C   UNL     1       4.063   2.327  19.561  0.00  0.00    +0.000 C 
ATOM      4  C   UNL     1       3.015   2.846  20.545  0.00  0.00    +0.000 C 
ATOM      5  C   UNL     1       1.617   2.430  20.106  0.00  0.00    +0.000 C 
ATOM      6  C   UNL     1       1.332   2.868  18.674  0.00  0.00    +0.000 C 
ATOM      7  C   UNL     1       2.448   2.465  17.710  0.00  0.00    +0.000 C 
ENDBRANCH   1   2
BRANCH   1   8
ATOM      8  S   UNL     1       5.421   4.726  16.812  0.00  0.00    +0.000 S 
ATOM      9  O   UNL     1       6.245   3.546  16.677  0.00  0.00    +0.000 OA
ATOM     10  O   UNL     1       4.748   5.306  15.662  0.00  0.00    +0.000 OA
BRANCH   8  11
ATOM     11  C   UNL     1       6.489   5.988  17.486  0.00  0.00    +0.000 A 
ATOM     12  C   UNL     1       6.458   7.266  16.932  0.00  0.00    +0.000 A 
ATOM     13  C   UNL     1       7.342   8.234  17.411  0.00  0.00    +0.000 A 
ATOM     14  C   UNL     1       8.236   7.945  18.452  0.00  0.00    +0.000 A 
ATOM     15  C   UNL     1       8.218   6.682  19.042  0.00  0.00    +0.000 A 
ATOM     16  C   UNL     1       7.340   5.700  18.562  0.00  0.00    +0.000 A 
BRANCH  14  17
ATOM     17  O   UNL     1       9.084   8.972  18.766  0.00  0.00    +0.000 OA
ATOM     18  C   UNL     1       8.623  10.295  18.523  0.00  0.00    +0.000 C 
ENDBRANCH  14  17
ENDBRANCH   8  11
ENDBRANCH   1   8
BRANCH   1  19
ATOM     19  C   UNL     1       2.940   5.225  17.642  0.00  0.00    +0.000 C 
BRANCH  19  23
ATOM     20  C   UNL     1       1.443   8.640  19.876  0.00  0.00    +0.000 A 
ATOM     21  C   UNL     1       1.842   8.779  18.537  0.00  0.00    +0.000 A 
ATOM     22  C   UNL     1       2.358   7.699  17.805  0.00  0.00    +0.000 A 
ATOM     23  C   UNL     1       2.552   6.460  18.418  0.00  0.00    +0.000 A 
ATOM     24  C   UNL     1       2.251   6.339  19.782  0.00  0.00    +0.000 A 
ATOM     25  C   UNL     1       1.705   7.411  20.495  0.00  0.00    +0.000 A 
BRANCH  20  26
ATOM     26  N   UNL     1       0.745   9.639  20.597  0.00  0.00    +0.000 N 
BRANCH  26  28
ATOM     27  C   UNL     1       1.464  12.013  20.706  0.00  0.00    +0.000 C 
ATOM     28  C   UNL     1       0.665  10.961  19.948  0.00  0.00    +0.000 C 
ENDBRANCH  26  28
BRANCH  26  29
ATOM     29  C   UNL     1       1.045   9.594  22.043  0.00  0.00    +0.000 C 
ATOM     30  C   UNL     1      -0.205   9.666  22.909  0.00  0.00    +0.000 C 
ENDBRANCH  26  29
ENDBRANCH  20  26
ENDBRANCH  19  23
ENDBRANCH   1  19
TORSDOF 9
ENDMDL
