MODEL 1
REMARK VINA RESULT:      -7.2      0.000      0.000
REMARK  Name = 
REMARK  2 active torsions:
REMARK  status: ('A' for Active; 'I' for Inactive)
REMARK    1  A    between atoms: C_1  and  O_2
REMARK    2  A    between atoms: O_2  and  C_3
REMARK                            x       y       z     vdW  Elec       q    Type
REMARK                         _______ _______ _______ _____ _____    ______ ____
ROOT
ATOM      1  C   UNL     1       7.493   4.969  13.487  0.00  0.00    +0.000 A 
ATOM      2  C   UNL     1       7.159   4.306  12.290  0.00  0.00    +0.000 A 
ATOM      3  C   UNL     1       5.993   3.552  12.171  0.00  0.00    +0.000 A 
ATOM      4  C   UNL     1       5.122   3.412  13.246  0.00  0.00    +0.000 A 
ATOM      5  C   UNL     1       5.468   4.059  14.433  0.00  0.00    +0.000 A 
ATOM      6  N   UNL     1       4.814   4.053  15.633  0.00  0.00    +0.000 N 
ATOM      7  C   UNL     1       5.426   4.875  16.537  0.00  0.00    +0.000 A 
ATOM      8  C   UNL     1       5.076   5.193  17.846  0.00  0.00    +0.000 A 
ATOM      9  N   UNL     1       3.930   4.681  18.409  0.00  0.00    +0.000 N 
ATOM     10  C   UNL     1       3.859   4.448  19.844  0.00  0.00    +0.000 C 
ATOM     11  C   UNL     1       3.054   3.154  20.040  0.00  0.00    +0.000 C 
ATOM     12  C   UNL     1       1.707   3.178  19.301  0.00  0.00    +0.000 C 
ATOM     13  C   UNL     1       1.844   3.643  17.849  0.00  0.00    +0.000 C 
ATOM     14  C   UNL     1       2.644   4.942  17.771  0.00  0.00    +0.000 C 
ATOM     15  N   UNL     1       5.965   5.935  18.534  0.00  0.00    +0.000 NA
ATOM     16  C   UNL     1       7.073   6.366  17.889  0.00  0.00    +0.000 A 
ATOM     17  N   UNL     1       7.449   6.138  16.618  0.00  0.00    +0.000 NA
ATOM     18  C   UNL     1       6.586   5.346  15.941  0.00  0.00    +0.000 A 
ATOM     19  C   UNL     1       6.617   4.842  14.593  0.00  0.00    +0.000 A 
ATOM     20  H   UNL     1       3.981   3.521  15.835  0.00  0.00    +0.000 HD
ENDROOT
BRANCH   1  22
ATOM     21  C   UNL     1       9.156   6.308  12.467  0.00  0.00    +0.000 C 
ATOM     22  O   UNL     1       8.648   5.693  13.645  0.00  0.00    +0.000 OA
ENDBRANCH   1  22
TORSDOF 1
ENDMDL
MODEL 2
REMARK VINA RESULT:      -6.9      4.251      7.325
REMARK  Name = 
REMARK  2 active torsions:
REMARK  status: ('A' for Active; 'I' for Inactive)
REMARK    1  A    between atoms: C_1  and  O_2
REMARK    2  A    between atoms: O_2  and  C_3
REMARK                            x       y       z     vdW  Elec       q    Type
REMARK                         _______ _______ _______ _____ _____    ______ ____
ROOT
ATOM      1  C   UNL     1       0.670   8.926  20.192  0.00  0.00    +0.000 A 
ATOM      2  C   UNL     1       0.441  10.188  19.608  0.00  0.00    +0.000 A 
ATOM      3  C   UNL     1       1.132  10.604  18.471  0.00  0.00    +0.000 A 
ATOM      4  C   UNL     1       2.091   9.789  17.883  0.00  0.00    +0.000 A 
ATOM      5  C   UNL     1       2.324   8.548  18.477  0.00  0.00    +0.000 A 
ATOM      6  N   UNL     1       3.226   7.585  18.123  0.00  0.00    +0.000 N 
ATOM      7  C   UNL     1       3.097   6.471  18.904  0.00  0.00    +0.000 A 
ATOM      8  C   UNL     1       3.777   5.258  18.861  0.00  0.00    +0.000 A 
ATOM      9  N   UNL     1       4.729   5.020  17.896  0.00  0.00    +0.000 N 
ATOM     10  C   UNL     1       5.846   4.130  18.171  0.00  0.00    +0.000 C 
ATOM     11  C   UNL     1       7.075   4.739  17.477  0.00  0.00    +0.000 C 
ATOM     12  C   UNL     1       6.821   5.051  15.994  0.00  0.00    +0.000 C 
ATOM     13  C   UNL     1       5.509   5.808  15.772  0.00  0.00    +0.000 C 
ATOM     14  C   UNL     1       4.355   5.109  16.489  0.00  0.00    +0.000 C 
ATOM     15  N   UNL     1       3.516   4.395  19.862  0.00  0.00    +0.000 NA
ATOM     16  C   UNL     1       2.577   4.740  20.774  0.00  0.00    +0.000 A 
ATOM     17  N   UNL     1       1.851   5.870  20.848  0.00  0.00    +0.000 NA
ATOM     18  C   UNL     1       2.152   6.761  19.876  0.00  0.00    +0.000 A 
ATOM     19  C   UNL     1       1.641   8.079  19.605  0.00  0.00    +0.000 A 
ATOM     20  H   UNL     1       3.902   7.671  17.379  0.00  0.00    +0.000 HD
ENDROOT
BRANCH   1  22
ATOM     21  C   UNL     1       0.290   9.258  22.504  0.00  0.00    +0.000 C 
ATOM     22  O   UNL     1       0.029   8.500  21.329  0.00  0.00    +0.000 OA
ENDBRANCH   1  22
TORSDOF 1
ENDMDL
MODEL 3
REMARK VINA RESULT:      -6.8      5.457      8.311
REMARK  Name = 
REMARK  2 active torsions:
REMARK  status: ('A' for Active; 'I' for Inactive)
REMARK    1  A    between atoms: C_1  and  O_2
REMARK    2  A    between atoms: O_2  and  C_3
REMARK                            x       y       z     vdW  Elec       q    Type
REMARK                         _______ _______ _______ _____ _____    ______ ____
ROOT
ATOM      1  C   UNL     1       0.515  10.998  20.855  0.00  0.00    +0.000 A 
ATOM      2  C   UNL     1      -0.214  11.281  22.028  0.00  0.00    +0.000 A 
ATOM      3  C   UNL     1      -0.591  10.275  22.916  0.00  0.00    +0.000 A 
ATOM      4  C   UNL     1      -0.275   8.946  22.663  0.00  0.00    +0.000 A 
ATOM      5  C   UNL     1       0.433   8.672  21.491  0.00  0.00    +0.000 A 
ATOM      6  N   UNL     1       0.832   7.463  20.995  0.00  0.00    +0.000 N 
ATOM      7  C   UNL     1       1.575   7.613  19.858  0.00  0.00    +0.000 A 
ATOM      8  C   UNL     1       2.204   6.660  19.061  0.00  0.00    +0.000 A 
ATOM      9  N   UNL     1       2.166   5.327  19.400  0.00  0.00    +0.000 N 
ATOM     10  C   UNL     1       2.216   4.306  18.365  0.00  0.00    +0.000 C 
ATOM     11  C   UNL     1       1.278   3.175  18.816  0.00  0.00    +0.000 C 
ATOM     12  C   UNL     1       1.579   2.692  20.243  0.00  0.00    +0.000 C 
ATOM     13  C   UNL     1       1.722   3.850  21.235  0.00  0.00    +0.000 C 
ATOM     14  C   UNL     1       2.687   4.906  20.695  0.00  0.00    +0.000 C 
ATOM     15  N   UNL     1       2.751   7.111  17.917  0.00  0.00    +0.000 NA
ATOM     16  C   UNL     1       2.711   8.441  17.670  0.00  0.00    +0.000 A 
ATOM     17  N   UNL     1       2.164   9.419  18.415  0.00  0.00    +0.000 NA
ATOM     18  C   UNL     1       1.564   8.962  19.538  0.00  0.00    +0.000 A 
ATOM     19  C   UNL     1       0.850   9.649  20.581  0.00  0.00    +0.000 A 
ATOM     20  H   UNL     1       0.618   6.568  21.409  0.00  0.00    +0.000 HD
ENDROOT
BRANCH   1  22
ATOM     21  C   UNL     1       1.579  13.077  20.476  0.00  0.00    +0.000 C 
ATOM     22  O   UNL     1       0.874  11.961  19.946  0.00  0.00    +0.000 OA
ENDBRANCH   1  22
TORSDOF 1
ENDMDL
MODEL 4
REMARK VINA RESULT:      -6.6      6.146      8.977
REMARK  Name = 
REMARK  2 active torsions:
REMARK  status: ('A' for Active; 'I' for Inactive)
REMARK    1  A    between atoms: C_1  and  O_2
REMARK    2  A    between atoms: O_2  and  C_3
REMARK                            x       y       z     vdW  Elec       q    Type
REMARK                         _______ _______ _______ _____ _____    ______ ____
ROOT
ATOM      1  C   UNL     1      -0.172  11.557  21.182  0.00  0.00    +0.000 A 
ATOM      2  C   UNL     1      -0.850  11.634  22.415  0.00  0.00    +0.000 A 
ATOM      3  C   UNL     1      -1.001  10.518  23.238  0.00  0.00    +0.000 A 
ATOM      4  C   UNL     1      -0.501   9.279  22.856  0.00  0.00    +0.000 A 
ATOM      5  C   UNL     1       0.155   9.208  21.626  0.00  0.00    +0.000 A 
ATOM      6  N   UNL     1       0.700   8.118  21.008  0.00  0.00    +0.000 N 
ATOM      7  C   UNL     1       1.326   8.467  19.845  0.00  0.00    +0.000 A 
ATOM      8  C   UNL     1       2.037   7.688  18.936  0.00  0.00    +0.000 A 
ATOM      9  N   UNL     1       2.231   6.345  19.165  0.00  0.00    +0.000 N 
ATOM     10  C   UNL     1       2.365   5.423  18.047  0.00  0.00    +0.000 C 
ATOM     11  C   UNL     1       1.649   4.127  18.458  0.00  0.00    +0.000 C 
ATOM     12  C   UNL     1       2.123   3.596  19.820  0.00  0.00    +0.000 C 
ATOM     13  C   UNL     1       2.155   4.688  20.894  0.00  0.00    +0.000 C 
ATOM     14  C   UNL     1       2.904   5.921  20.387  0.00  0.00    +0.000 C 
ATOM     15  N   UNL     1       2.424   8.303  17.803  0.00  0.00    +0.000 NA
ATOM     16  C   UNL     1       2.160   9.624  17.670  0.00  0.00    +0.000 A 
ATOM     17  N   UNL     1       1.523  10.445  18.525  0.00  0.00    +0.000 NA
ATOM     18  C   UNL     1       1.084   9.817  19.639  0.00  0.00    +0.000 A 
ATOM     19  C   UNL     1       0.348  10.303  20.776  0.00  0.00    +0.000 A 
ATOM     20  H   UNL     1       0.658   7.173  21.359  0.00  0.00    +0.000 HD
ENDROOT
BRANCH   1  22
ATOM     21  C   UNL     1      -0.353  13.898  20.892  0.00  0.00    +0.000 C 
ATOM     22  O   UNL     1      -0.034  12.628  20.336  0.00  0.00    +0.000 OA
ENDBRANCH   1  22
TORSDOF 1
ENDMDL
MODEL 5
REMARK VINA RESULT:      -6.6      4.349      6.708
REMARK  Name = 
REMARK  2 active torsions:
REMARK  status: ('A' for Active; 'I' for Inactive)
REMARK    1  A    between atoms: C_1  and  O_2
REMARK    2  A    between atoms: O_2  and  C_3
REMARK                            x       y       z     vdW  Elec       q    Type
REMARK                         _______ _______ _______ _____ _____    ______ ____
ROOT
ATOM      1  C   UNL     1       3.688   3.837  19.136  0.00  0.00    +0.000 A 
ATOM      2  C   UNL     1       3.627   2.717  19.990  0.00  0.00    +0.000 A 
ATOM      3  C   UNL     1       2.908   2.745  21.184  0.00  0.00    +0.000 A 
ATOM      4  C   UNL     1       2.238   3.894  21.585  0.00  0.00    +0.000 A 
ATOM      5  C   UNL     1       2.316   5.004  20.742  0.00  0.00    +0.000 A 
ATOM      6  N   UNL     1       1.786   6.251  20.917  0.00  0.00    +0.000 N 
ATOM      7  C   UNL     1       2.013   7.045  19.829  0.00  0.00    +0.000 A 
ATOM      8  C   UNL     1       1.619   8.355  19.571  0.00  0.00    +0.000 A 
ATOM      9  N   UNL     1       0.841   9.044  20.474  0.00  0.00    +0.000 N 
ATOM     10  C   UNL     1       0.944  10.491  20.577  0.00  0.00    +0.000 C 
ATOM     11  C   UNL     1       0.802  10.838  22.067  0.00  0.00    +0.000 C 
ATOM     12  C   UNL     1      -0.450  10.213  22.702  0.00  0.00    +0.000 C 
ATOM     13  C   UNL     1      -0.596   8.726  22.365  0.00  0.00    +0.000 C 
ATOM     14  C   UNL     1      -0.455   8.498  20.861  0.00  0.00    +0.000 C 
ATOM     15  N   UNL     1       2.119   8.918  18.455  0.00  0.00    +0.000 NA
ATOM     16  C   UNL     1       2.894   8.157  17.648  0.00  0.00    +0.000 A 
ATOM     17  N   UNL     1       3.275   6.876  17.810  0.00  0.00    +0.000 NA
ATOM     18  C   UNL     1       2.819   6.327  18.959  0.00  0.00    +0.000 A 
ATOM     19  C   UNL     1       3.008   5.017  19.525  0.00  0.00    +0.000 A 
ATOM     20  H   UNL     1       1.283   6.556  21.736  0.00  0.00    +0.000 HD
ENDROOT
BRANCH   1  22
ATOM     21  C   UNL     1       5.755   4.306  18.086  0.00  0.00    +0.000 C 
ATOM     22  O   UNL     1       4.412   3.851  17.971  0.00  0.00    +0.000 OA
ENDBRANCH   1  22
TORSDOF 1
ENDMDL
MODEL 6
REMARK VINA RESULT:      -6.3      7.595      9.642
REMARK  Name = 
REMARK  2 active torsions:
REMARK  status: ('A' for Active; 'I' for Inactive)
REMARK    1  A    between atoms: C_1  and  O_2
REMARK    2  A    between atoms: O_2  and  C_3
REMARK                            x       y       z     vdW  Elec       q    Type
REMARK                         _______ _______ _______ _____ _____    ______ ____
ROOT
ATOM      1  C   UNL     1       1.916   7.346  19.974  0.00  0.00    +0.000 A 
ATOM      2  C   UNL     1       2.513   7.079  18.725  0.00  0.00    +0.000 A 
ATOM      3  C   UNL     1       2.608   8.057  17.736  0.00  0.00    +0.000 A 
ATOM      4  C   UNL     1       2.097   9.332  17.943  0.00  0.00    +0.000 A 
ATOM      5  C   UNL     1       1.493   9.584  19.177  0.00  0.00    +0.000 A 
ATOM      6  N   UNL     1       0.887  10.727  19.616  0.00  0.00    +0.000 N 
ATOM      7  C   UNL     1       0.485  10.608  20.916  0.00  0.00    +0.000 A 
ATOM      8  C   UNL     1      -0.129  11.532  21.757  0.00  0.00    +0.000 A 
ATOM      9  N   UNL     1      -0.386  12.813  21.323  0.00  0.00    +0.000 N 
ATOM     10  C   UNL     1      -1.518  13.554  21.857  0.00  0.00    +0.000 C 
ATOM     11  C   UNL     1      -2.103  14.365  20.690  0.00  0.00    +0.000 C 
ATOM     12  C   UNL     1      -1.040  15.204  19.963  0.00  0.00    +0.000 C 
ATOM     13  C   UNL     1       0.215  14.394  19.625  0.00  0.00    +0.000 C 
ATOM     14  C   UNL     1       0.719  13.643  20.857  0.00  0.00    +0.000 C 
ATOM     15  N   UNL     1      -0.531  11.069  22.956  0.00  0.00    +0.000 NA
ATOM     16  C   UNL     1      -0.247   9.784  23.272  0.00  0.00    +0.000 A 
ATOM     17  N   UNL     1       0.381   8.854  22.530  0.00  0.00    +0.000 NA
ATOM     18  C   UNL     1       0.736   9.301  21.304  0.00  0.00    +0.000 A 
ATOM     19  C   UNL     1       1.392   8.641  20.206  0.00  0.00    +0.000 A 
ATOM     20  H   UNL     1       0.754  11.560  19.063  0.00  0.00    +0.000 HD
ENDROOT
BRANCH   1  22
ATOM     21  C   UNL     1       2.032   5.055  20.556  0.00  0.00    +0.000 C 
ATOM     22  O   UNL     1       1.779   6.397  20.956  0.00  0.00    +0.000 OA
ENDBRANCH   1  22
TORSDOF 1
ENDMDL
MODEL 7
REMARK VINA RESULT:      -6.3      9.725     11.920
REMARK  Name = 
REMARK  2 active torsions:
REMARK  status: ('A' for Active; 'I' for Inactive)
REMARK    1  A    between atoms: C_1  and  O_2
REMARK    2  A    between atoms: O_2  and  C_3
REMARK                            x       y       z     vdW  Elec       q    Type
REMARK                         _______ _______ _______ _____ _____    ______ ____
ROOT
ATOM      1  C   UNL     1       0.125  10.362  18.813  0.00  0.00    +0.000 A 
ATOM      2  C   UNL     1       0.837  10.690  19.985  0.00  0.00    +0.000 A 
ATOM      3  C   UNL     1       0.281  11.492  20.980  0.00  0.00    +0.000 A 
ATOM      4  C   UNL     1      -0.999  12.016  20.839  0.00  0.00    +0.000 A 
ATOM      5  C   UNL     1      -1.691  11.700  19.669  0.00  0.00    +0.000 A 
ATOM      6  N   UNL     1      -2.933  12.111  19.273  0.00  0.00    +0.000 N 
ATOM      7  C   UNL     1      -3.298  11.521  18.095  0.00  0.00    +0.000 A 
ATOM      8  C   UNL     1      -4.479  11.624  17.365  0.00  0.00    +0.000 A 
ATOM      9  N   UNL     1      -5.527  12.386  17.830  0.00  0.00    +0.000 N 
ATOM     10  C   UNL     1      -6.442  13.021  16.894  0.00  0.00    +0.000 C 
ATOM     11  C   UNL     1      -6.799  14.392  17.491  0.00  0.00    +0.000 C 
ATOM     12  C   UNL     1      -7.292  14.294  18.943  0.00  0.00    +0.000 C 
ATOM     13  C   UNL     1      -6.379  13.426  19.813  0.00  0.00    +0.000 C 
ATOM     14  C   UNL     1      -6.103  12.085  19.135  0.00  0.00    +0.000 C 
ATOM     15  N   UNL     1      -4.487  11.023  16.160  0.00  0.00    +0.000 NA
ATOM     16  C   UNL     1      -3.392  10.318  15.791  0.00  0.00    +0.000 A 
ATOM     17  N   UNL     1      -2.240  10.138  16.464  0.00  0.00    +0.000 NA
ATOM     18  C   UNL     1      -2.209  10.788  17.650  0.00  0.00    +0.000 A 
ATOM     19  C   UNL     1      -1.182  10.884  18.653  0.00  0.00    +0.000 A 
ATOM     20  H   UNL     1      -3.517  12.759  19.778  0.00  0.00    +0.000 HD
ENDROOT
BRANCH   1  22
ATOM     21  C   UNL     1       2.006   9.191  17.984  0.00  0.00    +0.000 C 
ATOM     22  O   UNL     1       0.656   9.601  17.803  0.00  0.00    +0.000 OA
ENDBRANCH   1  22
TORSDOF 1
ENDMDL
MODEL 8
REMARK VINA RESULT:      -6.1      9.883     12.270
REMARK  Name = 
REMARK  2 active torsions:
REMARK  status: ('A' for Active; 'I' for Inactive)
REMARK    1  A    between atoms: C_1  and  O_2
REMARK    2  A    between atoms: O_2  and  C_3
REMARK                            x       y       z     vdW  Elec       q    Type
REMARK                         _______ _______ _______ _____ _____    ______ ____
ROOT
ATOM      1  C   UNL     1       5.851  13.462  24.026  0.00  0.00    +0.000 A 
ATOM      2  C   UNL     1       5.979  12.609  25.140  0.00  0.00    +0.000 A 
ATOM      3  C   UNL     1       7.027  11.695  25.246  0.00  0.00    +0.000 A 
ATOM      4  C   UNL     1       7.977  11.582  24.239  0.00  0.00    +0.000 A 
ATOM      5  C   UNL     1       7.835  12.419  23.131  0.00  0.00    +0.000 A 
ATOM      6  N   UNL     1       8.601  12.483  22.002  0.00  0.00    +0.000 N 
ATOM      7  C   UNL     1       8.188  13.491  21.177  0.00  0.00    +0.000 A 
ATOM      8  C   UNL     1       8.704  13.927  19.960  0.00  0.00    +0.000 A 
ATOM      9  N   UNL     1       9.831  13.344  19.426  0.00  0.00    +0.000 N 
ATOM     10  C   UNL     1      10.017  13.293  17.984  0.00  0.00    +0.000 C 
ATOM     11  C   UNL     1      10.674  11.939  17.673  0.00  0.00    +0.000 C 
ATOM     12  C   UNL     1      11.933  11.685  18.517  0.00  0.00    +0.000 C 
ATOM     13  C   UNL     1      11.707  11.970  20.004  0.00  0.00    +0.000 C 
ATOM     14  C   UNL     1      11.067  13.344  20.200  0.00  0.00    +0.000 C 
ATOM     15  N   UNL     1       7.987  14.865  19.313  0.00  0.00    +0.000 NA
ATOM     16  C   UNL     1       6.879  15.354  19.919  0.00  0.00    +0.000 A 
ATOM     17  N   UNL     1       6.352  15.013  21.109  0.00  0.00    +0.000 NA
ATOM     18  C   UNL     1       7.039  14.031  21.735  0.00  0.00    +0.000 A 
ATOM     19  C   UNL     1       6.812  13.364  22.990  0.00  0.00    +0.000 A 
ATOM     20  H   UNL     1       9.379  11.874  21.795  0.00  0.00    +0.000 HD
ENDROOT
BRANCH   1  22
ATOM     21  C   UNL     1       5.016  15.635  24.452  0.00  0.00    +0.000 C 
ATOM     22  O   UNL     1       4.815  14.349  23.877  0.00  0.00    +0.000 OA
ENDBRANCH   1  22
TORSDOF 1
ENDMDL
MODEL 9
REMARK VINA RESULT:      -6.1      6.910      9.039
REMARK  Name = 
REMARK  2 active torsions:
REMARK  status: ('A' for Active; 'I' for Inactive)
REMARK    1  A    between atoms: C_1  and  O_2
REMARK    2  A    between atoms: O_2  and  C_3
REMARK                            x       y       z     vdW  Elec       q    Type
REMARK                         _______ _______ _______ _____ _____    ______ ____
ROOT
ATOM      1  C   UNL     1       2.029   6.582  19.979  0.00  0.00    +0.000 A 
ATOM      2  C   UNL     1       2.641   6.102  18.804  0.00  0.00    +0.000 A 
ATOM      3  C   UNL     1       2.893   6.936  17.716  0.00  0.00    +0.000 A 
ATOM      4  C   UNL     1       2.529   8.277  17.748  0.00  0.00    +0.000 A 
ATOM      5  C   UNL     1       1.909   8.741  18.909  0.00  0.00    +0.000 A 
ATOM      6  N   UNL     1       1.426   9.990  19.181  0.00  0.00    +0.000 N 
ATOM      7  C   UNL     1       0.959  10.075  20.462  0.00  0.00    +0.000 A 
ATOM      8  C   UNL     1       0.426  11.157  21.157  0.00  0.00    +0.000 A 
ATOM      9  N   UNL     1       0.341  12.397  20.566  0.00  0.00    +0.000 N 
ATOM     10  C   UNL     1      -0.716  13.321  20.948  0.00  0.00    +0.000 C 
ATOM     11  C   UNL     1      -1.151  14.047  19.665  0.00  0.00    +0.000 C 
ATOM     12  C   UNL     1       0.034  14.667  18.907  0.00  0.00    +0.000 C 
ATOM     13  C   UNL     1       1.195  13.684  18.734  0.00  0.00    +0.000 C 
ATOM     14  C   UNL     1       1.555  13.034  20.070  0.00  0.00    +0.000 C 
ATOM     15  N   UNL     1      -0.078  10.889  22.377  0.00  0.00    +0.000 NA
ATOM     16  C   UNL     1       0.037   9.628  22.853  0.00  0.00    +0.000 A 
ATOM     17  N   UNL     1       0.580   8.550  22.258  0.00  0.00    +0.000 NA
ATOM     18  C   UNL     1       1.036   8.803  21.010  0.00  0.00    +0.000 A 
ATOM     19  C   UNL     1       1.654   7.947  20.033  0.00  0.00    +0.000 A 
ATOM     20  H   UNL     1       1.416  10.761  18.530  0.00  0.00    +0.000 HD
ENDROOT
BRANCH   1  22
ATOM     21  C   UNL     1       2.166   4.427  20.946  0.00  0.00    +0.000 C 
ATOM     22  O   UNL     1       1.739   5.780  21.054  0.00  0.00    +0.000 OA
ENDBRANCH   1  22
TORSDOF 1
ENDMDL
