MODEL 1
REMARK VINA RESULT:      -8.5      0.000      0.000
REMARK  Name = 
REMARK  5 active torsions:
REMARK  status: ('A' for Active; 'I' for Inactive)
REMARK    1  A    between atoms: C_1  and  C_2
REMARK    2  A    between atoms: C_5  and  S_6
REMARK    3  A    between atoms: S_6  and  C_7
REMARK    4  A    between atoms: C_13  and  C_14
REMARK    5  A    between atoms: N_16  and  C_17
REMARK                            x       y       z     vdW  Elec       q    Type
REMARK                         _______ _______ _______ _____ _____    ______ ____
ROOT
ATOM      1  C   UNL     1      -0.549  11.494  21.231  0.00  0.00    +0.000 A 
ATOM      2  C   UNL     1      -1.040  11.471  22.532  0.00  0.00    +0.000 A 
ATOM      3  N   UNL     1      -0.803  10.490  23.427  0.00  0.00    +0.000 NA
ATOM      4  C   UNL     1      -0.059   9.431  23.041  0.00  0.00    +0.000 A 
ATOM      5  C   UNL     1       0.444   9.360  21.739  0.00  0.00    +0.000 A 
ATOM      6  S   UNL     1       1.377   8.080  21.071  0.00  0.00    +0.000 S 
ATOM      7  C   UNL     1       1.473   8.827  19.541  0.00  0.00    +0.000 A 
ATOM      8  C   UNL     1       0.825  10.048  19.547  0.00  0.00    +0.000 A 
ATOM      9  C   UNL     1       0.214  10.380  20.809  0.00  0.00    +0.000 A 
ENDROOT
BRANCH   7  10
ATOM     10  C   UNL     1       2.164   8.217  18.406  0.00  0.00    +0.000 C 
ATOM     11  O   UNL     1       2.095   8.711  17.287  0.00  0.00    +0.000 OA
ATOM     12  N   UNL     1       2.839   7.040  18.702  0.00  0.00    +0.000 N 
ATOM     13  H   UNL     1       2.702   6.680  19.639  0.00  0.00    +0.000 HD
BRANCH  12  14
ATOM     14  C   UNL     1       3.562   6.226  17.810  0.00  0.00    +0.000 A 
ATOM     15  C   UNL     1       3.313   4.862  17.638  0.00  0.00    +0.000 A 
ATOM     16  C   UNL     1       4.111   4.096  16.783  0.00  0.00    +0.000 A 
ATOM     17  C   UNL     1       5.162   4.694  16.095  0.00  0.00    +0.000 A 
ATOM     18 CL   UNL     1       6.178   3.740  15.087  0.00  0.00    +0.000 Cl
ATOM     19  C   UNL     1       5.398   6.059  16.226  0.00  0.00    +0.000 A 
ATOM     20  C   UNL     1       4.589   6.827  17.072  0.00  0.00    +0.000 A 
ENDBRANCH  12  14
ENDBRANCH   7  10
BRANCH   1  21
ATOM     21  S   UNL     1      -0.946  12.795  20.105  0.00  0.00    +0.000 S 
BRANCH  21  26
ATOM     22  C   UNL     1      -6.527  11.169  18.226  0.00  0.00    +0.000 C 
ATOM     23  C   UNL     1      -5.166  11.621  18.667  0.00  0.00    +0.000 A 
ATOM     24  C   UNL     1      -4.016  11.214  17.987  0.00  0.00    +0.000 A 
ATOM     25  C   UNL     1      -2.752  11.614  18.431  0.00  0.00    +0.000 A 
ATOM     26  C   UNL     1      -2.609  12.430  19.560  0.00  0.00    +0.000 A 
ATOM     27  C   UNL     1      -3.761  12.842  20.235  0.00  0.00    +0.000 A 
ATOM     28  C   UNL     1      -5.029  12.444  19.791  0.00  0.00    +0.000 A 
ENDBRANCH  21  26
ENDBRANCH   1  21
TORSDOF 4
ENDMDL
MODEL 2
REMARK VINA RESULT:      -8.5      0.193      1.323
REMARK  Name = 
REMARK  5 active torsions:
REMARK  status: ('A' for Active; 'I' for Inactive)
REMARK    1  A    between atoms: C_1  and  C_2
REMARK    2  A    between atoms: C_5  and  S_6
REMARK    3  A    between atoms: S_6  and  C_7
REMARK    4  A    between atoms: C_13  and  C_14
REMARK    5  A    between atoms: N_16  and  C_17
REMARK                            x       y       z     vdW  Elec       q    Type
REMARK                         _______ _______ _______ _____ _____    ______ ____
ROOT
ATOM      1  C   UNL     1      -0.529  11.410  21.254  0.00  0.00    +0.000 A 
ATOM      2  C   UNL     1      -1.022  11.362  22.553  0.00  0.00    +0.000 A 
ATOM      3  N   UNL     1      -0.776  10.372  23.435  0.00  0.00    +0.000 NA
ATOM      4  C   UNL     1      -0.018   9.327  23.035  0.00  0.00    +0.000 A 
ATOM      5  C   UNL     1       0.489   9.281  21.734  0.00  0.00    +0.000 A 
ATOM      6  S   UNL     1       1.438   8.022  21.050  0.00  0.00    +0.000 S 
ATOM      7  C   UNL     1       1.529   8.792  19.531  0.00  0.00    +0.000 A 
ATOM      8  C   UNL     1       0.867  10.005  19.553  0.00  0.00    +0.000 A 
ATOM      9  C   UNL     1       0.249  10.311  20.818  0.00  0.00    +0.000 A 
ENDROOT
BRANCH   7  10
ATOM     10  C   UNL     1       2.230   8.206  18.389  0.00  0.00    +0.000 C 
ATOM     11  O   UNL     1       2.055   8.635  17.255  0.00  0.00    +0.000 OA
ATOM     12  N   UNL     1       3.043   7.124  18.699  0.00  0.00    +0.000 N 
ATOM     13  H   UNL     1       2.989   6.797  19.656  0.00  0.00    +0.000 HD
BRANCH  12  14
ATOM     14  C   UNL     1       3.809   6.350  17.808  0.00  0.00    +0.000 A 
ATOM     15  C   UNL     1       4.844   6.871  17.027  0.00  0.00    +0.000 A 
ATOM     16  C   UNL     1       5.521   6.060  16.113  0.00  0.00    +0.000 A 
ATOM     17  C   UNL     1       5.167   4.721  15.977  0.00  0.00    +0.000 A 
ATOM     18 CL   UNL     1       5.963   3.739  14.813  0.00  0.00    +0.000 Cl
ATOM     19  C   UNL     1       4.164   4.178  16.775  0.00  0.00    +0.000 A 
ATOM     20  C   UNL     1       3.495   4.989  17.700  0.00  0.00    +0.000 A 
ENDBRANCH  12  14
ENDBRANCH   7  10
BRANCH   1  21
ATOM     21  S   UNL     1      -0.939  12.723  20.145  0.00  0.00    +0.000 S 
BRANCH  21  26
ATOM     22  C   UNL     1      -6.511  11.557  17.930  0.00  0.00    +0.000 C 
ATOM     23  C   UNL     1      -5.137  11.787  18.487  0.00  0.00    +0.000 A 
ATOM     24  C   UNL     1      -4.956  12.438  19.710  0.00  0.00    +0.000 A 
ATOM     25  C   UNL     1      -3.668  12.678  20.200  0.00  0.00    +0.000 A 
ATOM     26  C   UNL     1      -2.536  12.273  19.483  0.00  0.00    +0.000 A 
ATOM     27  C   UNL     1      -2.720  11.616  18.263  0.00  0.00    +0.000 A 
ATOM     28  C   UNL     1      -4.009  11.373  17.771  0.00  0.00    +0.000 A 
ENDBRANCH  21  26
ENDBRANCH   1  21
TORSDOF 4
ENDMDL
MODEL 3
REMARK VINA RESULT:      -8.2      4.152      9.280
REMARK  Name = 
REMARK  5 active torsions:
REMARK  status: ('A' for Active; 'I' for Inactive)
REMARK    1  A    between atoms: C_1  and  C_2
REMARK    2  A    between atoms: C_5  and  S_6
REMARK    3  A    between atoms: S_6  and  C_7
REMARK    4  A    between atoms: C_13  and  C_14
REMARK    5  A    between atoms: N_16  and  C_17
REMARK                            x       y       z     vdW  Elec       q    Type
REMARK                         _______ _______ _______ _____ _____    ______ ____
ROOT
ATOM      1  C   UNL     1       3.820   3.636  17.723  0.00  0.00    +0.000 A 
ATOM      2  C   UNL     1       3.855   2.298  18.097  0.00  0.00    +0.000 A 
ATOM      3  N   UNL     1       3.236   1.783  19.180  0.00  0.00    +0.000 NA
ATOM      4  C   UNL     1       2.550   2.620  19.987  0.00  0.00    +0.000 A 
ATOM      5  C   UNL     1       2.493   3.987  19.702  0.00  0.00    +0.000 A 
ATOM      6  S   UNL     1       1.699   5.194  20.632  0.00  0.00    +0.000 S 
ATOM      7  C   UNL     1       2.186   6.450  19.586  0.00  0.00    +0.000 A 
ATOM      8  C   UNL     1       2.923   5.952  18.528  0.00  0.00    +0.000 A 
ATOM      9  C   UNL     1       3.121   4.526  18.573  0.00  0.00    +0.000 A 
ENDROOT
BRANCH   7  10
ATOM     10  C   UNL     1       1.841   7.852  19.821  0.00  0.00    +0.000 C 
ATOM     11  O   UNL     1       1.735   8.291  20.959  0.00  0.00    +0.000 OA
ATOM     12  N   UNL     1       1.606   8.593  18.670  0.00  0.00    +0.000 N 
ATOM     13  H   UNL     1       1.602   8.067  17.804  0.00  0.00    +0.000 HD
BRANCH  12  14
ATOM     14  C   UNL     1       1.231   9.947  18.591  0.00  0.00    +0.000 A 
ATOM     15  C   UNL     1       2.145  10.994  18.455  0.00  0.00    +0.000 A 
ATOM     16  C   UNL     1       1.708  12.322  18.448  0.00  0.00    +0.000 A 
ATOM     17  C   UNL     1       0.353  12.607  18.575  0.00  0.00    +0.000 A 
ATOM     18 CL   UNL     1      -0.177  14.242  18.622  0.00  0.00    +0.000 Cl
ATOM     19  C   UNL     1      -0.574  11.573  18.672  0.00  0.00    +0.000 A 
ATOM     20  C   UNL     1      -0.137  10.243  18.666  0.00  0.00    +0.000 A 
ENDBRANCH  12  14
ENDBRANCH   7  10
BRANCH   1  21
ATOM     21  S   UNL     1       4.699   4.237  16.314  0.00  0.00    +0.000 S 
BRANCH  21  26
ATOM     22  C   UNL     1       8.609   8.289  18.683  0.00  0.00    +0.000 C 
ATOM     23  C   UNL     1       7.692   7.270  18.073  0.00  0.00    +0.000 A 
ATOM     24  C   UNL     1       6.788   7.625  17.069  0.00  0.00    +0.000 A 
ATOM     25  C   UNL     1       5.915   6.672  16.534  0.00  0.00    +0.000 A 
ATOM     26  C   UNL     1       5.927   5.348  16.987  0.00  0.00    +0.000 A 
ATOM     27  C   UNL     1       6.837   4.993  17.987  0.00  0.00    +0.000 A 
ATOM     28  C   UNL     1       7.714   5.945  18.523  0.00  0.00    +0.000 A 
ENDBRANCH  21  26
ENDBRANCH   1  21
TORSDOF 4
ENDMDL
MODEL 4
REMARK VINA RESULT:      -8.2      4.001      9.122
REMARK  Name = 
REMARK  5 active torsions:
REMARK  status: ('A' for Active; 'I' for Inactive)
REMARK    1  A    between atoms: C_1  and  C_2
REMARK    2  A    between atoms: C_5  and  S_6
REMARK    3  A    between atoms: S_6  and  C_7
REMARK    4  A    between atoms: C_13  and  C_14
REMARK    5  A    between atoms: N_16  and  C_17
REMARK                            x       y       z     vdW  Elec       q    Type
REMARK                         _______ _______ _______ _____ _____    ______ ____
ROOT
ATOM      1  C   UNL     1       3.611   3.966  18.939  0.00  0.00    +0.000 A 
ATOM      2  C   UNL     1       3.522   2.965  19.899  0.00  0.00    +0.000 A 
ATOM      3  N   UNL     1       2.791   3.045  21.030  0.00  0.00    +0.000 NA
ATOM      4  C   UNL     1       2.110   4.185  21.277  0.00  0.00    +0.000 A 
ATOM      5  C   UNL     1       2.173   5.253  20.379  0.00  0.00    +0.000 A 
ATOM      6  S   UNL     1       1.402   6.780  20.549  0.00  0.00    +0.000 S 
ATOM      7  C   UNL     1       2.054   7.374  19.089  0.00  0.00    +0.000 A 
ATOM      8  C   UNL     1       2.827   6.412  18.468  0.00  0.00    +0.000 A 
ATOM      9  C   UNL     1       2.918   5.173  19.197  0.00  0.00    +0.000 A 
ENDROOT
BRANCH   7  10
ATOM     10  C   UNL     1       1.794   8.728  18.601  0.00  0.00    +0.000 C 
ATOM     11  O   UNL     1       2.276   9.119  17.546  0.00  0.00    +0.000 OA
ATOM     12  N   UNL     1       1.020   9.511  19.446  0.00  0.00    +0.000 N 
ATOM     13  H   UNL     1       0.801   9.100  20.346  0.00  0.00    +0.000 HD
BRANCH  12  14
ATOM     14  C   UNL     1       0.638  10.852  19.253  0.00  0.00    +0.000 A 
ATOM     15  C   UNL     1      -0.506  11.234  18.548  0.00  0.00    +0.000 A 
ATOM     16  C   UNL     1      -0.793  12.586  18.338  0.00  0.00    +0.000 A 
ATOM     17  C   UNL     1       0.065  13.562  18.834  0.00  0.00    +0.000 A 
ATOM     18 CL   UNL     1      -0.258  15.222  18.526  0.00  0.00    +0.000 Cl
ATOM     19  C   UNL     1       1.188  13.198  19.572  0.00  0.00    +0.000 A 
ATOM     20  C   UNL     1       1.466  11.844  19.793  0.00  0.00    +0.000 A 
ENDBRANCH  12  14
ENDBRANCH   7  10
BRANCH   1  21
ATOM     21  S   UNL     1       4.631   3.801  17.506  0.00  0.00    +0.000 S 
BRANCH  21  26
ATOM     22  C   UNL     1       8.399   8.587  17.969  0.00  0.00    +0.000 C 
ATOM     23  C   UNL     1       7.517   7.380  17.834  0.00  0.00    +0.000 A 
ATOM     24  C   UNL     1       6.534   7.315  16.844  0.00  0.00    +0.000 A 
ATOM     25  C   UNL     1       5.695   6.200  16.752  0.00  0.00    +0.000 A 
ATOM     26  C   UNL     1       5.821   5.127  17.642  0.00  0.00    +0.000 A 
ATOM     27  C   UNL     1       6.811   5.191  18.628  0.00  0.00    +0.000 A 
ATOM     28  C   UNL     1       7.653   6.306  18.720  0.00  0.00    +0.000 A 
ENDBRANCH  21  26
ENDBRANCH   1  21
TORSDOF 4
ENDMDL
MODEL 5
REMARK VINA RESULT:      -8.1      3.842      9.430
REMARK  Name = 
REMARK  5 active torsions:
REMARK  status: ('A' for Active; 'I' for Inactive)
REMARK    1  A    between atoms: C_1  and  C_2
REMARK    2  A    between atoms: C_5  and  S_6
REMARK    3  A    between atoms: S_6  and  C_7
REMARK    4  A    between atoms: C_13  and  C_14
REMARK    5  A    between atoms: N_16  and  C_17
REMARK                            x       y       z     vdW  Elec       q    Type
REMARK                         _______ _______ _______ _____ _____    ______ ____
ROOT
ATOM      1  C   UNL     1       4.261   3.879  18.511  0.00  0.00    +0.000 A 
ATOM      2  C   UNL     1       4.325   2.721  19.277  0.00  0.00    +0.000 A 
ATOM      3  N   UNL     1       3.617   2.503  20.405  0.00  0.00    +0.000 NA
ATOM      4  C   UNL     1       2.800   3.481  20.852  0.00  0.00    +0.000 A 
ATOM      5  C   UNL     1       2.703   4.690  20.159  0.00  0.00    +0.000 A 
ATOM      6  S   UNL     1       1.746   6.048  20.599  0.00  0.00    +0.000 S 
ATOM      7  C   UNL     1       2.280   6.971  19.268  0.00  0.00    +0.000 A 
ATOM      8  C   UNL     1       3.156   6.245  18.485  0.00  0.00    +0.000 A 
ATOM      9  C   UNL     1       3.424   4.919  18.981  0.00  0.00    +0.000 A 
ENDROOT
BRANCH   7  10
ATOM     10  C   UNL     1       1.837   8.345  19.030  0.00  0.00    +0.000 C 
ATOM     11  O   UNL     1       2.200   8.959  18.035  0.00  0.00    +0.000 OA
ATOM     12  N   UNL     1       1.035   8.878  20.030  0.00  0.00    +0.000 N 
ATOM     13  H   UNL     1       0.924   8.301  20.856  0.00  0.00    +0.000 HD
BRANCH  12  14
ATOM     14  C   UNL     1       0.491  10.174  20.086  0.00  0.00    +0.000 A 
ATOM     15  C   UNL     1       1.100  11.238  20.756  0.00  0.00    +0.000 A 
ATOM     16  C   UNL     1       0.472  12.485  20.827  0.00  0.00    +0.000 A 
ATOM     17  C   UNL     1      -0.768  12.673  20.225  0.00  0.00    +0.000 A 
ATOM     18 CL   UNL     1      -1.564  14.191  20.361  0.00  0.00    +0.000 Cl
ATOM     19  C   UNL     1      -1.369  11.634  19.520  0.00  0.00    +0.000 A 
ATOM     20  C   UNL     1      -0.733  10.389  19.439  0.00  0.00    +0.000 A 
ENDBRANCH  12  14
ENDBRANCH   7  10
BRANCH   1  21
ATOM     21  S   UNL     1       5.259   4.104  17.072  0.00  0.00    +0.000 S 
BRANCH  21  26
ATOM     22  C   UNL     1       8.720   8.921  18.534  0.00  0.00    +0.000 C 
ATOM     23  C   UNL     1       7.916   7.713  18.150  0.00  0.00    +0.000 A 
ATOM     24  C   UNL     1       6.983   7.770  17.113  0.00  0.00    +0.000 A 
ATOM     25  C   UNL     1       6.215   6.647  16.790  0.00  0.00    +0.000 A 
ATOM     26  C   UNL     1       6.363   5.445  17.493  0.00  0.00    +0.000 A 
ATOM     27  C   UNL     1       7.303   5.389  18.526  0.00  0.00    +0.000 A 
ATOM     28  C   UNL     1       8.075   6.512  18.850  0.00  0.00    +0.000 A 
ENDBRANCH  21  26
ENDBRANCH   1  21
TORSDOF 4
ENDMDL
MODEL 6
REMARK VINA RESULT:      -8.0      2.461      4.050
REMARK  Name = 
REMARK  5 active torsions:
REMARK  status: ('A' for Active; 'I' for Inactive)
REMARK    1  A    between atoms: C_1  and  C_2
REMARK    2  A    between atoms: C_5  and  S_6
REMARK    3  A    between atoms: S_6  and  C_7
REMARK    4  A    between atoms: C_13  and  C_14
REMARK    5  A    between atoms: N_16  and  C_17
REMARK                            x       y       z     vdW  Elec       q    Type
REMARK                         _______ _______ _______ _____ _____    ______ ____
ROOT
ATOM      1  C   UNL     1      -0.354  11.761  21.257  0.00  0.00    +0.000 A 
ATOM      2  C   UNL     1      -0.931  11.748  22.521  0.00  0.00    +0.000 A 
ATOM      3  N   UNL     1      -0.873  10.711  23.383  0.00  0.00    +0.000 NA
ATOM      4  C   UNL     1      -0.235   9.586  22.996  0.00  0.00    +0.000 A 
ATOM      5  C   UNL     1       0.344   9.505  21.727  0.00  0.00    +0.000 A 
ATOM      6  S   UNL     1       1.162   8.148  21.060  0.00  0.00    +0.000 S 
ATOM      7  C   UNL     1       1.449   8.937  19.575  0.00  0.00    +0.000 A 
ATOM      8  C   UNL     1       0.952  10.225  19.597  0.00  0.00    +0.000 A 
ATOM      9  C   UNL     1       0.300  10.580  20.832  0.00  0.00    +0.000 A 
ENDROOT
BRANCH   7  10
ATOM     10  C   UNL     1       2.139   8.291  18.459  0.00  0.00    +0.000 C 
ATOM     11  O   UNL     1       2.082   8.760  17.329  0.00  0.00    +0.000 OA
ATOM     12  N   UNL     1       2.796   7.113  18.785  0.00  0.00    +0.000 N 
ATOM     13  H   UNL     1       2.648   6.776  19.729  0.00  0.00    +0.000 HD
BRANCH  12  14
ATOM     14  C   UNL     1       3.513   6.268  17.917  0.00  0.00    +0.000 A 
ATOM     15  C   UNL     1       3.176   4.931  17.690  0.00  0.00    +0.000 A 
ATOM     16  C   UNL     1       3.970   4.129  16.865  0.00  0.00    +0.000 A 
ATOM     17  C   UNL     1       5.104   4.663  16.261  0.00  0.00    +0.000 A 
ATOM     18 CL   UNL     1       6.109   3.661  15.291  0.00  0.00    +0.000 Cl
ATOM     19  C   UNL     1       5.430   6.004  16.446  0.00  0.00    +0.000 A 
ATOM     20  C   UNL     1       4.627   6.809  17.262  0.00  0.00    +0.000 A 
ENDBRANCH  12  14
ENDBRANCH   7  10
BRANCH   1  21
ATOM     21  S   UNL     1      -0.517  13.143  20.169  0.00  0.00    +0.000 S 
BRANCH  21  26
ATOM     22  C   UNL     1       5.080  15.037  18.619  0.00  0.00    +0.000 C 
ATOM     23  C   UNL     1       3.728  14.522  19.017  0.00  0.00    +0.000 A 
ATOM     24  C   UNL     1       2.787  14.152  18.053  0.00  0.00    +0.000 A 
ATOM     25  C   UNL     1       1.518  13.708  18.438  0.00  0.00    +0.000 A 
ATOM     26  C   UNL     1       1.163  13.620  19.789  0.00  0.00    +0.000 A 
ATOM     27  C   UNL     1       2.109  13.985  20.752  0.00  0.00    +0.000 A 
ATOM     28  C   UNL     1       3.381  14.428  20.369  0.00  0.00    +0.000 A 
ENDBRANCH  21  26
ENDBRANCH   1  21
TORSDOF 4
ENDMDL
MODEL 7
REMARK VINA RESULT:      -7.9      4.382      9.844
REMARK  Name = 
REMARK  5 active torsions:
REMARK  status: ('A' for Active; 'I' for Inactive)
REMARK    1  A    between atoms: C_1  and  C_2
REMARK    2  A    between atoms: C_5  and  S_6
REMARK    3  A    between atoms: S_6  and  C_7
REMARK    4  A    between atoms: C_13  and  C_14
REMARK    5  A    between atoms: N_16  and  C_17
REMARK                            x       y       z     vdW  Elec       q    Type
REMARK                         _______ _______ _______ _____ _____    ______ ____
ROOT
ATOM      1  C   UNL     1       4.917   4.215  19.078  0.00  0.00    +0.000 A 
ATOM      2  C   UNL     1       4.943   2.851  19.342  0.00  0.00    +0.000 A 
ATOM      3  N   UNL     1       3.946   2.162  19.936  0.00  0.00    +0.000 NA
ATOM      4  C   UNL     1       2.846   2.836  20.335  0.00  0.00    +0.000 A 
ATOM      5  C   UNL     1       2.755   4.216  20.137  0.00  0.00    +0.000 A 
ATOM      6  S   UNL     1       1.451   5.233  20.608  0.00  0.00    +0.000 S 
ATOM      7  C   UNL     1       2.217   6.640  20.021  0.00  0.00    +0.000 A 
ATOM      8  C   UNL     1       3.438   6.335  19.451  0.00  0.00    +0.000 A 
ATOM      9  C   UNL     1       3.778   4.936  19.510  0.00  0.00    +0.000 A 
ENDROOT
BRANCH   7  10
ATOM     10  C   UNL     1       1.616   7.969  20.129  0.00  0.00    +0.000 C 
ATOM     11  O   UNL     1       1.658   8.755  19.191  0.00  0.00    +0.000 OA
ATOM     12  N   UNL     1       1.061   8.257  21.368  0.00  0.00    +0.000 N 
ATOM     13  H   UNL     1       1.216   7.563  22.089  0.00  0.00    +0.000 HD
BRANCH  12  14
ATOM     14  C   UNL     1       0.446   9.458  21.767  0.00  0.00    +0.000 A 
ATOM     15  C   UNL     1      -0.488   9.539  22.803  0.00  0.00    +0.000 A 
ATOM     16  C   UNL     1      -1.110  10.753  23.105  0.00  0.00    +0.000 A 
ATOM     17  C   UNL     1      -0.798  11.894  22.373  0.00  0.00    +0.000 A 
ATOM     18 CL   UNL     1      -1.604  13.375  22.710  0.00  0.00    +0.000 Cl
ATOM     19  C   UNL     1       0.160  11.838  21.364  0.00  0.00    +0.000 A 
ATOM     20  C   UNL     1       0.791  10.624  21.071  0.00  0.00    +0.000 A 
ENDBRANCH  12  14
ENDBRANCH   7  10
BRANCH   1  21
ATOM     21  S   UNL     1       6.286   5.051  18.338  0.00  0.00    +0.000 S 
BRANCH  21  26
ATOM     22  C   UNL     1       6.176   3.645  12.395  0.00  0.00    +0.000 C 
ATOM     23  C   UNL     1       6.164   4.031  13.845  0.00  0.00    +0.000 A 
ATOM     24  C   UNL     1       7.236   4.723  14.414  0.00  0.00    +0.000 A 
ATOM     25  C   UNL     1       7.227   5.045  15.775  0.00  0.00    +0.000 A 
ATOM     26  C   UNL     1       6.150   4.687  16.594  0.00  0.00    +0.000 A 
ATOM     27  C   UNL     1       5.075   4.000  16.021  0.00  0.00    +0.000 A 
ATOM     28  C   UNL     1       5.081   3.678  14.657  0.00  0.00    +0.000 A 
ENDBRANCH  21  26
ENDBRANCH   1  21
TORSDOF 4
ENDMDL
MODEL 8
REMARK VINA RESULT:      -7.9      2.373      4.099
REMARK  Name = 
REMARK  5 active torsions:
REMARK  status: ('A' for Active; 'I' for Inactive)
REMARK    1  A    between atoms: C_1  and  C_2
REMARK    2  A    between atoms: C_5  and  S_6
REMARK    3  A    between atoms: S_6  and  C_7
REMARK    4  A    between atoms: C_13  and  C_14
REMARK    5  A    between atoms: N_16  and  C_17
REMARK                            x       y       z     vdW  Elec       q    Type
REMARK                         _______ _______ _______ _____ _____    ______ ____
ROOT
ATOM      1  C   UNL     1      -0.534  11.563  21.167  0.00  0.00    +0.000 A 
ATOM      2  C   UNL     1      -1.094  11.526  22.439  0.00  0.00    +0.000 A 
ATOM      3  N   UNL     1      -0.933  10.519  23.323  0.00  0.00    +0.000 NA
ATOM      4  C   UNL     1      -0.200   9.448  22.952  0.00  0.00    +0.000 A 
ATOM      5  C   UNL     1       0.370   9.390  21.678  0.00  0.00    +0.000 A 
ATOM      6  S   UNL     1       1.301   8.098  21.031  0.00  0.00    +0.000 S 
ATOM      7  C   UNL     1       1.500   8.875  19.525  0.00  0.00    +0.000 A 
ATOM      8  C   UNL     1       0.888  10.113  19.525  0.00  0.00    +0.000 A 
ATOM      9  C   UNL     1       0.219  10.436  20.760  0.00  0.00    +0.000 A 
ENDROOT
BRANCH   7  10
ATOM     10  C   UNL     1       2.233   8.268  18.415  0.00  0.00    +0.000 C 
ATOM     11  O   UNL     1       2.136   8.715  17.278  0.00  0.00    +0.000 OA
ATOM     12  N   UNL     1       2.982   7.150  18.755  0.00  0.00    +0.000 N 
ATOM     13  H   UNL     1       2.865   6.817  19.704  0.00  0.00    +0.000 HD
BRANCH  12  14
ATOM     14  C   UNL     1       3.759   6.351  17.895  0.00  0.00    +0.000 A 
ATOM     15  C   UNL     1       4.822   6.845  17.135  0.00  0.00    +0.000 A 
ATOM     16  C   UNL     1       5.511   6.009  16.251  0.00  0.00    +0.000 A 
ATOM     17  C   UNL     1       5.140   4.674  16.126  0.00  0.00    +0.000 A 
ATOM     18 CL   UNL     1       5.952   3.662  14.998  0.00  0.00    +0.000 Cl
ATOM     19  C   UNL     1       4.109   4.158  16.906  0.00  0.00    +0.000 A 
ATOM     20  C   UNL     1       3.429   4.993  17.801  0.00  0.00    +0.000 A 
ENDBRANCH  12  14
ENDBRANCH   7  10
BRANCH   1  21
ATOM     21  S   UNL     1      -0.834  12.899  20.051  0.00  0.00    +0.000 S 
BRANCH  21  26
ATOM     22  C   UNL     1       4.782  15.234  19.471  0.00  0.00    +0.000 C 
ATOM     23  C   UNL     1       3.381  14.714  19.615  0.00  0.00    +0.000 A 
ATOM     24  C   UNL     1       2.939  14.159  20.818  0.00  0.00    +0.000 A 
ATOM     25  C   UNL     1       1.643  13.645  20.926  0.00  0.00    +0.000 A 
ATOM     26  C   UNL     1       0.761  13.677  19.839  0.00  0.00    +0.000 A 
ATOM     27  C   UNL     1       1.203  14.239  18.638  0.00  0.00    +0.000 A 
ATOM     28  C   UNL     1       2.501  14.756  18.528  0.00  0.00    +0.000 A 
ENDBRANCH  21  26
ENDBRANCH   1  21
TORSDOF 4
ENDMDL
MODEL 9
REMARK VINA RESULT:      -7.8      3.907      9.371
REMARK  Name = 
REMARK  5 active torsions:
REMARK  status: ('A' for Active; 'I' for Inactive)
REMARK    1  A    between atoms: C_1  and  C_2
REMARK    2  A    between atoms: C_5  and  S_6
REMARK    3  A    between atoms: S_6  and  C_7
REMARK    4  A    between atoms: C_13  and  C_14
REMARK    5  A    between atoms: N_16  and  C_17
REMARK                            x       y       z     vdW  Elec       q    Type
REMARK                         _______ _______ _______ _____ _____    ______ ____
ROOT
ATOM      1  C   UNL     1       4.437   3.886  18.592  0.00  0.00    +0.000 A 
ATOM      2  C   UNL     1       4.449   2.736  19.371  0.00  0.00    +0.000 A 
ATOM      3  N   UNL     1       3.655   2.521  20.440  0.00  0.00    +0.000 NA
ATOM      4  C   UNL     1       2.796   3.495  20.811  0.00  0.00    +0.000 A 
ATOM      5  C   UNL     1       2.745   4.697  20.101  0.00  0.00    +0.000 A 
ATOM      6  S   UNL     1       1.742   6.049  20.450  0.00  0.00    +0.000 S 
ATOM      7  C   UNL     1       2.374   6.966  19.157  0.00  0.00    +0.000 A 
ATOM      8  C   UNL     1       3.317   6.241  18.454  0.00  0.00    +0.000 A 
ATOM      9  C   UNL     1       3.556   4.922  18.983  0.00  0.00    +0.000 A 
ENDROOT
BRANCH   7  10
ATOM     10  C   UNL     1       1.939   8.333  18.872  0.00  0.00    +0.000 C 
ATOM     11  O   UNL     1       2.330   8.921  17.872  0.00  0.00    +0.000 OA
ATOM     12  N   UNL     1       1.110   8.892  19.835  0.00  0.00    +0.000 N 
ATOM     13  H   UNL     1       0.975   8.337  20.672  0.00  0.00    +0.000 HD
BRANCH  12  14
ATOM     14  C   UNL     1       0.566  10.189  19.842  0.00  0.00    +0.000 A 
ATOM     15  C   UNL     1      -0.412  10.620  18.942  0.00  0.00    +0.000 A 
ATOM     16  C   UNL     1      -0.863  11.943  18.962  0.00  0.00    +0.000 A 
ATOM     17  C   UNL     1      -0.337  12.841  19.885  0.00  0.00    +0.000 A 
ATOM     18 CL   UNL     1      -0.852  14.481  19.872  0.00  0.00    +0.000 Cl
ATOM     19  C   UNL     1       0.609  12.417  20.814  0.00  0.00    +0.000 A 
ATOM     20  C   UNL     1       1.049  11.088  20.801  0.00  0.00    +0.000 A 
ENDBRANCH  12  14
ENDBRANCH   7  10
BRANCH   1  21
ATOM     21  S   UNL     1       5.546   4.110  17.235  0.00  0.00    +0.000 S 
BRANCH  21  26
ATOM     22  C   UNL     1       8.853   9.089  18.495  0.00  0.00    +0.000 C 
ATOM     23  C   UNL     1       7.995   7.891  18.209  0.00  0.00    +0.000 A 
ATOM     24  C   UNL     1       8.140   6.711  18.941  0.00  0.00    +0.000 A 
ATOM     25  C   UNL     1       7.358   5.591  18.640  0.00  0.00    +0.000 A 
ATOM     26  C   UNL     1       6.416   5.626  17.606  0.00  0.00    +0.000 A 
ATOM     27  C   UNL     1       6.267   6.811  16.879  0.00  0.00    +0.000 A 
ATOM     28  C   UNL     1       7.048   7.934  17.180  0.00  0.00    +0.000 A 
ENDBRANCH  21  26
ENDBRANCH   1  21
TORSDOF 4
ENDMDL
