MODEL 1
REMARK VINA RESULT:      -7.9      0.000      0.000
REMARK  Name = 
REMARK  5 active torsions:
REMARK  status: ('A' for Active; 'I' for Inactive)
REMARK    1  A    between atoms: C_1  and  C_2
REMARK    2  A    between atoms: C_2  and  C_4
REMARK    3  A    between atoms: C_5  and  C_6
REMARK    4  A    between atoms: C_8  and  C_9
REMARK    5  A    between atoms: C_21  and  C_22
REMARK                            x       y       z     vdW  Elec       q    Type
REMARK                         _______ _______ _______ _____ _____    ______ ____
ROOT
ATOM      1  C   UNL     1       2.208   5.952  19.657  0.00  0.00    +0.000 C 
ATOM      2  O   UNL     1       1.427   5.439  20.453  0.00  0.00    +0.000 OA
ATOM      3  N   UNL     1       2.325   7.309  19.452  0.00  0.00    +0.000 N 
ATOM      4  C   UNL     1       1.584   8.202  20.180  0.00  0.00    +0.000 A 
ATOM      5  N   UNL     1       1.037   9.285  19.685  0.00  0.00    +0.000 NA
ATOM      6  C   UNL     1       0.340   9.841  20.731  0.00  0.00    +0.000 A 
ATOM      7  C   UNL     1      -0.547  10.928  20.739  0.00  0.00    +0.000 A 
ATOM      8  C   UNL     1      -1.105  11.330  21.959  0.00  0.00    +0.000 A 
ATOM      9  C   UNL     1      -0.762  10.684  23.149  0.00  0.00    +0.000 A 
ATOM     10  C   UNL     1       0.105   9.583  23.159  0.00  0.00    +0.000 A 
ATOM     11  C   UNL     1       0.601   9.170  21.920  0.00  0.00    +0.000 A 
ATOM     12  N   UNL     1       1.369   8.101  21.531  0.00  0.00    +0.000 N 
ATOM     13  H   UNL     1       2.619   7.623  18.537  0.00  0.00    +0.000 HD
ATOM     14  H   UNL     1       1.729   7.368  22.125  0.00  0.00    +0.000 HD
ENDROOT
BRANCH   1  19
ATOM     15  C   UNL     1       4.553   4.310  17.262  0.00  0.00    +0.000 A 
ATOM     16  C   UNL     1       3.933   3.247  17.914  0.00  0.00    +0.000 A 
ATOM     17  C   UNL     1       4.046   1.762  17.831  0.00  0.00    +0.000 C 
ATOM     18  N   UNL     1       3.047   3.778  18.825  0.00  0.00    +0.000 N 
ATOM     19  C   UNL     1       3.041   5.150  18.777  0.00  0.00    +0.000 A 
ATOM     20  C   UNL     1       3.992   5.520  17.834  0.00  0.00    +0.000 A 
ATOM     21  C   UNL     1       4.424   6.912  17.498  0.00  0.00    +0.000 C 
ATOM     22  H   UNL     1       2.462   3.241  19.455  0.00  0.00    +0.000 HD
BRANCH  15  24
ATOM     23  C   UNL     1       7.053   4.423  16.561  0.00  0.00    +0.000 C 
ATOM     24  C   UNL     1       5.597   4.288  16.212  0.00  0.00    +0.000 C 
ATOM     25  O   UNL     1       5.295   4.161  15.024  0.00  0.00    +0.000 OA
ENDBRANCH  15  24
ENDBRANCH   1  19
TORSDOF 2
ENDMDL
MODEL 2
REMARK VINA RESULT:      -7.7      2.133      3.025
REMARK  Name = 
REMARK  5 active torsions:
REMARK  status: ('A' for Active; 'I' for Inactive)
REMARK    1  A    between atoms: C_1  and  C_2
REMARK    2  A    between atoms: C_2  and  C_4
REMARK    3  A    between atoms: C_5  and  C_6
REMARK    4  A    between atoms: C_8  and  C_9
REMARK    5  A    between atoms: C_21  and  C_22
REMARK                            x       y       z     vdW  Elec       q    Type
REMARK                         _______ _______ _______ _____ _____    ______ ____
ROOT
ATOM      1  C   UNL     1       2.048   6.974  20.078  0.00  0.00    +0.000 C 
ATOM      2  O   UNL     1       1.299   6.954  21.051  0.00  0.00    +0.000 OA
ATOM      3  N   UNL     1       2.078   7.989  19.147  0.00  0.00    +0.000 N 
ATOM      4  C   UNL     1       1.282   9.095  19.277  0.00  0.00    +0.000 A 
ATOM      5  N   UNL     1       0.667   9.686  18.281  0.00  0.00    +0.000 NA
ATOM      6  C   UNL     1      -0.065  10.693  18.862  0.00  0.00    +0.000 A 
ATOM      7  C   UNL     1      -1.019  11.550  18.292  0.00  0.00    +0.000 A 
ATOM      8  C   UNL     1      -1.603  12.534  19.098  0.00  0.00    +0.000 A 
ATOM      9  C   UNL     1      -1.222  12.684  20.433  0.00  0.00    +0.000 A 
ATOM     10  C   UNL     1      -0.287  11.825  21.026  0.00  0.00    +0.000 A 
ATOM     11  C   UNL     1       0.237  10.817  20.213  0.00  0.00    +0.000 A 
ATOM     12  N   UNL     1       1.071   9.756  20.461  0.00  0.00    +0.000 N 
ATOM     13  H   UNL     1       2.353   7.753  18.203  0.00  0.00    +0.000 HD
ATOM     14  H   UNL     1       1.476   9.500  21.350  0.00  0.00    +0.000 HD
ENDROOT
BRANCH   1  19
ATOM     15  C   UNL     1       3.971   3.836  19.460  0.00  0.00    +0.000 A 
ATOM     16  C   UNL     1       4.735   4.829  18.851  0.00  0.00    +0.000 A 
ATOM     17  C   UNL     1       6.016   4.840  18.088  0.00  0.00    +0.000 C 
ATOM     18  N   UNL     1       4.081   6.027  19.036  0.00  0.00    +0.000 N 
ATOM     19  C   UNL     1       2.931   5.864  19.767  0.00  0.00    +0.000 A 
ATOM     20  C   UNL     1       2.812   4.504  20.024  0.00  0.00    +0.000 A 
ATOM     21  C   UNL     1       1.669   3.818  20.702  0.00  0.00    +0.000 C 
ATOM     22  H   UNL     1       4.398   6.926  18.689  0.00  0.00    +0.000 HD
BRANCH  15  24
ATOM     23  C   UNL     1       3.592   1.435  18.541  0.00  0.00    +0.000 C 
ATOM     24  C   UNL     1       4.213   2.377  19.535  0.00  0.00    +0.000 C 
ATOM     25  O   UNL     1       4.930   1.901  20.417  0.00  0.00    +0.000 OA
ENDBRANCH  15  24
ENDBRANCH   1  19
TORSDOF 2
ENDMDL
MODEL 3
REMARK VINA RESULT:      -7.6      2.260      8.421
REMARK  Name = 
REMARK  5 active torsions:
REMARK  status: ('A' for Active; 'I' for Inactive)
REMARK    1  A    between atoms: C_1  and  C_2
REMARK    2  A    between atoms: C_2  and  C_4
REMARK    3  A    between atoms: C_5  and  C_6
REMARK    4  A    between atoms: C_8  and  C_9
REMARK    5  A    between atoms: C_21  and  C_22
REMARK                            x       y       z     vdW  Elec       q    Type
REMARK                         _______ _______ _______ _____ _____    ______ ____
ROOT
ATOM      1  C   UNL     1       1.309   8.568  20.162  0.00  0.00    +0.000 C 
ATOM      2  O   UNL     1       1.484   7.634  20.939  0.00  0.00    +0.000 OA
ATOM      3  N   UNL     1       1.818   8.615  18.883  0.00  0.00    +0.000 N 
ATOM      4  C   UNL     1       2.537   7.570  18.367  0.00  0.00    +0.000 A 
ATOM      5  N   UNL     1       3.604   7.705  17.618  0.00  0.00    +0.000 NA
ATOM      6  C   UNL     1       4.039   6.422  17.385  0.00  0.00    +0.000 A 
ATOM      7  C   UNL     1       5.216   5.974  16.765  0.00  0.00    +0.000 A 
ATOM      8  C   UNL     1       5.410   4.596  16.612  0.00  0.00    +0.000 A 
ATOM      9  C   UNL     1       4.440   3.686  17.036  0.00  0.00    +0.000 A 
ATOM     10  C   UNL     1       3.269   4.112  17.676  0.00  0.00    +0.000 A 
ATOM     11  C   UNL     1       3.129   5.489  17.866  0.00  0.00    +0.000 A 
ATOM     12  N   UNL     1       2.196   6.250  18.525  0.00  0.00    +0.000 N 
ATOM     13  H   UNL     1       2.020   9.525  18.490  0.00  0.00    +0.000 HD
ATOM     14  H   UNL     1       1.391   5.914  19.032  0.00  0.00    +0.000 HD
ENDROOT
BRANCH   1  19
ATOM     15  C   UNL     1      -0.477  11.497  21.633  0.00  0.00    +0.000 A 
ATOM     16  C   UNL     1      -0.293  11.846  20.297  0.00  0.00    +0.000 A 
ATOM     17  C   UNL     1      -0.636  13.041  19.474  0.00  0.00    +0.000 C 
ATOM     18  N   UNL     1       0.369  10.806  19.684  0.00  0.00    +0.000 N 
ATOM     19  C   UNL     1       0.603   9.774  20.559  0.00  0.00    +0.000 A 
ATOM     20  C   UNL     1       0.116  10.182  21.794  0.00  0.00    +0.000 A 
ATOM     21  C   UNL     1       0.231   9.442  23.089  0.00  0.00    +0.000 C 
ATOM     22  H   UNL     1       0.651  10.785  18.710  0.00  0.00    +0.000 HD
BRANCH  15  24
ATOM     23  C   UNL     1      -2.524  11.983  23.158  0.00  0.00    +0.000 C 
ATOM     24  C   UNL     1      -1.112  12.267  22.727  0.00  0.00    +0.000 C 
ATOM     25  O   UNL     1      -0.495  13.161  23.309  0.00  0.00    +0.000 OA
ENDBRANCH  15  24
ENDBRANCH   1  19
TORSDOF 2
ENDMDL
MODEL 4
REMARK VINA RESULT:      -7.6      2.241      8.353
REMARK  Name = 
REMARK  5 active torsions:
REMARK  status: ('A' for Active; 'I' for Inactive)
REMARK    1  A    between atoms: C_1  and  C_2
REMARK    2  A    between atoms: C_2  and  C_4
REMARK    3  A    between atoms: C_5  and  C_6
REMARK    4  A    between atoms: C_8  and  C_9
REMARK    5  A    between atoms: C_21  and  C_22
REMARK                            x       y       z     vdW  Elec       q    Type
REMARK                         _______ _______ _______ _____ _____    ______ ____
ROOT
ATOM      1  C   UNL     1       1.564   9.078  18.555  0.00  0.00    +0.000 C 
ATOM      2  O   UNL     1       1.866   9.469  17.431  0.00  0.00    +0.000 OA
ATOM      3  N   UNL     1       1.982   7.882  19.096  0.00  0.00    +0.000 N 
ATOM      4  C   UNL     1       2.824   7.049  18.409  0.00  0.00    +0.000 A 
ATOM      5  N   UNL     1       2.718   5.742  18.390  0.00  0.00    +0.000 NA
ATOM      6  C   UNL     1       3.707   5.318  17.535  0.00  0.00    +0.000 A 
ATOM      7  C   UNL     1       3.965   4.034  17.032  0.00  0.00    +0.000 A 
ATOM      8  C   UNL     1       5.073   3.851  16.196  0.00  0.00    +0.000 A 
ATOM      9  C   UNL     1       5.925   4.916  15.896  0.00  0.00    +0.000 A 
ATOM     10  C   UNL     1       5.673   6.210  16.371  0.00  0.00    +0.000 A 
ATOM     11  C   UNL     1       4.528   6.373  17.155  0.00  0.00    +0.000 A 
ATOM     12  N   UNL     1       3.917   7.476  17.697  0.00  0.00    +0.000 N 
ATOM     13  H   UNL     1       1.381   7.437  19.776  0.00  0.00    +0.000 HD
ATOM     14  H   UNL     1       4.212   8.437  17.605  0.00  0.00    +0.000 HD
ENDROOT
BRANCH   1  19
ATOM     15  C   UNL     1      -0.528  10.817  21.111  0.00  0.00    +0.000 A 
ATOM     16  C   UNL     1      -1.009  11.295  19.894  0.00  0.00    +0.000 A 
ATOM     17  C   UNL     1      -2.071  12.264  19.500  0.00  0.00    +0.000 C 
ATOM     18  N   UNL     1      -0.277  10.695  18.893  0.00  0.00    +0.000 N 
ATOM     19  C   UNL     1       0.649   9.820  19.405  0.00  0.00    +0.000 A 
ATOM     20  C   UNL     1       0.544   9.892  20.788  0.00  0.00    +0.000 A 
ATOM     21  C   UNL     1       1.413   9.199  21.788  0.00  0.00    +0.000 C 
ATOM     22  H   UNL     1      -0.396  10.862  17.901  0.00  0.00    +0.000 HD
BRANCH  15  24
ATOM     23  C   UNL     1      -1.090  12.588  22.928  0.00  0.00    +0.000 C 
ATOM     24  C   UNL     1      -0.952  11.156  22.488  0.00  0.00    +0.000 C 
ATOM     25  O   UNL     1      -1.200  10.271  23.308  0.00  0.00    +0.000 OA
ENDBRANCH  15  24
ENDBRANCH   1  19
TORSDOF 2
ENDMDL
MODEL 5
REMARK VINA RESULT:      -7.6      2.217      3.275
REMARK  Name = 
REMARK  5 active torsions:
REMARK  status: ('A' for Active; 'I' for Inactive)
REMARK    1  A    between atoms: C_1  and  C_2
REMARK    2  A    between atoms: C_2  and  C_4
REMARK    3  A    between atoms: C_5  and  C_6
REMARK    4  A    between atoms: C_8  and  C_9
REMARK    5  A    between atoms: C_21  and  C_22
REMARK                            x       y       z     vdW  Elec       q    Type
REMARK                         _______ _______ _______ _____ _____    ______ ____
ROOT
ATOM      1  C   UNL     1       2.004   8.045  19.259  0.00  0.00    +0.000 C 
ATOM      2  O   UNL     1       2.316   8.660  18.244  0.00  0.00    +0.000 OA
ATOM      3  N   UNL     1       1.324   8.598  20.321  0.00  0.00    +0.000 N 
ATOM      4  C   UNL     1       0.900   9.900  20.292  0.00  0.00    +0.000 A 
ATOM      5  N   UNL     1       0.947  10.717  21.315  0.00  0.00    +0.000 NA
ATOM      6  C   UNL     1       0.496  11.921  20.830  0.00  0.00    +0.000 A 
ATOM      7  C   UNL     1       0.469  13.181  21.447  0.00  0.00    +0.000 A 
ATOM      8  C   UNL     1      -0.086  14.259  20.746  0.00  0.00    +0.000 A 
ATOM      9  C   UNL     1      -0.633  14.079  19.474  0.00  0.00    +0.000 A 
ATOM     10  C   UNL     1      -0.596  12.833  18.833  0.00  0.00    +0.000 A 
ATOM     11  C   UNL     1       0.015  11.790  19.533  0.00  0.00    +0.000 A 
ATOM     12  N   UNL     1       0.323  10.495  19.198  0.00  0.00    +0.000 N 
ATOM     13  H   UNL     1       1.490   8.211  21.241  0.00  0.00    +0.000 HD
ATOM     14  H   UNL     1       0.151  10.043  18.312  0.00  0.00    +0.000 HD
ENDROOT
BRANCH   1  19
ATOM     15  C   UNL     1       3.349   4.567  19.445  0.00  0.00    +0.000 A 
ATOM     16  C   UNL     1       2.510   4.668  20.552  0.00  0.00    +0.000 A 
ATOM     17  C   UNL     1       2.123   3.742  21.655  0.00  0.00    +0.000 C 
ATOM     18  N   UNL     1       1.974   5.936  20.553  0.00  0.00    +0.000 N 
ATOM     19  C   UNL     1       2.407   6.665  19.473  0.00  0.00    +0.000 A 
ATOM     20  C   UNL     1       3.292   5.854  18.775  0.00  0.00    +0.000 A 
ATOM     21  C   UNL     1       4.103   6.239  17.579  0.00  0.00    +0.000 C 
ATOM     22  H   UNL     1       1.335   6.301  21.251  0.00  0.00    +0.000 HD
BRANCH  15  24
ATOM     23  C   UNL     1       3.667   2.445  17.979  0.00  0.00    +0.000 C 
ATOM     24  C   UNL     1       4.180   3.428  18.995  0.00  0.00    +0.000 C 
ATOM     25  O   UNL     1       5.314   3.257  19.446  0.00  0.00    +0.000 OA
ENDBRANCH  15  24
ENDBRANCH   1  19
TORSDOF 2
ENDMDL
MODEL 6
REMARK VINA RESULT:      -7.5      2.009      2.971
REMARK  Name = 
REMARK  5 active torsions:
REMARK  status: ('A' for Active; 'I' for Inactive)
REMARK    1  A    between atoms: C_1  and  C_2
REMARK    2  A    between atoms: C_2  and  C_4
REMARK    3  A    between atoms: C_5  and  C_6
REMARK    4  A    between atoms: C_8  and  C_9
REMARK    5  A    between atoms: C_21  and  C_22
REMARK                            x       y       z     vdW  Elec       q    Type
REMARK                         _______ _______ _______ _____ _____    ______ ____
ROOT
ATOM      1  C   UNL     1       1.745   7.899  20.053  0.00  0.00    +0.000 C 
ATOM      2  O   UNL     1       1.346   7.779  21.208  0.00  0.00    +0.000 OA
ATOM      3  N   UNL     1       1.397   8.939  19.220  0.00  0.00    +0.000 N 
ATOM      4  C   UNL     1       0.595   9.960  19.655  0.00  0.00    +0.000 A 
ATOM      5  N   UNL     1      -0.347  10.518  18.936  0.00  0.00    +0.000 NA
ATOM      6  C   UNL     1      -0.938  11.434  19.774  0.00  0.00    +0.000 A 
ATOM      7  C   UNL     1      -2.090  12.212  19.580  0.00  0.00    +0.000 A 
ATOM      8  C   UNL     1      -2.468  13.112  20.584  0.00  0.00    +0.000 A 
ATOM      9  C   UNL     1      -1.698  13.257  21.740  0.00  0.00    +0.000 A 
ATOM     10  C   UNL     1      -0.557  12.474  21.962  0.00  0.00    +0.000 A 
ATOM     11  C   UNL     1      -0.237  11.546  20.969  0.00  0.00    +0.000 A 
ATOM     12  N   UNL     1       0.716  10.562  20.883  0.00  0.00    +0.000 N 
ATOM     13  H   UNL     1       1.379   8.759  18.225  0.00  0.00    +0.000 HD
ATOM     14  H   UNL     1       1.400  10.320  21.585  0.00  0.00    +0.000 HD
ENDROOT
BRANCH   1  19
ATOM     15  C   UNL     1       3.680   4.989  18.741  0.00  0.00    +0.000 A 
ATOM     16  C   UNL     1       3.956   6.016  17.841  0.00  0.00    +0.000 A 
ATOM     17  C   UNL     1       4.777   6.125  16.601  0.00  0.00    +0.000 C 
ATOM     18  N   UNL     1       3.267   7.133  18.261  0.00  0.00    +0.000 N 
ATOM     19  C   UNL     1       2.572   6.887  19.419  0.00  0.00    +0.000 A 
ATOM     20  C   UNL     1       2.780   5.550  19.733  0.00  0.00    +0.000 A 
ATOM     21  C   UNL     1       2.148   4.785  20.852  0.00  0.00    +0.000 C 
ATOM     22  H   UNL     1       3.267   8.031  17.791  0.00  0.00    +0.000 HD
BRANCH  15  24
ATOM     23  C   UNL     1       3.494   2.549  17.867  0.00  0.00    +0.000 C 
ATOM     24  C   UNL     1       4.149   3.586  18.738  0.00  0.00    +0.000 C 
ATOM     25  O   UNL     1       5.089   3.232  19.453  0.00  0.00    +0.000 OA
ENDBRANCH  15  24
ENDBRANCH   1  19
TORSDOF 2
ENDMDL
MODEL 7
REMARK VINA RESULT:      -7.5      2.066      3.132
REMARK  Name = 
REMARK  5 active torsions:
REMARK  status: ('A' for Active; 'I' for Inactive)
REMARK    1  A    between atoms: C_1  and  C_2
REMARK    2  A    between atoms: C_2  and  C_4
REMARK    3  A    between atoms: C_5  and  C_6
REMARK    4  A    between atoms: C_8  and  C_9
REMARK    5  A    between atoms: C_21  and  C_22
REMARK                            x       y       z     vdW  Elec       q    Type
REMARK                         _______ _______ _______ _____ _____    ______ ____
ROOT
ATOM      1  C   UNL     1       2.192   8.355  18.245  0.00  0.00    +0.000 C 
ATOM      2  O   UNL     1       2.031   9.187  17.357  0.00  0.00    +0.000 OA
ATOM      3  N   UNL     1       1.649   8.456  19.507  0.00  0.00    +0.000 N 
ATOM      4  C   UNL     1       0.835   9.503  19.847  0.00  0.00    +0.000 A 
ATOM      5  N   UNL     1       0.863  10.117  21.004  0.00  0.00    +0.000 NA
ATOM      6  C   UNL     1      -0.057  11.132  20.891  0.00  0.00    +0.000 A 
ATOM      7  C   UNL     1      -0.338  12.188  21.771  0.00  0.00    +0.000 A 
ATOM      8  C   UNL     1      -1.364  13.082  21.441  0.00  0.00    +0.000 A 
ATOM      9  C   UNL     1      -2.115  12.908  20.277  0.00  0.00    +0.000 A 
ATOM     10  C   UNL     1      -1.836  11.873  19.374  0.00  0.00    +0.000 A 
ATOM     11  C   UNL     1      -0.770  11.032  19.702  0.00  0.00    +0.000 A 
ATOM     12  N   UNL     1      -0.152  10.004  19.035  0.00  0.00    +0.000 N 
ATOM     13  H   UNL     1       2.150   8.022  20.271  0.00  0.00    +0.000 HD
ATOM     14  H   UNL     1      -0.379   9.659  18.113  0.00  0.00    +0.000 HD
ENDROOT
BRANCH   1  19
ATOM     15  C   UNL     1       4.121   5.163  18.095  0.00  0.00    +0.000 A 
ATOM     16  C   UNL     1       4.720   5.969  17.130  0.00  0.00    +0.000 A 
ATOM     17  C   UNL     1       5.847   5.786  16.170  0.00  0.00    +0.000 C 
ATOM     18  N   UNL     1       4.054   7.174  17.124  0.00  0.00    +0.000 N 
ATOM     19  C   UNL     1       3.058   7.202  18.067  0.00  0.00    +0.000 A 
ATOM     20  C   UNL     1       3.048   5.952  18.673  0.00  0.00    +0.000 A 
ATOM     21  C   UNL     1       2.073   5.461  19.695  0.00  0.00    +0.000 C 
ATOM     22  H   UNL     1       4.264   7.955  16.512  0.00  0.00    +0.000 HD
BRANCH  15  24
ATOM     23  C   UNL     1       3.729   2.605  17.856  0.00  0.00    +0.000 C 
ATOM     24  C   UNL     1       4.439   3.771  18.487  0.00  0.00    +0.000 C 
ATOM     25  O   UNL     1       5.294   3.536  19.343  0.00  0.00    +0.000 OA
ENDBRANCH  15  24
ENDBRANCH   1  19
TORSDOF 2
ENDMDL
MODEL 8
REMARK VINA RESULT:      -7.5      1.032      1.085
REMARK  Name = 
REMARK  5 active torsions:
REMARK  status: ('A' for Active; 'I' for Inactive)
REMARK    1  A    between atoms: C_1  and  C_2
REMARK    2  A    between atoms: C_2  and  C_4
REMARK    3  A    between atoms: C_5  and  C_6
REMARK    4  A    between atoms: C_8  and  C_9
REMARK    5  A    between atoms: C_21  and  C_22
REMARK                            x       y       z     vdW  Elec       q    Type
REMARK                         _______ _______ _______ _____ _____    ______ ____
ROOT
ATOM      1  C   UNL     1       2.025   6.245  20.220  0.00  0.00    +0.000 C 
ATOM      2  O   UNL     1       1.091   5.781  20.867  0.00  0.00    +0.000 OA
ATOM      3  N   UNL     1       2.229   7.591  20.011  0.00  0.00    +0.000 N 
ATOM      4  C   UNL     1       1.400   8.528  20.568  0.00  0.00    +0.000 A 
ATOM      5  N   UNL     1       0.995   9.615  19.957  0.00  0.00    +0.000 NA
ATOM      6  C   UNL     1       0.137  10.222  20.842  0.00  0.00    +0.000 A 
ATOM      7  C   UNL     1      -0.695  11.338  20.660  0.00  0.00    +0.000 A 
ATOM      8  C   UNL     1      -1.455  11.792  21.745  0.00  0.00    +0.000 A 
ATOM      9  C   UNL     1      -1.363  11.169  22.992  0.00  0.00    +0.000 A 
ATOM     10  C   UNL     1      -0.555  10.041  23.187  0.00  0.00    +0.000 A 
ATOM     11  C   UNL     1       0.147   9.577  22.073  0.00  0.00    +0.000 A 
ATOM     12  N   UNL     1       0.933   8.473  21.858  0.00  0.00    +0.000 N 
ATOM     13  H   UNL     1       2.700   7.870  19.161  0.00  0.00    +0.000 HD
ATOM     14  H   UNL     1       1.149   7.745  22.523  0.00  0.00    +0.000 HD
ENDROOT
BRANCH   1  19
ATOM     15  C   UNL     1       4.588   4.447  18.187  0.00  0.00    +0.000 A 
ATOM     16  C   UNL     1       4.200   3.515  19.147  0.00  0.00    +0.000 A 
ATOM     17  C   UNL     1       4.595   2.112  19.460  0.00  0.00    +0.000 C 
ATOM     18  N   UNL     1       3.249   4.113  19.945  0.00  0.00    +0.000 N 
ATOM     19  C   UNL     1       2.977   5.392  19.529  0.00  0.00    +0.000 A 
ATOM     20  C   UNL     1       3.816   5.648  18.452  0.00  0.00    +0.000 A 
ATOM     21  C   UNL     1       3.964   6.944  17.720  0.00  0.00    +0.000 C 
ATOM     22  H   UNL     1       2.794   3.677  20.739  0.00  0.00    +0.000 HD
BRANCH  15  24
ATOM     23  C   UNL     1       5.175   4.067  15.684  0.00  0.00    +0.000 C 
ATOM     24  C   UNL     1       5.592   4.320  17.106  0.00  0.00    +0.000 C 
ATOM     25  O   UNL     1       6.796   4.418  17.349  0.00  0.00    +0.000 OA
ENDBRANCH  15  24
ENDBRANCH   1  19
TORSDOF 2
ENDMDL
MODEL 9
REMARK VINA RESULT:      -7.5      1.417      1.913
REMARK  Name = 
REMARK  5 active torsions:
REMARK  status: ('A' for Active; 'I' for Inactive)
REMARK    1  A    between atoms: C_1  and  C_2
REMARK    2  A    between atoms: C_2  and  C_4
REMARK    3  A    between atoms: C_5  and  C_6
REMARK    4  A    between atoms: C_8  and  C_9
REMARK    5  A    between atoms: C_21  and  C_22
REMARK                            x       y       z     vdW  Elec       q    Type
REMARK                         _______ _______ _______ _____ _____    ______ ____
ROOT
ATOM      1  C   UNL     1       1.958   6.723  20.209  0.00  0.00    +0.000 C 
ATOM      2  O   UNL     1       1.095   6.209  20.915  0.00  0.00    +0.000 OA
ATOM      3  N   UNL     1       2.038   8.072  19.946  0.00  0.00    +0.000 N 
ATOM      4  C   UNL     1       1.159   8.959  20.509  0.00  0.00    +0.000 A 
ATOM      5  N   UNL     1       0.638   9.984  19.881  0.00  0.00    +0.000 NA
ATOM      6  C   UNL     1      -0.228  10.552  20.784  0.00  0.00    +0.000 A 
ATOM      7  C   UNL     1      -1.157  11.588  20.604  0.00  0.00    +0.000 A 
ATOM      8  C   UNL     1      -1.904  12.019  21.707  0.00  0.00    +0.000 A 
ATOM      9  C   UNL     1      -1.706  11.453  22.968  0.00  0.00    +0.000 A 
ATOM     10  C   UNL     1      -0.799  10.403  23.164  0.00  0.00    +0.000 A 
ATOM     11  C   UNL     1      -0.110   9.957  22.034  0.00  0.00    +0.000 A 
ATOM     12  N   UNL     1       0.756   8.913  21.820  0.00  0.00    +0.000 N 
ATOM     13  H   UNL     1       2.446   8.357  19.065  0.00  0.00    +0.000 HD
ATOM     14  H   UNL     1       1.060   8.232  22.499  0.00  0.00    +0.000 HD
ENDROOT
BRANCH   1  19
ATOM     15  C   UNL     1       4.131   4.525  18.117  0.00  0.00    +0.000 A 
ATOM     16  C   UNL     1       5.027   5.215  18.930  0.00  0.00    +0.000 A 
ATOM     17  C   UNL     1       6.511   5.225  19.075  0.00  0.00    +0.000 C 
ATOM     18  N   UNL     1       4.292   6.056  19.736  0.00  0.00    +0.000 N 
ATOM     19  C   UNL     1       2.946   5.926  19.503  0.00  0.00    +0.000 A 
ATOM     20  C   UNL     1       2.807   5.001  18.476  0.00  0.00    +0.000 A 
ATOM     21  C   UNL     1       1.535   4.599  17.800  0.00  0.00    +0.000 C 
ATOM     22  H   UNL     1       4.679   6.693  20.424  0.00  0.00    +0.000 HD
BRANCH  15  24
ATOM     23  C   UNL     1       5.149   3.888  15.812  0.00  0.00    +0.000 C 
ATOM     24  C   UNL     1       4.400   3.520  17.063  0.00  0.00    +0.000 C 
ATOM     25  O   UNL     1       4.014   2.357  17.188  0.00  0.00    +0.000 OA
ENDBRANCH  15  24
ENDBRANCH   1  19
TORSDOF 2
ENDMDL
