MODEL 1
REMARK VINA RESULT:      -8.2      0.000      0.000
REMARK  Name = 
REMARK  6 active torsions:
REMARK  status: ('A' for Active; 'I' for Inactive)
REMARK    1  A    between atoms: C_1  and  C_2
REMARK    2  A    between atoms: C_11  and  C_13
REMARK    3  A    between atoms: C_17  and  C_18
REMARK    4  A    between atoms: N_20  and  C_21
REMARK    5  A    between atoms: C_21  and  C_22
REMARK    6  A    between atoms: C_25  and  C_26
REMARK                            x       y       z     vdW  Elec       q    Type
REMARK                         _______ _______ _______ _____ _____    ______ ____
ROOT
ATOM      1  C   UNL     1       5.844   4.573  17.188  0.00  0.00    +0.000 C 
ATOM      2  C   UNL     1       6.308   3.802  16.195  0.00  0.00    +0.000 C 
ATOM      3  C   UNL     1       7.308   4.506  15.351  0.00  0.00    +0.000 C 
ATOM      4  C   UNL     1       7.094   5.972  15.681  0.00  0.00    +0.000 C 
ATOM      5  C   UNL     1       6.159   6.026  16.909  0.00  0.00    +0.000 C 
ENDROOT
BRANCH   1  16
ATOM      6  C   UNL     1       3.123   2.974  16.218  0.00  0.00    +0.000 C 
ATOM      7  C   UNL     1       2.821   4.041  17.272  0.00  0.00    +0.000 C 
ATOM      8  C   UNL     1       1.385   3.825  17.791  0.00  0.00    +0.000 C 
ATOM      9  C   UNL     1       1.612   3.532  19.236  0.00  0.00    +0.000 A 
ATOM     10  C   UNL     1       0.629   3.172  20.151  0.00  0.00    +0.000 A 
ATOM     11  C   UNL     1       1.004   2.994  21.477  0.00  0.00    +0.000 A 
ATOM     12  C   UNL     1       2.338   3.187  21.861  0.00  0.00    +0.000 A 
ATOM     13  C   UNL     1       3.320   3.537  20.918  0.00  0.00    +0.000 A 
ATOM     14  C   UNL     1       2.950   3.691  19.589  0.00  0.00    +0.000 A 
ATOM     15  N   UNL     1       3.742   4.015  18.447  0.00  0.00    +0.000 N 
ATOM     16  C   UNL     1       5.122   4.227  18.470  0.00  0.00    +0.000 C 
ATOM     17  O   UNL     1       5.827   3.997  19.456  0.00  0.00    +0.000 OA
ENDBRANCH   1  16
BRANCH   5  18
ATOM     18  C   UNL     1       4.884   6.791  16.510  0.00  0.00    +0.000 C 
ATOM     19  O   UNL     1       4.651   7.193  15.376  0.00  0.00    +0.000 OA
ATOM     20  N   UNL     1       4.035   7.068  17.566  0.00  0.00    +0.000 N 
ATOM     21  H   UNL     1       4.228   6.708  18.491  0.00  0.00    +0.000 HD
BRANCH  20  22
ATOM     22  C   UNL     1       2.827   7.831  17.354  0.00  0.00    +0.000 C 
BRANCH  22  23
ATOM     23  C   UNL     1       2.147   8.133  18.662  0.00  0.00    +0.000 A 
ATOM     24  C   UNL     1       1.436   9.332  18.830  0.00  0.00    +0.000 A 
ATOM     25  C   UNL     1       0.842   9.643  20.056  0.00  0.00    +0.000 A 
ATOM     26  C   UNL     1       0.962   8.757  21.132  0.00  0.00    +0.000 A 
ATOM     27  C   UNL     1       1.657   7.553  20.967  0.00  0.00    +0.000 A 
ATOM     28  C   UNL     1       2.250   7.246  19.740  0.00  0.00    +0.000 A 
BRANCH  26  29
ATOM     29  C   UNL     1       0.410   9.102  22.471  0.00  0.00    +0.000 C 
ATOM     30  N   UNL     1       1.130   9.579  23.436  0.00  0.00    +0.000 NA
ATOM     31  N   UNL     1      -0.913   8.893  22.738  0.00  0.00    +0.000 N 
ATOM     32  H   UNL     1       2.095   9.741  23.140  0.00  0.00    +0.000 HD
ATOM     33  H   UNL     1      -1.326   8.075  22.311  0.00  0.00    +0.000 HD
ATOM     34  H   UNL     1      -1.091   8.950  23.736  0.00  0.00    +0.000 HD
ENDBRANCH  26  29
ENDBRANCH  22  23
ENDBRANCH  20  22
ENDBRANCH   5  18
TORSDOF 5
ENDMDL
MODEL 2
REMARK VINA RESULT:      -8.0      2.452      5.273
REMARK  Name = 
REMARK  6 active torsions:
REMARK  status: ('A' for Active; 'I' for Inactive)
REMARK    1  A    between atoms: C_1  and  C_2
REMARK    2  A    between atoms: C_11  and  C_13
REMARK    3  A    between atoms: C_17  and  C_18
REMARK    4  A    between atoms: N_20  and  C_21
REMARK    5  A    between atoms: C_21  and  C_22
REMARK    6  A    between atoms: C_25  and  C_26
REMARK                            x       y       z     vdW  Elec       q    Type
REMARK                         _______ _______ _______ _____ _____    ______ ____
ROOT
ATOM      1  C   UNL     1       2.881   4.123  18.963  0.00  0.00    +0.000 C 
ATOM      2  C   UNL     1       3.084   3.512  20.139  0.00  0.00    +0.000 C 
ATOM      3  C   UNL     1       1.952   3.707  21.082  0.00  0.00    +0.000 C 
ATOM      4  C   UNL     1       1.195   4.887  20.502  0.00  0.00    +0.000 C 
ATOM      5  C   UNL     1       1.776   5.147  19.095  0.00  0.00    +0.000 C 
ENDROOT
BRANCH   1  16
ATOM      6  C   UNL     1       6.019   5.047  19.406  0.00  0.00    +0.000 C 
ATOM      7  C   UNL     1       5.412   5.655  18.140  0.00  0.00    +0.000 C 
ATOM      8  C   UNL     1       6.548   6.257  17.290  0.00  0.00    +0.000 C 
ATOM      9  C   UNL     1       6.469   5.449  16.038  0.00  0.00    +0.000 A 
ATOM     10  C   UNL     1       7.347   5.536  14.964  0.00  0.00    +0.000 A 
ATOM     11  C   UNL     1       7.092   4.752  13.846  0.00  0.00    +0.000 A 
ATOM     12  C   UNL     1       5.969   3.913  13.819  0.00  0.00    +0.000 A 
ATOM     13  C   UNL     1       5.100   3.829  14.921  0.00  0.00    +0.000 A 
ATOM     14  C   UNL     1       5.369   4.594  16.047  0.00  0.00    +0.000 A 
ATOM     15  N   UNL     1       4.671   4.677  17.289  0.00  0.00    +0.000 N 
ATOM     16  C   UNL     1       3.533   3.936  17.613  0.00  0.00    +0.000 C 
ATOM     17  O   UNL     1       3.105   3.012  16.915  0.00  0.00    +0.000 OA
ENDBRANCH   1  16
BRANCH   5  18
ATOM     18  C   UNL     1       2.353   6.575  19.068  0.00  0.00    +0.000 C 
ATOM     19  O   UNL     1       2.952   7.091  20.005  0.00  0.00    +0.000 OA
ATOM     20  N   UNL     1       2.072   7.280  17.912  0.00  0.00    +0.000 N 
ATOM     21  H   UNL     1       1.599   6.832  17.138  0.00  0.00    +0.000 HD
BRANCH  20  22
ATOM     22  C   UNL     1       2.498   8.652  17.768  0.00  0.00    +0.000 C 
BRANCH  22  23
ATOM     23  C   UNL     1       1.352   9.598  18.002  0.00  0.00    +0.000 A 
ATOM     24  C   UNL     1       1.568  10.827  18.646  0.00  0.00    +0.000 A 
ATOM     25  C   UNL     1       0.502  11.690  18.911  0.00  0.00    +0.000 A 
ATOM     26  C   UNL     1      -0.796  11.326  18.540  0.00  0.00    +0.000 A 
ATOM     27  C   UNL     1      -1.017  10.109  17.886  0.00  0.00    +0.000 A 
ATOM     28  C   UNL     1       0.051   9.248  17.623  0.00  0.00    +0.000 A 
BRANCH  26  29
ATOM     29  C   UNL     1      -1.959  12.190  18.886  0.00  0.00    +0.000 C 
ATOM     30  N   UNL     1      -3.176  11.918  18.537  0.00  0.00    +0.000 NA
ATOM     31  N   UNL     1      -1.765  13.349  19.582  0.00  0.00    +0.000 N 
ATOM     32  H   UNL     1      -3.237  11.018  18.056  0.00  0.00    +0.000 HD
ATOM     33  H   UNL     1      -0.914  13.853  19.373  0.00  0.00    +0.000 HD
ATOM     34  H   UNL     1      -2.592  13.935  19.540  0.00  0.00    +0.000 HD
ENDBRANCH  26  29
ENDBRANCH  22  23
ENDBRANCH  20  22
ENDBRANCH   5  18
TORSDOF 5
ENDMDL
MODEL 3
REMARK VINA RESULT:      -8.0      0.661      1.120
REMARK  Name = 
REMARK  6 active torsions:
REMARK  status: ('A' for Active; 'I' for Inactive)
REMARK    1  A    between atoms: C_1  and  C_2
REMARK    2  A    between atoms: C_11  and  C_13
REMARK    3  A    between atoms: C_17  and  C_18
REMARK    4  A    between atoms: N_20  and  C_21
REMARK    5  A    between atoms: C_21  and  C_22
REMARK    6  A    between atoms: C_25  and  C_26
REMARK                            x       y       z     vdW  Elec       q    Type
REMARK                         _______ _______ _______ _____ _____    ______ ____
ROOT
ATOM      1  C   UNL     1       5.925   4.899  17.587  0.00  0.00    +0.000 C 
ATOM      2  C   UNL     1       6.584   4.243  16.621  0.00  0.00    +0.000 C 
ATOM      3  C   UNL     1       7.540   5.117  15.893  0.00  0.00    +0.000 C 
ATOM      4  C   UNL     1       7.085   6.522  16.241  0.00  0.00    +0.000 C 
ATOM      5  C   UNL     1       6.047   6.391  17.377  0.00  0.00    +0.000 C 
ENDROOT
BRANCH   1  16
ATOM      6  C   UNL     1       3.334   3.297  16.312  0.00  0.00    +0.000 C 
ATOM      7  C   UNL     1       2.928   4.243  17.444  0.00  0.00    +0.000 C 
ATOM      8  C   UNL     1       1.477   3.922  17.856  0.00  0.00    +0.000 C 
ATOM      9  C   UNL     1       1.638   3.498  19.277  0.00  0.00    +0.000 A 
ATOM     10  C   UNL     1       0.625   3.013  20.095  0.00  0.00    +0.000 A 
ATOM     11  C   UNL     1       0.935   2.721  21.417  0.00  0.00    +0.000 A 
ATOM     12  C   UNL     1       2.237   2.927  21.894  0.00  0.00    +0.000 A 
ATOM     13  C   UNL     1       3.252   3.405  21.048  0.00  0.00    +0.000 A 
ATOM     14  C   UNL     1       2.947   3.674  19.721  0.00  0.00    +0.000 A 
ATOM     15  N   UNL     1       3.785   4.139  18.663  0.00  0.00    +0.000 N 
ATOM     16  C   UNL     1       5.151   4.401  18.786  0.00  0.00    +0.000 C 
ATOM     17  O   UNL     1       5.811   4.103  19.785  0.00  0.00    +0.000 OA
ENDBRANCH   1  16
BRANCH   5  18
ATOM     18  C   UNL     1       4.713   6.980  16.881  0.00  0.00    +0.000 C 
ATOM     19  O   UNL     1       4.425   7.129  15.698  0.00  0.00    +0.000 OA
ATOM     20  N   UNL     1       3.873   7.413  17.890  0.00  0.00    +0.000 N 
ATOM     21  H   UNL     1       4.112   7.260  18.861  0.00  0.00    +0.000 HD
BRANCH  20  22
ATOM     22  C   UNL     1       2.611   8.041  17.575  0.00  0.00    +0.000 C 
BRANCH  22  23
ATOM     23  C   UNL     1       1.937   8.545  18.822  0.00  0.00    +0.000 A 
ATOM     24  C   UNL     1       1.924   7.760  19.987  0.00  0.00    +0.000 A 
ATOM     25  C   UNL     1       1.260   8.199  21.135  0.00  0.00    +0.000 A 
ATOM     26  C   UNL     1       0.591   9.428  21.126  0.00  0.00    +0.000 A 
ATOM     27  C   UNL     1       0.611  10.221  19.972  0.00  0.00    +0.000 A 
ATOM     28  C   UNL     1       1.277   9.779  18.827  0.00  0.00    +0.000 A 
BRANCH  26  29
ATOM     29  C   UNL     1      -0.194   9.879  22.307  0.00  0.00    +0.000 C 
ATOM     30  N   UNL     1      -0.267   9.208  23.412  0.00  0.00    +0.000 NA
ATOM     31  N   UNL     1      -0.908  11.042  22.248  0.00  0.00    +0.000 N 
ATOM     32  H   UNL     1       0.325   8.375  23.386  0.00  0.00    +0.000 HD
ATOM     33  H   UNL     1      -1.331  11.256  21.355  0.00  0.00    +0.000 HD
ATOM     34  H   UNL     1      -1.565  11.099  23.019  0.00  0.00    +0.000 HD
ENDBRANCH  26  29
ENDBRANCH  22  23
ENDBRANCH  20  22
ENDBRANCH   5  18
TORSDOF 5
ENDMDL
MODEL 4
REMARK VINA RESULT:      -7.7      2.096      5.098
REMARK  Name = 
REMARK  6 active torsions:
REMARK  status: ('A' for Active; 'I' for Inactive)
REMARK    1  A    between atoms: C_1  and  C_2
REMARK    2  A    between atoms: C_11  and  C_13
REMARK    3  A    between atoms: C_17  and  C_18
REMARK    4  A    between atoms: N_20  and  C_21
REMARK    5  A    between atoms: C_21  and  C_22
REMARK    6  A    between atoms: C_25  and  C_26
REMARK                            x       y       z     vdW  Elec       q    Type
REMARK                         _______ _______ _______ _____ _____    ______ ____
ROOT
ATOM      1  C   UNL     1       2.804   3.608  18.881  0.00  0.00    +0.000 C 
ATOM      2  C   UNL     1       2.984   2.877  19.991  0.00  0.00    +0.000 C 
ATOM      3  C   UNL     1       1.828   2.964  20.920  0.00  0.00    +0.000 C 
ATOM      4  C   UNL     1       1.074   4.194  20.449  0.00  0.00    +0.000 C 
ATOM      5  C   UNL     1       1.686   4.605  19.092  0.00  0.00    +0.000 C 
ENDROOT
BRANCH   1  16
ATOM      6  C   UNL     1       5.897   4.593  19.481  0.00  0.00    +0.000 C 
ATOM      7  C   UNL     1       5.294   5.294  18.262  0.00  0.00    +0.000 C 
ATOM      8  C   UNL     1       6.426   6.010  17.497  0.00  0.00    +0.000 C 
ATOM      9  C   UNL     1       6.402   5.319  16.176  0.00  0.00    +0.000 A 
ATOM     10  C   UNL     1       7.298   5.534  15.135  0.00  0.00    +0.000 A 
ATOM     11  C   UNL     1       7.094   4.848  13.945  0.00  0.00    +0.000 A 
ATOM     12  C   UNL     1       6.003   3.978  13.814  0.00  0.00    +0.000 A 
ATOM     13  C   UNL     1       5.115   3.763  14.883  0.00  0.00    +0.000 A 
ATOM     14  C   UNL     1       5.333   4.430  16.080  0.00  0.00    +0.000 A 
ATOM     15  N   UNL     1       4.607   4.374  17.308  0.00  0.00    +0.000 N 
ATOM     16  C   UNL     1       3.489   3.568  17.535  0.00  0.00    +0.000 C 
ATOM     17  O   UNL     1       3.109   2.699  16.746  0.00  0.00    +0.000 OA
ENDBRANCH   1  16
BRANCH   5  18
ATOM     18  C   UNL     1       2.251   6.031  19.230  0.00  0.00    +0.000 C 
ATOM     19  O   UNL     1       2.866   6.434  20.211  0.00  0.00    +0.000 OA
ATOM     20  N   UNL     1       1.939   6.870  18.176  0.00  0.00    +0.000 N 
ATOM     21  H   UNL     1       1.453   6.517  17.362  0.00  0.00    +0.000 HD
BRANCH  20  22
ATOM     22  C   UNL     1       2.351   8.254  18.194  0.00  0.00    +0.000 C 
BRANCH  22  23
ATOM     23  C   UNL     1       1.230   9.142  18.661  0.00  0.00    +0.000 A 
ATOM     24  C   UNL     1       0.340   9.706  17.732  0.00  0.00    +0.000 A 
ATOM     25  C   UNL     1      -0.675  10.570  18.152  0.00  0.00    +0.000 A 
ATOM     26  C   UNL     1      -0.804  10.885  19.508  0.00  0.00    +0.000 A 
ATOM     27  C   UNL     1       0.070  10.315  20.441  0.00  0.00    +0.000 A 
ATOM     28  C   UNL     1       1.084   9.452  20.018  0.00  0.00    +0.000 A 
BRANCH  26  29
ATOM     29  C   UNL     1      -1.824  11.867  19.970  0.00  0.00    +0.000 C 
ATOM     30  N   UNL     1      -2.757  12.337  19.206  0.00  0.00    +0.000 NA
ATOM     31  N   UNL     1      -1.785  12.337  21.253  0.00  0.00    +0.000 N 
ATOM     32  H   UNL     1      -2.737  11.906  18.280  0.00  0.00    +0.000 HD
ATOM     33  H   UNL     1      -0.864  12.469  21.648  0.00  0.00    +0.000 HD
ATOM     34  H   UNL     1      -2.378  13.154  21.353  0.00  0.00    +0.000 HD
ENDBRANCH  26  29
ENDBRANCH  22  23
ENDBRANCH  20  22
ENDBRANCH   5  18
TORSDOF 5
ENDMDL
MODEL 5
REMARK VINA RESULT:      -7.6      5.792      9.955
REMARK  Name = 
REMARK  6 active torsions:
REMARK  status: ('A' for Active; 'I' for Inactive)
REMARK    1  A    between atoms: C_1  and  C_2
REMARK    2  A    between atoms: C_11  and  C_13
REMARK    3  A    between atoms: C_17  and  C_18
REMARK    4  A    between atoms: N_20  and  C_21
REMARK    5  A    between atoms: C_21  and  C_22
REMARK    6  A    between atoms: C_25  and  C_26
REMARK                            x       y       z     vdW  Elec       q    Type
REMARK                         _______ _______ _______ _____ _____    ______ ____
ROOT
ATOM      1  C   UNL     1      -3.894  11.437  18.101  0.00  0.00    +0.000 C 
ATOM      2  C   UNL     1      -4.307  11.825  16.885  0.00  0.00    +0.000 C 
ATOM      3  C   UNL     1      -4.117  10.768  15.858  0.00  0.00    +0.000 C 
ATOM      4  C   UNL     1      -3.127   9.813  16.499  0.00  0.00    +0.000 C 
ATOM      5  C   UNL     1      -2.999  10.224  17.982  0.00  0.00    +0.000 C 
ENDROOT
BRANCH   1  16
ATOM      6  C   UNL     1      -6.614   9.838  19.072  0.00  0.00    +0.000 C 
ATOM      7  C   UNL     1      -6.708  11.344  19.327  0.00  0.00    +0.000 C 
ATOM      8  C   UNL     1      -7.913  11.612  20.251  0.00  0.00    +0.000 C 
ATOM      9  C   UNL     1      -7.262  12.207  21.455  0.00  0.00    +0.000 A 
ATOM     10  C   UNL     1      -7.910  12.550  22.636  0.00  0.00    +0.000 A 
ATOM     11  C   UNL     1      -7.162  13.153  23.640  0.00  0.00    +0.000 A 
ATOM     12  C   UNL     1      -5.798  13.408  23.442  0.00  0.00    +0.000 A 
ATOM     13  C   UNL     1      -5.158  13.041  22.246  0.00  0.00    +0.000 A 
ATOM     14  C   UNL     1      -5.900  12.417  21.252  0.00  0.00    +0.000 A 
ATOM     15  N   UNL     1      -5.495  11.929  19.974  0.00  0.00    +0.000 N 
ATOM     16  C   UNL     1      -4.190  11.982  19.479  0.00  0.00    +0.000 C 
ATOM     17  O   UNL     1      -3.219  12.312  20.163  0.00  0.00    +0.000 OA
ENDBRANCH   1  16
BRANCH   5  18
ATOM     18  C   UNL     1      -1.531  10.604  18.252  0.00  0.00    +0.000 C 
ATOM     19  O   UNL     1      -0.842  11.268  17.486  0.00  0.00    +0.000 OA
ATOM     20  N   UNL     1      -1.009  10.063  19.412  0.00  0.00    +0.000 N 
ATOM     21  H   UNL     1      -1.597   9.539  20.047  0.00  0.00    +0.000 HD
BRANCH  20  22
ATOM     22  C   UNL     1       0.374  10.284  19.767  0.00  0.00    +0.000 C 
BRANCH  22  23
ATOM     23  C   UNL     1       1.218   9.092  19.407  0.00  0.00    +0.000 A 
ATOM     24  C   UNL     1       1.466   8.088  20.357  0.00  0.00    +0.000 A 
ATOM     25  C   UNL     1       2.287   7.001  20.047  0.00  0.00    +0.000 A 
ATOM     26  C   UNL     1       2.877   6.913  18.782  0.00  0.00    +0.000 A 
ATOM     27  C   UNL     1       2.623   7.903  17.826  0.00  0.00    +0.000 A 
ATOM     28  C   UNL     1       1.801   8.988  18.139  0.00  0.00    +0.000 A 
BRANCH  26  29
ATOM     29  C   UNL     1       3.822   5.810  18.455  0.00  0.00    +0.000 C 
ATOM     30  N   UNL     1       4.495   5.161  19.350  0.00  0.00    +0.000 NA
ATOM     31  N   UNL     1       4.035   5.457  17.153  0.00  0.00    +0.000 N 
ATOM     32  H   UNL     1       4.249   5.460  20.297  0.00  0.00    +0.000 HD
ATOM     33  H   UNL     1       4.023   6.214  16.482  0.00  0.00    +0.000 HD
ATOM     34  H   UNL     1       4.858   4.870  17.070  0.00  0.00    +0.000 HD
ENDBRANCH  26  29
ENDBRANCH  22  23
ENDBRANCH  20  22
ENDBRANCH   5  18
TORSDOF 5
ENDMDL
MODEL 6
REMARK VINA RESULT:      -7.6      2.380      5.281
REMARK  Name = 
REMARK  6 active torsions:
REMARK  status: ('A' for Active; 'I' for Inactive)
REMARK    1  A    between atoms: C_1  and  C_2
REMARK    2  A    between atoms: C_11  and  C_13
REMARK    3  A    between atoms: C_17  and  C_18
REMARK    4  A    between atoms: N_20  and  C_21
REMARK    5  A    between atoms: C_21  and  C_22
REMARK    6  A    between atoms: C_25  and  C_26
REMARK                            x       y       z     vdW  Elec       q    Type
REMARK                         _______ _______ _______ _____ _____    ______ ____
ROOT
ATOM      1  C   UNL     1       2.974   3.756  19.092  0.00  0.00    +0.000 C 
ATOM      2  C   UNL     1       3.303   3.159  20.247  0.00  0.00    +0.000 C 
ATOM      3  C   UNL     1       2.193   3.185  21.235  0.00  0.00    +0.000 C 
ATOM      4  C   UNL     1       1.263   4.262  20.708  0.00  0.00    +0.000 C 
ATOM      5  C   UNL     1       1.748   4.620  19.286  0.00  0.00    +0.000 C 
ENDROOT
BRANCH   1  16
ATOM      6  C   UNL     1       6.126   4.632  19.530  0.00  0.00    +0.000 C 
ATOM      7  C   UNL     1       5.490   5.344  18.334  0.00  0.00    +0.000 C 
ATOM      8  C   UNL     1       6.608   6.011  17.507  0.00  0.00    +0.000 C 
ATOM      9  C   UNL     1       6.494   5.309  16.196  0.00  0.00    +0.000 A 
ATOM     10  C   UNL     1       7.345   5.482  15.111  0.00  0.00    +0.000 A 
ATOM     11  C   UNL     1       7.058   4.793  13.939  0.00  0.00    +0.000 A 
ATOM     12  C   UNL     1       5.931   3.962  13.871  0.00  0.00    +0.000 A 
ATOM     13  C   UNL     1       5.090   3.790  14.984  0.00  0.00    +0.000 A 
ATOM     14  C   UNL     1       5.390   4.459  16.162  0.00  0.00    +0.000 A 
ATOM     15  N   UNL     1       4.724   4.441  17.424  0.00  0.00    +0.000 N 
ATOM     16  C   UNL     1       3.591   3.679  17.715  0.00  0.00    +0.000 C 
ATOM     17  O   UNL     1       3.141   2.817  16.955  0.00  0.00    +0.000 OA
ENDBRANCH   1  16
BRANCH   5  18
ATOM     18  C   UNL     1       2.129   6.113  19.268  0.00  0.00    +0.000 C 
ATOM     19  O   UNL     1       2.766   6.648  18.368  0.00  0.00    +0.000 OA
ATOM     20  N   UNL     1       1.759   6.807  20.405  0.00  0.00    +0.000 N 
ATOM     21  H   UNL     1       1.211   6.358  21.128  0.00  0.00    +0.000 HD
BRANCH  20  22
ATOM     22  C   UNL     1       2.100   8.202  20.557  0.00  0.00    +0.000 C 
BRANCH  22  23
ATOM     23  C   UNL     1       1.028   9.083  19.977  0.00  0.00    +0.000 A 
ATOM     24  C   UNL     1       0.998   9.347  18.598  0.00  0.00    +0.000 A 
ATOM     25  C   UNL     1       0.034  10.202  18.057  0.00  0.00    +0.000 A 
ATOM     26  C   UNL     1      -0.906  10.810  18.895  0.00  0.00    +0.000 A 
ATOM     27  C   UNL     1      -0.890  10.541  20.268  0.00  0.00    +0.000 A 
ATOM     28  C   UNL     1       0.075   9.685  20.806  0.00  0.00    +0.000 A 
BRANCH  26  29
ATOM     29  C   UNL     1      -1.889  11.790  18.356  0.00  0.00    +0.000 C 
ATOM     30  N   UNL     1      -2.914  12.211  19.024  0.00  0.00    +0.000 NA
ATOM     31  N   UNL     1      -1.747  12.269  17.084  0.00  0.00    +0.000 N 
ATOM     32  H   UNL     1      -2.923  11.835  19.975  0.00  0.00    +0.000 HD
ATOM     33  H   UNL     1      -1.388  11.614  16.402  0.00  0.00    +0.000 HD
ATOM     34  H   UNL     1      -2.596  12.731  16.778  0.00  0.00    +0.000 HD
ENDBRANCH  26  29
ENDBRANCH  22  23
ENDBRANCH  20  22
ENDBRANCH   5  18
TORSDOF 5
ENDMDL
MODEL 7
REMARK VINA RESULT:      -7.6      4.596      9.285
REMARK  Name = 
REMARK  6 active torsions:
REMARK  status: ('A' for Active; 'I' for Inactive)
REMARK    1  A    between atoms: C_1  and  C_2
REMARK    2  A    between atoms: C_11  and  C_13
REMARK    3  A    between atoms: C_17  and  C_18
REMARK    4  A    between atoms: N_20  and  C_21
REMARK    5  A    between atoms: C_21  and  C_22
REMARK    6  A    between atoms: C_25  and  C_26
REMARK                            x       y       z     vdW  Elec       q    Type
REMARK                         _______ _______ _______ _____ _____    ______ ____
ROOT
ATOM      1  C   UNL     1      -0.403  11.647  20.858  0.00  0.00    +0.000 C 
ATOM      2  C   UNL     1       0.609  12.445  20.488  0.00  0.00    +0.000 C 
ATOM      3  C   UNL     1       1.105  12.134  19.122  0.00  0.00    +0.000 C 
ATOM      4  C   UNL     1       0.558  10.746  18.844  0.00  0.00    +0.000 C 
ATOM      5  C   UNL     1      -0.459  10.430  19.962  0.00  0.00    +0.000 C 
ENDROOT
BRANCH   1  16
ATOM      6  C   UNL     1      -3.277  11.937  19.259  0.00  0.00    +0.000 C 
ATOM      7  C   UNL     1      -3.126  12.981  20.368  0.00  0.00    +0.000 C 
ATOM      8  C   UNL     1      -4.497  13.644  20.609  0.00  0.00    +0.000 C 
ATOM      9  C   UNL     1      -4.783  13.274  22.025  0.00  0.00    +0.000 A 
ATOM     10  C   UNL     1      -5.958  13.557  22.712  0.00  0.00    +0.000 A 
ATOM     11  C   UNL     1      -6.036  13.193  24.050  0.00  0.00    +0.000 A 
ATOM     12  C   UNL     1      -4.946  12.571  24.674  0.00  0.00    +0.000 A 
ATOM     13  C   UNL     1      -3.771  12.281  23.958  0.00  0.00    +0.000 A 
ATOM     14  C   UNL     1      -3.702  12.622  22.615  0.00  0.00    +0.000 A 
ATOM     15  N   UNL     1      -2.652  12.422  21.669  0.00  0.00    +0.000 N 
ATOM     16  C   UNL     1      -1.440  11.788  21.949  0.00  0.00    +0.000 C 
ATOM     17  O   UNL     1      -1.216  11.190  23.005  0.00  0.00    +0.000 OA
ENDBRANCH   1  16
BRANCH   5  18
ATOM     18  C   UNL     1       0.026   9.179  20.717  0.00  0.00    +0.000 C 
ATOM     19  O   UNL     1      -0.659   8.548  21.514  0.00  0.00    +0.000 OA
ATOM     20  N   UNL     1       1.350   8.854  20.485  0.00  0.00    +0.000 N 
ATOM     21  H   UNL     1       1.896   9.368  19.805  0.00  0.00    +0.000 HD
BRANCH  20  22
ATOM     22  C   UNL     1       1.962   7.739  21.169  0.00  0.00    +0.000 C 
BRANCH  22  23
ATOM     23  C   UNL     1       1.941   6.505  20.308  0.00  0.00    +0.000 A 
ATOM     24  C   UNL     1       1.442   5.295  20.817  0.00  0.00    +0.000 A 
ATOM     25  C   UNL     1       1.462   4.133  20.042  0.00  0.00    +0.000 A 
ATOM     26  C   UNL     1       1.993   4.169  18.748  0.00  0.00    +0.000 A 
ATOM     27  C   UNL     1       2.480   5.374  18.230  0.00  0.00    +0.000 A 
ATOM     28  C   UNL     1       2.458   6.534  19.008  0.00  0.00    +0.000 A 
BRANCH  26  29
ATOM     29  C   UNL     1       2.103   2.928  17.933  0.00  0.00    +0.000 C 
ATOM     30  N   UNL     1       2.463   2.922  16.690  0.00  0.00    +0.000 NA
ATOM     31  N   UNL     1       1.790   1.718  18.487  0.00  0.00    +0.000 N 
ATOM     32  H   UNL     1       2.716   3.858  16.367  0.00  0.00    +0.000 HD
ATOM     33  H   UNL     1       1.026   1.720  19.150  0.00  0.00    +0.000 HD
ATOM     34  H   UNL     1       1.685   1.011  17.767  0.00  0.00    +0.000 HD
ENDBRANCH  26  29
ENDBRANCH  22  23
ENDBRANCH  20  22
ENDBRANCH   5  18
TORSDOF 5
ENDMDL
MODEL 8
REMARK VINA RESULT:      -7.5      2.389      5.293
REMARK  Name = 
REMARK  6 active torsions:
REMARK  status: ('A' for Active; 'I' for Inactive)
REMARK    1  A    between atoms: C_1  and  C_2
REMARK    2  A    between atoms: C_11  and  C_13
REMARK    3  A    between atoms: C_17  and  C_18
REMARK    4  A    between atoms: N_20  and  C_21
REMARK    5  A    between atoms: C_21  and  C_22
REMARK    6  A    between atoms: C_25  and  C_26
REMARK                            x       y       z     vdW  Elec       q    Type
REMARK                         _______ _______ _______ _____ _____    ______ ____
ROOT
ATOM      1  C   UNL     1       2.611   3.655  19.106  0.00  0.00    +0.000 C 
ATOM      2  C   UNL     1       2.836   2.845  20.151  0.00  0.00    +0.000 C 
ATOM      3  C   UNL     1       1.713   2.850  21.124  0.00  0.00    +0.000 C 
ATOM      4  C   UNL     1       0.934   4.104  20.773  0.00  0.00    +0.000 C 
ATOM      5  C   UNL     1       1.495   4.622  19.431  0.00  0.00    +0.000 C 
ENDROOT
BRANCH   1  16
ATOM      6  C   UNL     1       5.859   3.730  19.693  0.00  0.00    +0.000 C 
ATOM      7  C   UNL     1       5.433   4.785  18.670  0.00  0.00    +0.000 C 
ATOM      8  C   UNL     1       6.697   5.347  17.989  0.00  0.00    +0.000 C 
ATOM      9  C   UNL     1       6.486   4.962  16.563  0.00  0.00    +0.000 A 
ATOM     10  C   UNL     1       7.395   5.160  15.530  0.00  0.00    +0.000 A 
ATOM     11  C   UNL     1       7.013   4.797  14.245  0.00  0.00    +0.000 A 
ATOM     12  C   UNL     1       5.739   4.257  14.017  0.00  0.00    +0.000 A 
ATOM     13  C   UNL     1       4.839   4.052  15.078  0.00  0.00    +0.000 A 
ATOM     14  C   UNL     1       5.230   4.392  16.365  0.00  0.00    +0.000 A 
ATOM     15  N   UNL     1       4.528   4.266  17.601  0.00  0.00    +0.000 N 
ATOM     16  C   UNL     1       3.249   3.723  17.738  0.00  0.00    +0.000 C 
ATOM     17  O   UNL     1       2.656   3.146  16.822  0.00  0.00    +0.000 OA
ENDBRANCH   1  16
BRANCH   5  18
ATOM     18  C   UNL     1       2.053   6.040  19.656  0.00  0.00    +0.000 C 
ATOM     19  O   UNL     1       3.021   6.499  19.061  0.00  0.00    +0.000 OA
ATOM     20  N   UNL     1       1.418   6.747  20.660  0.00  0.00    +0.000 N 
ATOM     21  H   UNL     1       0.605   6.365  21.125  0.00  0.00    +0.000 HD
BRANCH  20  22
ATOM     22  C   UNL     1       1.871   8.069  21.025  0.00  0.00    +0.000 C 
BRANCH  22  23
ATOM     23  C   UNL     1       1.041   9.126  20.349  0.00  0.00    +0.000 A 
ATOM     24  C   UNL     1       0.070   9.835  21.075  0.00  0.00    +0.000 A 
ATOM     25  C   UNL     1      -0.738  10.785  20.444  0.00  0.00    +0.000 A 
ATOM     26  C   UNL     1      -0.587  11.028  19.076  0.00  0.00    +0.000 A 
ATOM     27  C   UNL     1       0.388  10.335  18.349  0.00  0.00    +0.000 A 
ATOM     28  C   UNL     1       1.194   9.386  18.983  0.00  0.00    +0.000 A 
BRANCH  26  29
ATOM     29  C   UNL     1      -1.492  11.973  18.364  0.00  0.00    +0.000 C 
ATOM     30  N   UNL     1      -1.072  12.862  17.521  0.00  0.00    +0.000 NA
ATOM     31  N   UNL     1      -2.835  11.946  18.609  0.00  0.00    +0.000 N 
ATOM     32  H   UNL     1      -0.064  12.788  17.367  0.00  0.00    +0.000 HD
ATOM     33  H   UNL     1      -3.107  11.740  19.561  0.00  0.00    +0.000 HD
ATOM     34  H   UNL     1      -3.283  12.779  18.243  0.00  0.00    +0.000 HD
ENDBRANCH  26  29
ENDBRANCH  22  23
ENDBRANCH  20  22
ENDBRANCH   5  18
TORSDOF 5
ENDMDL
MODEL 9
REMARK VINA RESULT:      -7.5      2.513      5.357
REMARK  Name = 
REMARK  6 active torsions:
REMARK  status: ('A' for Active; 'I' for Inactive)
REMARK    1  A    between atoms: C_1  and  C_2
REMARK    2  A    between atoms: C_11  and  C_13
REMARK    3  A    between atoms: C_17  and  C_18
REMARK    4  A    between atoms: N_20  and  C_21
REMARK    5  A    between atoms: C_21  and  C_22
REMARK    6  A    between atoms: C_25  and  C_26
REMARK                            x       y       z     vdW  Elec       q    Type
REMARK                         _______ _______ _______ _____ _____    ______ ____
ROOT
ATOM      1  C   UNL     1       3.062   4.243  18.948  0.00  0.00    +0.000 C 
ATOM      2  C   UNL     1       3.429   3.795  20.157  0.00  0.00    +0.000 C 
ATOM      3  C   UNL     1       2.338   3.909  21.159  0.00  0.00    +0.000 C 
ATOM      4  C   UNL     1       1.368   4.891  20.530  0.00  0.00    +0.000 C 
ATOM      5  C   UNL     1       1.816   5.092  19.066  0.00  0.00    +0.000 C 
ENDROOT
BRANCH   1  16
ATOM      6  C   UNL     1       6.257   5.005  19.277  0.00  0.00    +0.000 C 
ATOM      7  C   UNL     1       5.637   5.642  18.031  0.00  0.00    +0.000 C 
ATOM      8  C   UNL     1       6.773   6.183  17.138  0.00  0.00    +0.000 C 
ATOM      9  C   UNL     1       6.608   5.378  15.893  0.00  0.00    +0.000 A 
ATOM     10  C   UNL     1       7.451   5.417  14.788  0.00  0.00    +0.000 A 
ATOM     11  C   UNL     1       7.116   4.646  13.683  0.00  0.00    +0.000 A 
ATOM     12  C   UNL     1       5.951   3.865  13.698  0.00  0.00    +0.000 A 
ATOM     13  C   UNL     1       5.119   3.828  14.831  0.00  0.00    +0.000 A 
ATOM     14  C   UNL     1       5.466   4.580  15.944  0.00  0.00    +0.000 A 
ATOM     15  N   UNL     1       4.818   4.701  17.210  0.00  0.00    +0.000 N 
ATOM     16  C   UNL     1       3.655   4.020  17.576  0.00  0.00    +0.000 C 
ATOM     17  O   UNL     1       3.156   3.118  16.897  0.00  0.00    +0.000 OA
ENDBRANCH   1  16
BRANCH   5  18
ATOM     18  C   UNL     1       2.153   6.581  18.864  0.00  0.00    +0.000 C 
ATOM     19  O   UNL     1       2.794   7.018  17.915  0.00  0.00    +0.000 OA
ATOM     20  N   UNL     1       1.739   7.402  19.897  0.00  0.00    +0.000 N 
ATOM     21  H   UNL     1       1.189   7.031  20.661  0.00  0.00    +0.000 HD
BRANCH  20  22
ATOM     22  C   UNL     1       2.037   8.815  19.876  0.00  0.00    +0.000 C 
BRANCH  22  23
ATOM     23  C   UNL     1       0.824   9.613  19.480  0.00  0.00    +0.000 A 
ATOM     24  C   UNL     1       0.161  10.409  20.428  0.00  0.00    +0.000 A 
ATOM     25  C   UNL     1      -0.994  11.115  20.082  0.00  0.00    +0.000 A 
ATOM     26  C   UNL     1      -1.502  11.025  18.782  0.00  0.00    +0.000 A 
ATOM     27  C   UNL     1      -0.838  10.244  17.829  0.00  0.00    +0.000 A 
ATOM     28  C   UNL     1       0.316   9.539  18.178  0.00  0.00    +0.000 A 
BRANCH  26  29
ATOM     29  C   UNL     1      -2.776  11.700  18.411  0.00  0.00    +0.000 C 
ATOM     30  N   UNL     1      -3.571  12.244  19.276  0.00  0.00    +0.000 NA
ATOM     31  N   UNL     1      -3.170  11.742  17.104  0.00  0.00    +0.000 N 
ATOM     32  H   UNL     1      -3.184  12.203  20.221  0.00  0.00    +0.000 HD
ATOM     33  H   UNL     1      -2.949  10.927  16.549  0.00  0.00    +0.000 HD
ATOM     34  H   UNL     1      -4.144  12.016  17.031  0.00  0.00    +0.000 HD
ENDBRANCH  26  29
ENDBRANCH  22  23
ENDBRANCH  20  22
ENDBRANCH   5  18
TORSDOF 5
ENDMDL
