MODEL 1
REMARK VINA RESULT:      -8.1      0.000      0.000
REMARK  Name = 
REMARK  5 active torsions:
REMARK  status: ('A' for Active; 'I' for Inactive)
REMARK    1  A    between atoms: C_2  and  C_3
REMARK    2  A    between atoms: C_6  and  C_7
REMARK    3  A    between atoms: N_9  and  C_10
REMARK    4  A    between atoms: C_15  and  C_16
REMARK    5  A    between atoms: C_16  and  C_17
REMARK                            x       y       z     vdW  Elec       q    Type
REMARK                         _______ _______ _______ _____ _____    ______ ____
ROOT
ATOM      1  C   UNL     1       2.453   7.492  19.036  0.00  0.00    +0.000 A 
ATOM      2  C   UNL     1       3.401   7.638  18.021  0.00  0.00    +0.000 A 
ATOM      3  C   UNL     1       3.934   6.527  17.376  0.00  0.00    +0.000 A 
ATOM      4  C   UNL     1       3.521   5.252  17.736  0.00  0.00    +0.000 A 
ATOM      5  F   UNL     1       4.081   4.216  17.096  0.00  0.00    +0.000 F 
ATOM      6  C   UNL     1       2.566   5.042  18.738  0.00  0.00    +0.000 A 
ATOM      7  C   UNL     1       2.061   6.194  19.403  0.00  0.00    +0.000 A 
ENDROOT
BRANCH   6   8
ATOM      8  C   UNL     1       2.101   3.611  19.102  0.00  0.00    +0.000 C 
ATOM      9  N   UNL     1       3.250   2.678  19.072  0.00  0.00    +0.000 NA
ATOM     10  C   UNL     1       3.954   2.531  20.135  0.00  0.00    +0.000 C 
ATOM     11  N   UNL     1       5.105   1.819  20.149  0.00  0.00    +0.000 N 
ATOM     12  O   UNL     1       3.661   3.016  21.364  0.00  0.00    +0.000 OA
ATOM     13  C   UNL     1       2.309   3.411  21.643  0.00  0.00    +0.000 C 
ATOM     14  C   UNL     1       1.253   2.383  21.333  0.00  0.00    +0.000 C 
ATOM     15  C   UNL     1       1.425   3.612  20.462  0.00  0.00    +0.000 C 
ATOM     16  H   UNL     1       5.149   1.136  19.403  0.00  0.00    +0.000 HD
ATOM     17  H   UNL     1       5.350   1.462  21.062  0.00  0.00    +0.000 HD
BRANCH   8  18
ATOM     18  C   UNL     1       1.087   3.131  18.028  0.00  0.00    +0.000 C 
ATOM     19  F   UNL     1       0.724   4.164  17.212  0.00  0.00    +0.000 F 
ENDBRANCH   8  18
ENDBRANCH   6   8
BRANCH   1  22
ATOM     20  C   UNL     1       1.065   9.570  19.132  0.00  0.00    +0.000 C 
ATOM     21  O   UNL     1       0.703   9.565  17.963  0.00  0.00    +0.000 OA
ATOM     22  N   UNL     1       1.879   8.600  19.712  0.00  0.00    +0.000 N 
ATOM     23  H   UNL     1       2.007   8.670  20.719  0.00  0.00    +0.000 HD
BRANCH  20  27
ATOM     24  C   UNL     1      -0.318  12.543  21.866  0.00  0.00    +0.000 A 
ATOM     25  C   UNL     1      -0.667  11.201  21.938  0.00  0.00    +0.000 A 
ATOM     26  N   UNL     1      -0.241  10.253  21.061  0.00  0.00    +0.000 NA
ATOM     27  C   UNL     1       0.600  10.666  20.058  0.00  0.00    +0.000 A 
ATOM     28  C   UNL     1       1.004  12.000  19.914  0.00  0.00    +0.000 A 
ATOM     29 CL   UNL     1       2.041  12.616  18.679  0.00  0.00    +0.000 Cl
ATOM     30  C   UNL     1       0.529  12.941  20.835  0.00  0.00    +0.000 A 
BRANCH  24  32
ATOM     31  N   UNL     1      -1.216  14.258  23.587  0.00  0.00    +0.000 NA
ATOM     32  C   UNL     1      -0.815  13.487  22.818  0.00  0.00    +0.000 C 
ENDBRANCH  24  32
ENDBRANCH  20  27
ENDBRANCH   1  22
TORSDOF 5
ENDMDL
MODEL 2
REMARK VINA RESULT:      -8.1      1.195      1.388
REMARK  Name = 
REMARK  5 active torsions:
REMARK  status: ('A' for Active; 'I' for Inactive)
REMARK    1  A    between atoms: C_2  and  C_3
REMARK    2  A    between atoms: C_6  and  C_7
REMARK    3  A    between atoms: N_9  and  C_10
REMARK    4  A    between atoms: C_15  and  C_16
REMARK    5  A    between atoms: C_16  and  C_17
REMARK                            x       y       z     vdW  Elec       q    Type
REMARK                         _______ _______ _______ _____ _____    ______ ____
ROOT
ATOM      1  C   UNL     1       2.570   7.422  18.936  0.00  0.00    +0.000 A 
ATOM      2  C   UNL     1       3.499   7.541  17.900  0.00  0.00    +0.000 A 
ATOM      3  C   UNL     1       4.001   6.415  17.258  0.00  0.00    +0.000 A 
ATOM      4  C   UNL     1       3.577   5.151  17.641  0.00  0.00    +0.000 A 
ATOM      5  F   UNL     1       4.107   4.099  17.002  0.00  0.00    +0.000 F 
ATOM      6  C   UNL     1       2.639   4.968  18.665  0.00  0.00    +0.000 A 
ATOM      7  C   UNL     1       2.165   6.134  19.326  0.00  0.00    +0.000 A 
ENDROOT
BRANCH   6   8
ATOM      8  C   UNL     1       2.160   3.547  19.056  0.00  0.00    +0.000 C 
ATOM      9  N   UNL     1       3.302   2.607  19.060  0.00  0.00    +0.000 NA
ATOM     10  C   UNL     1       3.992   2.479  20.135  0.00  0.00    +0.000 C 
ATOM     11  N   UNL     1       5.139   1.761  20.179  0.00  0.00    +0.000 N 
ATOM     12  O   UNL     1       3.687   2.994  21.349  0.00  0.00    +0.000 OA
ATOM     13  C   UNL     1       2.335   3.404  21.603  0.00  0.00    +0.000 C 
ATOM     14  C   UNL     1       1.276   2.376  21.302  0.00  0.00    +0.000 C 
ATOM     15  C   UNL     1       1.467   3.584  20.406  0.00  0.00    +0.000 C 
ATOM     16  H   UNL     1       5.186   1.061  19.450  0.00  0.00    +0.000 HD
ATOM     17  H   UNL     1       5.369   1.423  21.104  0.00  0.00    +0.000 HD
BRANCH   8  18
ATOM     18  C   UNL     1       1.156   3.050  17.980  0.00  0.00    +0.000 C 
ATOM     19  F   UNL     1       0.658   4.101  17.262  0.00  0.00    +0.000 F 
ENDBRANCH   8  18
ENDBRANCH   6   8
BRANCH   1  22
ATOM     20  C   UNL     1       1.157   9.483  19.055  0.00  0.00    +0.000 C 
ATOM     21  O   UNL     1       0.714   9.429  17.915  0.00  0.00    +0.000 OA
ATOM     22  N   UNL     1       2.026   8.546  19.611  0.00  0.00    +0.000 N 
ATOM     23  H   UNL     1       2.224   8.656  20.603  0.00  0.00    +0.000 HD
BRANCH  20  27
ATOM     24  C   UNL     1       0.027  12.780  21.519  0.00  0.00    +0.000 A 
ATOM     25  C   UNL     1       0.742  12.907  20.336  0.00  0.00    +0.000 A 
ATOM     26  N   UNL     1       1.117  11.858  19.555  0.00  0.00    +0.000 NA
ATOM     27  C   UNL     1       0.741  10.606  19.972  0.00  0.00    +0.000 A 
ATOM     28  C   UNL     1       0.017  10.389  21.152  0.00  0.00    +0.000 A 
ATOM     29 CL   UNL     1      -0.484   8.855  21.766  0.00  0.00    +0.000 Cl
ATOM     30  C   UNL     1      -0.336  11.500  21.928  0.00  0.00    +0.000 A 
BRANCH  24  32
ATOM     31  N   UNL     1      -0.605  14.865  22.922  0.00  0.00    +0.000 NA
ATOM     32  C   UNL     1      -0.322  13.929  22.296  0.00  0.00    +0.000 C 
ENDBRANCH  24  32
ENDBRANCH  20  27
ENDBRANCH   1  22
TORSDOF 5
ENDMDL
MODEL 3
REMARK VINA RESULT:      -7.9      3.189      4.316
REMARK  Name = 
REMARK  5 active torsions:
REMARK  status: ('A' for Active; 'I' for Inactive)
REMARK    1  A    between atoms: C_2  and  C_3
REMARK    2  A    between atoms: C_6  and  C_7
REMARK    3  A    between atoms: N_9  and  C_10
REMARK    4  A    between atoms: C_15  and  C_16
REMARK    5  A    between atoms: C_16  and  C_17
REMARK                            x       y       z     vdW  Elec       q    Type
REMARK                         _______ _______ _______ _____ _____    ______ ____
ROOT
ATOM      1  C   UNL     1       2.480   7.547  18.068  0.00  0.00    +0.000 A 
ATOM      2  C   UNL     1       1.800   6.461  18.622  0.00  0.00    +0.000 A 
ATOM      3  C   UNL     1       2.316   5.172  18.529  0.00  0.00    +0.000 A 
ATOM      4  C   UNL     1       3.524   4.954  17.884  0.00  0.00    +0.000 A 
ATOM      5  F   UNL     1       3.966   3.691  17.807  0.00  0.00    +0.000 F 
ATOM      6  C   UNL     1       4.258   6.004  17.318  0.00  0.00    +0.000 A 
ATOM      7  C   UNL     1       3.693   7.306  17.400  0.00  0.00    +0.000 A 
ENDROOT
BRANCH   6   8
ATOM      8  C   UNL     1       5.618   5.738  16.627  0.00  0.00    +0.000 C 
ATOM      9  N   UNL     1       6.386   6.997  16.509  0.00  0.00    +0.000 NA
ATOM     10  C   UNL     1       7.147   7.350  17.480  0.00  0.00    +0.000 C 
ATOM     11  N   UNL     1       7.762   8.555  17.519  0.00  0.00    +0.000 N 
ATOM     12  O   UNL     1       7.467   6.600  18.560  0.00  0.00    +0.000 OA
ATOM     13  C   UNL     1       7.275   5.178  18.493  0.00  0.00    +0.000 C 
ATOM     14  C   UNL     1       7.897   4.493  17.304  0.00  0.00    +0.000 C 
ATOM     15  C   UNL     1       6.396   4.685  17.397  0.00  0.00    +0.000 C 
ATOM     16  H   UNL     1       7.879   8.961  16.599  0.00  0.00    +0.000 HD
ATOM     17  H   UNL     1       8.594   8.567  18.094  0.00  0.00    +0.000 HD
BRANCH   8  18
ATOM     18  C   UNL     1       5.349   5.223  15.186  0.00  0.00    +0.000 C 
ATOM     19  F   UNL     1       5.462   3.863  15.132  0.00  0.00    +0.000 F 
ENDBRANCH   8  18
ENDBRANCH   6   8
BRANCH   1  22
ATOM     20  C   UNL     1       1.309   9.426  19.231  0.00  0.00    +0.000 C 
ATOM     21  O   UNL     1       1.078   8.836  20.279  0.00  0.00    +0.000 OA
ATOM     22  N   UNL     1       1.993   8.878  18.149  0.00  0.00    +0.000 N 
ATOM     23  H   UNL     1       2.210   9.518  17.388  0.00  0.00    +0.000 HD
BRANCH  20  27
ATOM     24  C   UNL     1       0.237  13.534  18.786  0.00  0.00    +0.000 A 
ATOM     25  C   UNL     1       1.461  13.102  19.279  0.00  0.00    +0.000 A 
ATOM     26  N   UNL     1       1.801  11.794  19.436  0.00  0.00    +0.000 NA
ATOM     27  C   UNL     1       0.869  10.859  19.063  0.00  0.00    +0.000 A 
ATOM     28  C   UNL     1      -0.389  11.208  18.554  0.00  0.00    +0.000 A 
ATOM     29 CL   UNL     1      -1.630  10.108  18.077  0.00  0.00    +0.000 Cl
ATOM     30  C   UNL     1      -0.698  12.568  18.422  0.00  0.00    +0.000 A 
BRANCH  24  32
ATOM     31  N   UNL     1      -0.294  16.060  18.563  0.00  0.00    +0.000 NA
ATOM     32  C   UNL     1      -0.057  14.928  18.659  0.00  0.00    +0.000 C 
ENDBRANCH  24  32
ENDBRANCH  20  27
ENDBRANCH   1  22
TORSDOF 5
ENDMDL
MODEL 4
REMARK VINA RESULT:      -7.9      2.078      2.778
REMARK  Name = 
REMARK  5 active torsions:
REMARK  status: ('A' for Active; 'I' for Inactive)
REMARK    1  A    between atoms: C_2  and  C_3
REMARK    2  A    between atoms: C_6  and  C_7
REMARK    3  A    between atoms: N_9  and  C_10
REMARK    4  A    between atoms: C_15  and  C_16
REMARK    5  A    between atoms: C_16  and  C_17
REMARK                            x       y       z     vdW  Elec       q    Type
REMARK                         _______ _______ _______ _____ _____    ______ ____
ROOT
ATOM      1  C   UNL     1       2.165   7.903  19.013  0.00  0.00    +0.000 A 
ATOM      2  C   UNL     1       2.704   8.412  17.830  0.00  0.00    +0.000 A 
ATOM      3  C   UNL     1       3.561   7.644  17.047  0.00  0.00    +0.000 A 
ATOM      4  C   UNL     1       3.886   6.354  17.437  0.00  0.00    +0.000 A 
ATOM      5  F   UNL     1       4.731   5.665  16.656  0.00  0.00    +0.000 F 
ATOM      6  C   UNL     1       3.368   5.784  18.607  0.00  0.00    +0.000 A 
ATOM      7  C   UNL     1       2.520   6.601  19.404  0.00  0.00    +0.000 A 
ENDROOT
BRANCH   6   8
ATOM      8  C   UNL     1       3.725   4.330  19.005  0.00  0.00    +0.000 C 
ATOM      9  N   UNL     1       2.939   3.918  20.189  0.00  0.00    +0.000 NA
ATOM     10  C   UNL     1       1.779   3.398  20.010  0.00  0.00    +0.000 C 
ATOM     11  N   UNL     1       0.936   3.136  21.035  0.00  0.00    +0.000 N 
ATOM     12  O   UNL     1       1.246   3.019  18.825  0.00  0.00    +0.000 OA
ATOM     13  C   UNL     1       2.124   2.816  17.708  0.00  0.00    +0.000 C 
ATOM     14  C   UNL     1       3.292   1.898  17.957  0.00  0.00    +0.000 C 
ATOM     15  C   UNL     1       3.490   3.396  17.831  0.00  0.00    +0.000 C 
ATOM     16  H   UNL     1       1.420   3.024  21.917  0.00  0.00    +0.000 HD
ATOM     17  H   UNL     1       0.261   2.412  20.830  0.00  0.00    +0.000 HD
BRANCH   8  18
ATOM     18  C   UNL     1       5.225   4.280  19.406  0.00  0.00    +0.000 C 
ATOM     19  F   UNL     1       5.684   5.529  19.714  0.00  0.00    +0.000 F 
ENDBRANCH   8  18
ENDBRANCH   6   8
BRANCH   1  22
ATOM     20  C   UNL     1       0.990  10.004  19.691  0.00  0.00    +0.000 C 
ATOM     21  O   UNL     1       1.432  10.719  18.801  0.00  0.00    +0.000 OA
ATOM     22  N   UNL     1       1.281   8.649  19.835  0.00  0.00    +0.000 N 
ATOM     23  H   UNL     1       0.756   8.154  20.553  0.00  0.00    +0.000 HD
BRANCH  20  27
ATOM     24  C   UNL     1      -1.808  11.689  22.440  0.00  0.00    +0.000 A 
ATOM     25  C   UNL     1      -1.778  11.987  21.084  0.00  0.00    +0.000 A 
ATOM     26  N   UNL     1      -0.879  11.464  20.207  0.00  0.00    +0.000 NA
ATOM     27  C   UNL     1       0.037  10.575  20.711  0.00  0.00    +0.000 A 
ATOM     28  C   UNL     1       0.075  10.216  22.065  0.00  0.00    +0.000 A 
ATOM     29 CL   UNL     1       1.197   9.125  22.793  0.00  0.00    +0.000 Cl
ATOM     30  C   UNL     1      -0.864  10.791  22.931  0.00  0.00    +0.000 A 
BRANCH  24  32
ATOM     31  N   UNL     1      -3.566  12.769  24.007  0.00  0.00    +0.000 NA
ATOM     32  C   UNL     1      -2.776  12.288  23.305  0.00  0.00    +0.000 C 
ENDBRANCH  24  32
ENDBRANCH  20  27
ENDBRANCH   1  22
TORSDOF 5
ENDMDL
MODEL 5
REMARK VINA RESULT:      -7.8      1.463      1.551
REMARK  Name = 
REMARK  5 active torsions:
REMARK  status: ('A' for Active; 'I' for Inactive)
REMARK    1  A    between atoms: C_2  and  C_3
REMARK    2  A    between atoms: C_6  and  C_7
REMARK    3  A    between atoms: N_9  and  C_10
REMARK    4  A    between atoms: C_15  and  C_16
REMARK    5  A    between atoms: C_16  and  C_17
REMARK                            x       y       z     vdW  Elec       q    Type
REMARK                         _______ _______ _______ _____ _____    ______ ____
ROOT
ATOM      1  C   UNL     1       2.601   7.401  18.337  0.00  0.00    +0.000 A 
ATOM      2  C   UNL     1       3.731   7.385  17.518  0.00  0.00    +0.000 A 
ATOM      3  C   UNL     1       4.361   6.189  17.191  0.00  0.00    +0.000 A 
ATOM      4  C   UNL     1       3.864   4.989  17.678  0.00  0.00    +0.000 A 
ATOM      5  F   UNL     1       4.519   3.867  17.349  0.00  0.00    +0.000 F 
ATOM      6  C   UNL     1       2.727   4.939  18.496  0.00  0.00    +0.000 A 
ATOM      7  C   UNL     1       2.122   6.179  18.839  0.00  0.00    +0.000 A 
ENDROOT
BRANCH   6   8
ATOM      8  C   UNL     1       2.175   3.584  19.004  0.00  0.00    +0.000 C 
ATOM      9  N   UNL     1       3.266   2.587  19.083  0.00  0.00    +0.000 NA
ATOM     10  C   UNL     1       3.956   2.511  20.162  0.00  0.00    +0.000 C 
ATOM     11  N   UNL     1       5.062   1.738  20.263  0.00  0.00    +0.000 N 
ATOM     12  O   UNL     1       3.688   3.140  21.330  0.00  0.00    +0.000 OA
ATOM     13  C   UNL     1       2.362   3.643  21.553  0.00  0.00    +0.000 C 
ATOM     14  C   UNL     1       1.247   2.652  21.342  0.00  0.00    +0.000 C 
ATOM     15  C   UNL     1       1.496   3.770  20.349  0.00  0.00    +0.000 C 
ATOM     16  H   UNL     1       5.067   0.978  19.593  0.00  0.00    +0.000 HD
ATOM     17  H   UNL     1       5.281   1.465  21.212  0.00  0.00    +0.000 HD
BRANCH   8  18
ATOM     18  C   UNL     1       1.138   3.054  17.975  0.00  0.00    +0.000 C 
ATOM     19  F   UNL     1       0.273   2.180  18.570  0.00  0.00    +0.000 F 
ENDBRANCH   8  18
ENDBRANCH   6   8
BRANCH   1  22
ATOM     20  C   UNL     1       1.354   8.876  19.927  0.00  0.00    +0.000 C 
ATOM     21  O   UNL     1       1.402   8.129  20.896  0.00  0.00    +0.000 OA
ATOM     22  N   UNL     1       1.925   8.599  18.686  0.00  0.00    +0.000 N 
ATOM     23  H   UNL     1       1.904   9.357  18.008  0.00  0.00    +0.000 HD
BRANCH  20  27
ATOM     24  C   UNL     1      -0.477  12.705  20.380  0.00  0.00    +0.000 A 
ATOM     25  C   UNL     1       0.464  12.187  21.260  0.00  0.00    +0.000 A 
ATOM     26  N   UNL     1       1.039  10.961  21.128  0.00  0.00    +0.000 NA
ATOM     27  C   UNL     1       0.665  10.212  20.040  0.00  0.00    +0.000 A 
ATOM     28  C   UNL     1      -0.276  10.660  19.103  0.00  0.00    +0.000 A 
ATOM     29 CL   UNL     1      -0.822   9.786  17.719  0.00  0.00    +0.000 Cl
ATOM     30  C   UNL     1      -0.849  11.924  19.289  0.00  0.00    +0.000 A 
BRANCH  24  32
ATOM     31  N   UNL     1      -1.517  15.047  20.765  0.00  0.00    +0.000 NA
ATOM     32  C   UNL     1      -1.049  13.999  20.590  0.00  0.00    +0.000 C 
ENDBRANCH  24  32
ENDBRANCH  20  27
ENDBRANCH   1  22
TORSDOF 5
ENDMDL
MODEL 6
REMARK VINA RESULT:      -7.8      2.812      4.074
REMARK  Name = 
REMARK  5 active torsions:
REMARK  status: ('A' for Active; 'I' for Inactive)
REMARK    1  A    between atoms: C_2  and  C_3
REMARK    2  A    between atoms: C_6  and  C_7
REMARK    3  A    between atoms: N_9  and  C_10
REMARK    4  A    between atoms: C_15  and  C_16
REMARK    5  A    between atoms: C_16  and  C_17
REMARK                            x       y       z     vdW  Elec       q    Type
REMARK                         _______ _______ _______ _____ _____    ______ ____
ROOT
ATOM      1  C   UNL     1       2.503   6.874  18.574  0.00  0.00    +0.000 A 
ATOM      2  C   UNL     1       1.711   5.727  18.658  0.00  0.00    +0.000 A 
ATOM      3  C   UNL     1       2.112   4.537  18.061  0.00  0.00    +0.000 A 
ATOM      4  C   UNL     1       3.316   4.477  17.375  0.00  0.00    +0.000 A 
ATOM      5  F   UNL     1       3.646   3.310  16.803  0.00  0.00    +0.000 F 
ATOM      6  C   UNL     1       4.159   5.591  17.266  0.00  0.00    +0.000 A 
ATOM      7  C   UNL     1       3.710   6.803  17.858  0.00  0.00    +0.000 A 
ENDROOT
BRANCH   6   8
ATOM      8  C   UNL     1       5.511   5.490  16.518  0.00  0.00    +0.000 C 
ATOM      9  N   UNL     1       6.151   6.822  16.438  0.00  0.00    +0.000 NA
ATOM     10  C   UNL     1       6.911   7.201  17.401  0.00  0.00    +0.000 C 
ATOM     11  N   UNL     1       7.409   8.456  17.480  0.00  0.00    +0.000 N 
ATOM     12  O   UNL     1       7.341   6.435  18.430  0.00  0.00    +0.000 OA
ATOM     13  C   UNL     1       7.283   5.006  18.297  0.00  0.00    +0.000 C 
ATOM     14  C   UNL     1       7.922   4.442  17.055  0.00  0.00    +0.000 C 
ATOM     15  C   UNL     1       6.414   4.483  17.207  0.00  0.00    +0.000 C 
ATOM     16  H   UNL     1       7.452   8.915  16.578  0.00  0.00    +0.000 HD
ATOM     17  H   UNL     1       8.257   8.522  18.027  0.00  0.00    +0.000 HD
BRANCH   8  18
ATOM     18  C   UNL     1       5.238   5.020  15.062  0.00  0.00    +0.000 C 
ATOM     19  F   UNL     1       5.758   3.774  14.853  0.00  0.00    +0.000 F 
ENDBRANCH   8  18
ENDBRANCH   6   8
BRANCH   1  22
ATOM     20  C   UNL     1       1.407   9.123  18.562  0.00  0.00    +0.000 C 
ATOM     21  O   UNL     1       0.952   9.063  17.426  0.00  0.00    +0.000 OA
ATOM     22  N   UNL     1       2.134   8.105  19.176  0.00  0.00    +0.000 N 
ATOM     23  H   UNL     1       2.352   8.246  20.160  0.00  0.00    +0.000 HD
BRANCH  20  27
ATOM     24  C   UNL     1       0.780  12.696  20.811  0.00  0.00    +0.000 A 
ATOM     25  C   UNL     1       1.459  12.651  19.601  0.00  0.00    +0.000 A 
ATOM     26  N   UNL     1       1.674  11.513  18.888  0.00  0.00    +0.000 NA
ATOM     27  C   UNL     1       1.165  10.348  19.406  0.00  0.00    +0.000 A 
ATOM     28  C   UNL     1       0.465  10.305  20.619  0.00  0.00    +0.000 A 
ATOM     29 CL   UNL     1      -0.195   8.891  21.358  0.00  0.00    +0.000 Cl
ATOM     30  C   UNL     1       0.279  11.502  21.322  0.00  0.00    +0.000 A 
BRANCH  24  32
ATOM     31  N   UNL     1       0.465  14.932  22.081  0.00  0.00    +0.000 NA
ATOM     32  C   UNL     1       0.602  13.930  21.512  0.00  0.00    +0.000 C 
ENDBRANCH  24  32
ENDBRANCH  20  27
ENDBRANCH   1  22
TORSDOF 5
ENDMDL
MODEL 7
REMARK VINA RESULT:      -7.7      1.993      2.659
REMARK  Name = 
REMARK  5 active torsions:
REMARK  status: ('A' for Active; 'I' for Inactive)
REMARK    1  A    between atoms: C_2  and  C_3
REMARK    2  A    between atoms: C_6  and  C_7
REMARK    3  A    between atoms: N_9  and  C_10
REMARK    4  A    between atoms: C_15  and  C_16
REMARK    5  A    between atoms: C_16  and  C_17
REMARK                            x       y       z     vdW  Elec       q    Type
REMARK                         _______ _______ _______ _____ _____    ______ ____
ROOT
ATOM      1  C   UNL     1       2.078   8.086  18.940  0.00  0.00    +0.000 A 
ATOM      2  C   UNL     1       2.686   8.595  17.790  0.00  0.00    +0.000 A 
ATOM      3  C   UNL     1       3.596   7.832  17.066  0.00  0.00    +0.000 A 
ATOM      4  C   UNL     1       3.907   6.546  17.481  0.00  0.00    +0.000 A 
ATOM      5  F   UNL     1       4.804   5.861  16.757  0.00  0.00    +0.000 F 
ATOM      6  C   UNL     1       3.322   5.976  18.619  0.00  0.00    +0.000 A 
ATOM      7  C   UNL     1       2.420   6.789  19.358  0.00  0.00    +0.000 A 
ENDROOT
BRANCH   6   8
ATOM      8  C   UNL     1       3.666   4.527  19.045  0.00  0.00    +0.000 C 
ATOM      9  N   UNL     1       2.750   4.081  20.119  0.00  0.00    +0.000 NA
ATOM     10  C   UNL     1       1.636   3.534  19.793  0.00  0.00    +0.000 C 
ATOM     11  N   UNL     1       0.679   3.238  20.703  0.00  0.00    +0.000 N 
ATOM     12  O   UNL     1       1.263   3.156  18.548  0.00  0.00    +0.000 OA
ATOM     13  C   UNL     1       2.278   2.989  17.546  0.00  0.00    +0.000 C 
ATOM     14  C   UNL     1       3.431   2.098  17.930  0.00  0.00    +0.000 C 
ATOM     15  C   UNL     1       3.602   3.602  17.843  0.00  0.00    +0.000 C 
ATOM     16  H   UNL     1       1.054   3.128  21.637  0.00  0.00    +0.000 HD
ATOM     17  H   UNL     1       0.055   2.499  20.409  0.00  0.00    +0.000 HD
BRANCH   8  18
ATOM     18  C   UNL     1       5.106   4.510  19.628  0.00  0.00    +0.000 C 
ATOM     19  F   UNL     1       6.004   4.104  18.682  0.00  0.00    +0.000 F 
ENDBRANCH   8  18
ENDBRANCH   6   8
BRANCH   1  22
ATOM     20  C   UNL     1       0.990  10.213  19.679  0.00  0.00    +0.000 C 
ATOM     21  O   UNL     1       1.629  10.969  18.958  0.00  0.00    +0.000 OA
ATOM     22  N   UNL     1       1.139   8.828  19.702  0.00  0.00    +0.000 N 
ATOM     23  H   UNL     1       0.465   8.317  20.268  0.00  0.00    +0.000 HD
BRANCH  20  27
ATOM     24  C   UNL     1      -1.895  11.726  22.438  0.00  0.00    +0.000 A 
ATOM     25  C   UNL     1      -0.844  10.892  22.795  0.00  0.00    +0.000 A 
ATOM     26  N   UNL     1       0.069  10.396  21.917  0.00  0.00    +0.000 NA
ATOM     27  C   UNL     1      -0.065  10.768  20.603  0.00  0.00    +0.000 A 
ATOM     28  C   UNL     1      -1.095  11.608  20.157  0.00  0.00    +0.000 A 
ATOM     29 CL   UNL     1      -1.355  12.114  18.528  0.00  0.00    +0.000 Cl
ATOM     30  C   UNL     1      -2.017  12.083  21.098  0.00  0.00    +0.000 A 
BRANCH  24  32
ATOM     31  N   UNL     1      -3.577  12.590  24.209  0.00  0.00    +0.000 NA
ATOM     32  C   UNL     1      -2.826  12.200  23.415  0.00  0.00    +0.000 C 
ENDBRANCH  24  32
ENDBRANCH  20  27
ENDBRANCH   1  22
TORSDOF 5
ENDMDL
MODEL 8
REMARK VINA RESULT:      -7.7      1.732      2.203
REMARK  Name = 
REMARK  5 active torsions:
REMARK  status: ('A' for Active; 'I' for Inactive)
REMARK    1  A    between atoms: C_2  and  C_3
REMARK    2  A    between atoms: C_6  and  C_7
REMARK    3  A    between atoms: N_9  and  C_10
REMARK    4  A    between atoms: C_15  and  C_16
REMARK    5  A    between atoms: C_16  and  C_17
REMARK                            x       y       z     vdW  Elec       q    Type
REMARK                         _______ _______ _______ _____ _____    ______ ____
ROOT
ATOM      1  C   UNL     1       2.669   7.422  18.814  0.00  0.00    +0.000 A 
ATOM      2  C   UNL     1       3.507   7.765  17.751  0.00  0.00    +0.000 A 
ATOM      3  C   UNL     1       4.139   6.785  16.994  0.00  0.00    +0.000 A 
ATOM      4  C   UNL     1       3.936   5.444  17.288  0.00  0.00    +0.000 A 
ATOM      5  F   UNL     1       4.584   4.541  16.538  0.00  0.00    +0.000 F 
ATOM      6  C   UNL     1       3.098   5.037  18.333  0.00  0.00    +0.000 A 
ATOM      7  C   UNL     1       2.490   6.061  19.111  0.00  0.00    +0.000 A 
ENDROOT
BRANCH   6   8
ATOM      8  C   UNL     1       2.866   3.534  18.623  0.00  0.00    +0.000 C 
ATOM      9  N   UNL     1       3.099   3.248  20.056  0.00  0.00    +0.000 NA
ATOM     10  C   UNL     1       2.123   3.377  20.879  0.00  0.00    +0.000 C 
ATOM     11  N   UNL     1       2.286   3.286  22.219  0.00  0.00    +0.000 N 
ATOM     12  O   UNL     1       0.826   3.589  20.555  0.00  0.00    +0.000 OA
ATOM     13  C   UNL     1       0.391   3.290  19.220  0.00  0.00    +0.000 C 
ATOM     14  C   UNL     1       0.731   1.911  18.719  0.00  0.00    +0.000 C 
ATOM     15  C   UNL     1       1.465   3.132  18.200  0.00  0.00    +0.000 C 
ATOM     16  H   UNL     1       3.108   2.752  22.474  0.00  0.00    +0.000 HD
ATOM     17  H   UNL     1       1.444   3.025  22.713  0.00  0.00    +0.000 HD
BRANCH   8  18
ATOM     18  C   UNL     1       3.902   2.707  17.812  0.00  0.00    +0.000 C 
ATOM     19  F   UNL     1       3.846   1.388  18.162  0.00  0.00    +0.000 F 
ENDBRANCH   8  18
ENDBRANCH   6   8
BRANCH   1  22
ATOM     20  C   UNL     1       1.114   9.356  19.127  0.00  0.00    +0.000 C 
ATOM     21  O   UNL     1       0.767   9.462  17.958  0.00  0.00    +0.000 OA
ATOM     22  N   UNL     1       1.999   8.391  19.605  0.00  0.00    +0.000 N 
ATOM     23  H   UNL     1       2.110   8.351  20.615  0.00  0.00    +0.000 HD
BRANCH  20  27
ATOM     24  C   UNL     1      -0.438  12.147  21.961  0.00  0.00    +0.000 A 
ATOM     25  C   UNL     1       0.297  12.509  20.839  0.00  0.00    +0.000 A 
ATOM     26  N   UNL     1       0.806  11.622  19.942  0.00  0.00    +0.000 NA
ATOM     27  C   UNL     1       0.552  10.292  20.167  0.00  0.00    +0.000 A 
ATOM     28  C   UNL     1      -0.183   9.841  21.273  0.00  0.00    +0.000 A 
ATOM     29 CL   UNL     1      -0.537   8.194  21.649  0.00  0.00    +0.000 Cl
ATOM     30  C   UNL     1      -0.676  10.791  22.175  0.00  0.00    +0.000 A 
BRANCH  24  32
ATOM     31  N   UNL     1      -1.331  13.941  23.602  0.00  0.00    +0.000 NA
ATOM     32  C   UNL     1      -0.932  13.134  22.869  0.00  0.00    +0.000 C 
ENDBRANCH  24  32
ENDBRANCH  20  27
ENDBRANCH   1  22
TORSDOF 5
ENDMDL
MODEL 9
REMARK VINA RESULT:      -7.6      2.540      3.822
REMARK  Name = 
REMARK  5 active torsions:
REMARK  status: ('A' for Active; 'I' for Inactive)
REMARK    1  A    between atoms: C_2  and  C_3
REMARK    2  A    between atoms: C_6  and  C_7
REMARK    3  A    between atoms: N_9  and  C_10
REMARK    4  A    between atoms: C_15  and  C_16
REMARK    5  A    between atoms: C_16  and  C_17
REMARK                            x       y       z     vdW  Elec       q    Type
REMARK                         _______ _______ _______ _____ _____    ______ ____
ROOT
ATOM      1  C   UNL     1       2.490   6.879  18.708  0.00  0.00    +0.000 A 
ATOM      2  C   UNL     1       1.798   5.680  18.893  0.00  0.00    +0.000 A 
ATOM      3  C   UNL     1       2.247   4.499  18.312  0.00  0.00    +0.000 A 
ATOM      4  C   UNL     1       3.400   4.500  17.541  0.00  0.00    +0.000 A 
ATOM      5  F   UNL     1       3.778   3.338  16.989  0.00  0.00    +0.000 F 
ATOM      6  C   UNL     1       4.144   5.668  17.329  0.00  0.00    +0.000 A 
ATOM      7  C   UNL     1       3.645   6.867  17.908  0.00  0.00    +0.000 A 
ENDROOT
BRANCH   6   8
ATOM      8  C   UNL     1       5.443   5.637  16.487  0.00  0.00    +0.000 C 
ATOM      9  N   UNL     1       6.121   6.951  16.547  0.00  0.00    +0.000 NA
ATOM     10  C   UNL     1       6.952   7.175  17.499  0.00  0.00    +0.000 C 
ATOM     11  N   UNL     1       7.496   8.395  17.715  0.00  0.00    +0.000 N 
ATOM     12  O   UNL     1       7.419   6.264  18.385  0.00  0.00    +0.000 OA
ATOM     13  C   UNL     1       7.304   4.869  18.064  0.00  0.00    +0.000 C 
ATOM     14  C   UNL     1       7.846   4.465  16.718  0.00  0.00    +0.000 C 
ATOM     15  C   UNL     1       6.352   4.522  16.973  0.00  0.00    +0.000 C 
ATOM     16  H   UNL     1       7.499   8.971  16.883  0.00  0.00    +0.000 HD
ATOM     17  H   UNL     1       8.378   8.363  18.209  0.00  0.00    +0.000 HD
BRANCH   8  18
ATOM     18  C   UNL     1       5.066   5.379  15.002  0.00  0.00    +0.000 C 
ATOM     19  F   UNL     1       5.305   4.077  14.664  0.00  0.00    +0.000 F 
ENDBRANCH   8  18
ENDBRANCH   6   8
BRANCH   1  22
ATOM     20  C   UNL     1       1.418   9.137  18.622  0.00  0.00    +0.000 C 
ATOM     21  O   UNL     1       1.083   9.101  17.445  0.00  0.00    +0.000 OA
ATOM     22  N   UNL     1       2.070   8.103  19.290  0.00  0.00    +0.000 N 
ATOM     23  H   UNL     1       2.188   8.226  20.294  0.00  0.00    +0.000 HD
BRANCH  20  27
ATOM     24  C   UNL     1       0.446  12.463  21.114  0.00  0.00    +0.000 A 
ATOM     25  C   UNL     1      -0.015  11.171  21.332  0.00  0.00    +0.000 A 
ATOM     26  N   UNL     1       0.281  10.112  20.532  0.00  0.00    +0.000 NA
ATOM     27  C   UNL     1       1.100  10.351  19.457  0.00  0.00    +0.000 A 
ATOM     28  C   UNL     1       1.611  11.624  19.166  0.00  0.00    +0.000 A 
ATOM     29 CL   UNL     1       2.630  12.026  17.833  0.00  0.00    +0.000 Cl
ATOM     30  C   UNL     1       1.268  12.686  20.013  0.00  0.00    +0.000 A 
BRANCH  24  32
ATOM     31  N   UNL     1      -0.210  14.405  22.699  0.00  0.00    +0.000 NA
ATOM     32  C   UNL     1       0.084  13.533  21.992  0.00  0.00    +0.000 C 
ENDBRANCH  24  32
ENDBRANCH  20  27
ENDBRANCH   1  22
TORSDOF 5
ENDMDL
