MODEL 1
REMARK VINA RESULT:      -7.1      0.000      0.000
REMARK  Name = 
REMARK  8 active torsions:
REMARK  status: ('A' for Active; 'I' for Inactive)
REMARK    1  A    between atoms: C_1  and  C_2
REMARK    2  A    between atoms: C_2  and  O_3
REMARK    3  A    between atoms: O_3  and  C_4
REMARK    4  A    between atoms: C_10  and  C_11
REMARK    5  A    between atoms: N_12  and  C_13
REMARK    6  A    between atoms: C_16  and  N_17
REMARK    7  A    between atoms: C_18  and  C_19
REMARK    8  A    between atoms: C_23  and  O_24
REMARK                            x       y       z     vdW  Elec       q    Type
REMARK                         _______ _______ _______ _____ _____    ______ ____
ROOT
ATOM      1  C   UNL     1       4.744   5.019  16.727  0.00  0.00    +0.000 A 
ATOM      2  C   UNL     1       4.519   3.680  17.067  0.00  0.00    +0.000 A 
ATOM      3  C   UNL     1       3.676   3.333  18.127  0.00  0.00    +0.000 A 
ATOM      4 BR   UNL     1       3.479   1.467  18.457  0.00  0.00    +0.000 Br
ATOM      5  C   UNL     1       3.032   4.324  18.874  0.00  0.00    +0.000 A 
ATOM      6 BR   UNL     1       1.915   3.835  20.351  0.00  0.00    +0.000 Br
ATOM      7  C   UNL     1       3.253   5.678  18.547  0.00  0.00    +0.000 A 
ATOM      8  C   UNL     1       4.113   6.019  17.486  0.00  0.00    +0.000 A 
ENDROOT
BRANCH   7   9
ATOM      9  C   UNL     1       2.538   6.738  19.293  0.00  0.00    +0.000 C 
ATOM     10  N   UNL     1       2.055   7.797  18.718  0.00  0.00    +0.000 NA
BRANCH  10  11
ATOM     11  C   UNL     1       1.436   8.766  19.546  0.00  0.00    +0.000 A 
ATOM     12  C   UNL     1       1.241   8.596  20.921  0.00  0.00    +0.000 A 
ATOM     13  C   UNL     1       0.540   9.538  21.681  0.00  0.00    +0.000 A 
ATOM     14  C   UNL     1       0.052  10.705  21.097  0.00  0.00    +0.000 A 
ATOM     15  C   UNL     1       0.320  10.929  19.741  0.00  0.00    +0.000 A 
ATOM     16  C   UNL     1       1.010   9.969  18.978  0.00  0.00    +0.000 A 
BRANCH  14  17
ATOM     17  N   UNL     1      -0.738  11.645  21.797  0.00  0.00    +0.000 N 
ATOM     18  C   UNL     1      -0.340  12.904  22.215  0.00  0.00    +0.000 C 
ATOM     19  C   UNL     1      -1.344  13.581  23.111  0.00  0.00    +0.000 C 
ATOM     20  O   UNL     1       0.699  13.484  21.912  0.00  0.00    +0.000 OA
ATOM     21  H   UNL     1      -1.687  11.364  22.010  0.00  0.00    +0.000 HD
ENDBRANCH  14  17
ENDBRANCH  10  11
ENDBRANCH   7   9
BRANCH   8  22
ATOM     22  O   UNL     1       4.333   7.333  17.146  0.00  0.00    +0.000 OA
ATOM     23  H   UNL     1       3.474   7.733  16.890  0.00  0.00    +0.000 HD
ENDBRANCH   8  22
BRANCH   1  24
ATOM     24  O   UNL     1       5.549   5.409  15.681  0.00  0.00    +0.000 OA
BRANCH  24  26
ATOM     25  C   UNL     1       6.304   4.010  13.849  0.00  0.00    +0.000 C 
ATOM     26  C   UNL     1       6.549   4.470  15.273  0.00  0.00    +0.000 C 
ENDBRANCH  24  26
ENDBRANCH   1  24
TORSDOF 6
ENDMDL
MODEL 2
REMARK VINA RESULT:      -6.9      1.023      1.556
REMARK  Name = 
REMARK  8 active torsions:
REMARK  status: ('A' for Active; 'I' for Inactive)
REMARK    1  A    between atoms: C_1  and  C_2
REMARK    2  A    between atoms: C_2  and  O_3
REMARK    3  A    between atoms: O_3  and  C_4
REMARK    4  A    between atoms: C_10  and  C_11
REMARK    5  A    between atoms: N_12  and  C_13
REMARK    6  A    between atoms: C_16  and  N_17
REMARK    7  A    between atoms: C_18  and  C_19
REMARK    8  A    between atoms: C_23  and  O_24
REMARK                            x       y       z     vdW  Elec       q    Type
REMARK                         _______ _______ _______ _____ _____    ______ ____
ROOT
ATOM      1  C   UNL     1       4.692   5.220  17.170  0.00  0.00    +0.000 A 
ATOM      2  C   UNL     1       4.492   3.862  17.441  0.00  0.00    +0.000 A 
ATOM      3  C   UNL     1       3.477   3.435  18.302  0.00  0.00    +0.000 A 
ATOM      4 BR   UNL     1       3.341   1.553  18.562  0.00  0.00    +0.000 Br
ATOM      5  C   UNL     1       2.631   4.365  18.915  0.00  0.00    +0.000 A 
ATOM      6 BR   UNL     1       1.274   3.769  20.127  0.00  0.00    +0.000 Br
ATOM      7  C   UNL     1       2.824   5.738  18.656  0.00  0.00    +0.000 A 
ATOM      8  C   UNL     1       3.856   6.159  17.797  0.00  0.00    +0.000 A 
ENDROOT
BRANCH   7   9
ATOM      9  C   UNL     1       1.904   6.731  19.255  0.00  0.00    +0.000 C 
ATOM     10  N   UNL     1       2.310   7.874  19.718  0.00  0.00    +0.000 NA
BRANCH  10  11
ATOM     11  C   UNL     1       1.342   8.720  20.314  0.00  0.00    +0.000 A 
ATOM     12  C   UNL     1       0.559   9.626  19.591  0.00  0.00    +0.000 A 
ATOM     13  C   UNL     1      -0.316  10.509  20.233  0.00  0.00    +0.000 A 
ATOM     14  C   UNL     1      -0.469  10.481  21.618  0.00  0.00    +0.000 A 
ATOM     15  C   UNL     1       0.242   9.518  22.343  0.00  0.00    +0.000 A 
ATOM     16  C   UNL     1       1.134   8.644  21.694  0.00  0.00    +0.000 A 
BRANCH  14  17
ATOM     17  N   UNL     1      -1.269  11.408  22.323  0.00  0.00    +0.000 N 
ATOM     18  C   UNL     1      -0.933  12.715  22.636  0.00  0.00    +0.000 C 
ATOM     19  C   UNL     1      -1.913  13.377  23.569  0.00  0.00    +0.000 C 
ATOM     20  O   UNL     1       0.035  13.343  22.218  0.00  0.00    +0.000 OA
ATOM     21  H   UNL     1      -2.177  11.078  22.628  0.00  0.00    +0.000 HD
ENDBRANCH  14  17
ENDBRANCH  10  11
ENDBRANCH   7   9
BRANCH   8  22
ATOM     22  O   UNL     1       4.052   7.493  17.526  0.00  0.00    +0.000 OA
ATOM     23  H   UNL     1       3.827   7.652  16.585  0.00  0.00    +0.000 HD
ENDBRANCH   8  22
BRANCH   1  24
ATOM     24  O   UNL     1       5.664   5.686  16.314  0.00  0.00    +0.000 OA
BRANCH  24  26
ATOM     25  C   UNL     1       7.474   6.931  17.343  0.00  0.00    +0.000 C 
ATOM     26  C   UNL     1       7.012   5.598  16.786  0.00  0.00    +0.000 C 
ENDBRANCH  24  26
ENDBRANCH   1  24
TORSDOF 6
ENDMDL
MODEL 3
REMARK VINA RESULT:      -6.9      0.777      1.247
REMARK  Name = 
REMARK  8 active torsions:
REMARK  status: ('A' for Active; 'I' for Inactive)
REMARK    1  A    between atoms: C_1  and  C_2
REMARK    2  A    between atoms: C_2  and  O_3
REMARK    3  A    between atoms: O_3  and  C_4
REMARK    4  A    between atoms: C_10  and  C_11
REMARK    5  A    between atoms: N_12  and  C_13
REMARK    6  A    between atoms: C_16  and  N_17
REMARK    7  A    between atoms: C_18  and  C_19
REMARK    8  A    between atoms: C_23  and  O_24
REMARK                            x       y       z     vdW  Elec       q    Type
REMARK                         _______ _______ _______ _____ _____    ______ ____
ROOT
ATOM      1  C   UNL     1       4.756   5.136  16.918  0.00  0.00    +0.000 A 
ATOM      2  C   UNL     1       4.496   3.795  17.218  0.00  0.00    +0.000 A 
ATOM      3  C   UNL     1       3.586   3.437  18.219  0.00  0.00    +0.000 A 
ATOM      4 BR   UNL     1       3.350   1.569  18.500  0.00  0.00    +0.000 Br
ATOM      5  C   UNL     1       2.909   4.423  18.943  0.00  0.00    +0.000 A 
ATOM      6 BR   UNL     1       1.700   3.919  20.341  0.00  0.00    +0.000 Br
ATOM      7  C   UNL     1       3.164   5.779  18.656  0.00  0.00    +0.000 A 
ATOM      8  C   UNL     1       4.090   6.130  17.656  0.00  0.00    +0.000 A 
ENDROOT
BRANCH   7   9
ATOM      9  C   UNL     1       2.417   6.833  19.378  0.00  0.00    +0.000 C 
ATOM     10  N   UNL     1       2.015   7.927  18.805  0.00  0.00    +0.000 NA
BRANCH  10  11
ATOM     11  C   UNL     1       1.354   8.885  19.613  0.00  0.00    +0.000 A 
ATOM     12  C   UNL     1       0.923  10.129  19.138  0.00  0.00    +0.000 A 
ATOM     13  C   UNL     1       0.360  11.081  19.994  0.00  0.00    +0.000 A 
ATOM     14  C   UNL     1       0.167  10.801  21.345  0.00  0.00    +0.000 A 
ATOM     15  C   UNL     1       0.511   9.527  21.813  0.00  0.00    +0.000 A 
ATOM     16  C   UNL     1       1.094   8.579  20.951  0.00  0.00    +0.000 A 
BRANCH  14  17
ATOM     17  N   UNL     1      -0.313  11.756  22.269  0.00  0.00    +0.000 N 
ATOM     18  C   UNL     1      -1.506  12.455  22.185  0.00  0.00    +0.000 C 
ATOM     19  C   UNL     1      -1.635  13.545  23.216  0.00  0.00    +0.000 C 
ATOM     20  O   UNL     1      -2.421  12.251  21.392  0.00  0.00    +0.000 OA
ATOM     21  H   UNL     1       0.278  11.944  23.070  0.00  0.00    +0.000 HD
ENDBRANCH  14  17
ENDBRANCH  10  11
ENDBRANCH   7   9
BRANCH   8  22
ATOM     22  O   UNL     1       4.344   7.448  17.356  0.00  0.00    +0.000 OA
ATOM     23  H   UNL     1       4.130   7.990  18.145  0.00  0.00    +0.000 HD
ENDBRANCH   8  22
BRANCH   1  24
ATOM     24  O   UNL     1       5.627   5.536  15.930  0.00  0.00    +0.000 OA
BRANCH  24  26
ATOM     25  C   UNL     1       6.228   4.212  13.989  0.00  0.00    +0.000 C 
ATOM     26  C   UNL     1       6.525   4.535  15.440  0.00  0.00    +0.000 C 
ENDBRANCH  24  26
ENDBRANCH   1  24
TORSDOF 6
ENDMDL
MODEL 4
REMARK VINA RESULT:      -6.8      1.305      1.322
REMARK  Name = 
REMARK  8 active torsions:
REMARK  status: ('A' for Active; 'I' for Inactive)
REMARK    1  A    between atoms: C_1  and  C_2
REMARK    2  A    between atoms: C_2  and  O_3
REMARK    3  A    between atoms: O_3  and  C_4
REMARK    4  A    between atoms: C_10  and  C_11
REMARK    5  A    between atoms: N_12  and  C_13
REMARK    6  A    between atoms: C_16  and  N_17
REMARK    7  A    between atoms: C_18  and  C_19
REMARK    8  A    between atoms: C_23  and  O_24
REMARK                            x       y       z     vdW  Elec       q    Type
REMARK                         _______ _______ _______ _____ _____    ______ ____
ROOT
ATOM      1  C   UNL     1       4.984   5.033  16.910  0.00  0.00    +0.000 A 
ATOM      2  C   UNL     1       4.611   3.728  17.253  0.00  0.00    +0.000 A 
ATOM      3  C   UNL     1       3.578   3.484  18.163  0.00  0.00    +0.000 A 
ATOM      4 BR   UNL     1       3.197   1.652  18.519  0.00  0.00    +0.000 Br
ATOM      5  C   UNL     1       2.888   4.547  18.753  0.00  0.00    +0.000 A 
ATOM      6 BR   UNL     1       1.506   4.198  20.032  0.00  0.00    +0.000 Br
ATOM      7  C   UNL     1       3.256   5.868  18.422  0.00  0.00    +0.000 A 
ATOM      8  C   UNL     1       4.305   6.105  17.514  0.00  0.00    +0.000 A 
ENDROOT
BRANCH   7   9
ATOM      9  C   UNL     1       2.501   7.004  18.997  0.00  0.00    +0.000 C 
ATOM     10  N   UNL     1       2.157   8.043  18.300  0.00  0.00    +0.000 NA
BRANCH  10  11
ATOM     11  C   UNL     1       1.482   9.091  18.974  0.00  0.00    +0.000 A 
ATOM     12  C   UNL     1       1.005   8.983  20.285  0.00  0.00    +0.000 A 
ATOM     13  C   UNL     1       0.260  10.009  20.877  0.00  0.00    +0.000 A 
ATOM     14  C   UNL     1       0.007  11.194  20.191  0.00  0.00    +0.000 A 
ATOM     15  C   UNL     1       0.557  11.350  18.912  0.00  0.00    +0.000 A 
ATOM     16  C   UNL     1       1.290  10.308  18.315  0.00  0.00    +0.000 A 
BRANCH  14  17
ATOM     17  N   UNL     1      -0.812  12.223  20.706  0.00  0.00    +0.000 N 
ATOM     18  C   UNL     1      -2.062  12.592  20.237  0.00  0.00    +0.000 C 
ATOM     19  C   UNL     1      -2.589  13.855  20.867  0.00  0.00    +0.000 C 
ATOM     20  O   UNL     1      -2.741  11.993  19.408  0.00  0.00    +0.000 OA
ATOM     21  H   UNL     1      -0.445  12.738  21.497  0.00  0.00    +0.000 HD
ENDBRANCH  14  17
ENDBRANCH  10  11
ENDBRANCH   7   9
BRANCH   8  22
ATOM     22  O   UNL     1       4.670   7.386  17.172  0.00  0.00    +0.000 OA
ATOM     23  H   UNL     1       5.370   7.334  16.486  0.00  0.00    +0.000 HD
ENDBRANCH   8  22
BRANCH   1  24
ATOM     24  O   UNL     1       5.979   5.323  16.005  0.00  0.00    +0.000 OA
BRANCH  24  26
ATOM     25  C   UNL     1       6.095   4.091  13.919  0.00  0.00    +0.000 C 
ATOM     26  C   UNL     1       6.581   4.201  15.351  0.00  0.00    +0.000 C 
ENDBRANCH  24  26
ENDBRANCH   1  24
TORSDOF 6
ENDMDL
MODEL 5
REMARK VINA RESULT:      -6.8      0.683      1.199
REMARK  Name = 
REMARK  8 active torsions:
REMARK  status: ('A' for Active; 'I' for Inactive)
REMARK    1  A    between atoms: C_1  and  C_2
REMARK    2  A    between atoms: C_2  and  O_3
REMARK    3  A    between atoms: O_3  and  C_4
REMARK    4  A    between atoms: C_10  and  C_11
REMARK    5  A    between atoms: N_12  and  C_13
REMARK    6  A    between atoms: C_16  and  N_17
REMARK    7  A    between atoms: C_18  and  C_19
REMARK    8  A    between atoms: C_23  and  O_24
REMARK                            x       y       z     vdW  Elec       q    Type
REMARK                         _______ _______ _______ _____ _____    ______ ____
ROOT
ATOM      1  C   UNL     1       4.992   5.002  16.955  0.00  0.00    +0.000 A 
ATOM      2  C   UNL     1       4.592   3.705  17.293  0.00  0.00    +0.000 A 
ATOM      3  C   UNL     1       3.540   3.478  18.185  0.00  0.00    +0.000 A 
ATOM      4 BR   UNL     1       3.124   1.653  18.537  0.00  0.00    +0.000 Br
ATOM      5  C   UNL     1       2.857   4.554  18.761  0.00  0.00    +0.000 A 
ATOM      6 BR   UNL     1       1.447   4.229  20.016  0.00  0.00    +0.000 Br
ATOM      7  C   UNL     1       3.252   5.868  18.435  0.00  0.00    +0.000 A 
ATOM      8  C   UNL     1       4.320   6.086  17.544  0.00  0.00    +0.000 A 
ENDROOT
BRANCH   7   9
ATOM      9  C   UNL     1       2.505   7.017  18.994  0.00  0.00    +0.000 C 
ATOM     10  N   UNL     1       2.017   7.965  18.254  0.00  0.00    +0.000 NA
BRANCH  10  11
ATOM     11  C   UNL     1       1.366   9.039  18.909  0.00  0.00    +0.000 A 
ATOM     12  C   UNL     1       0.943  10.201  18.254  0.00  0.00    +0.000 A 
ATOM     13  C   UNL     1       0.391  11.276  18.958  0.00  0.00    +0.000 A 
ATOM     14  C   UNL     1       0.202  11.204  20.336  0.00  0.00    +0.000 A 
ATOM     15  C   UNL     1       0.537  10.012  20.990  0.00  0.00    +0.000 A 
ATOM     16  C   UNL     1       1.109   8.941  20.279  0.00  0.00    +0.000 A 
BRANCH  14  17
ATOM     17  N   UNL     1      -0.268  12.291  21.107  0.00  0.00    +0.000 N 
ATOM     18  C   UNL     1       0.495  13.329  21.616  0.00  0.00    +0.000 C 
ATOM     19  C   UNL     1      -0.264  14.221  22.565  0.00  0.00    +0.000 C 
ATOM     20  O   UNL     1       1.669  13.575  21.353  0.00  0.00    +0.000 OA
ATOM     21  H   UNL     1      -1.262  12.308  21.303  0.00  0.00    +0.000 HD
ENDBRANCH  14  17
ENDBRANCH  10  11
ENDBRANCH   7   9
BRANCH   8  22
ATOM     22  O   UNL     1       4.712   7.360  17.207  0.00  0.00    +0.000 OA
ATOM     23  H   UNL     1       5.620   7.504  17.549  0.00  0.00    +0.000 HD
ENDBRANCH   8  22
BRANCH   1  24
ATOM     24  O   UNL     1       6.008   5.274  16.067  0.00  0.00    +0.000 OA
BRANCH  24  26
ATOM     25  C   UNL     1       5.996   4.157  13.914  0.00  0.00    +0.000 C 
ATOM     26  C   UNL     1       6.522   4.157  15.336  0.00  0.00    +0.000 C 
ENDBRANCH  24  26
ENDBRANCH   1  24
TORSDOF 6
ENDMDL
MODEL 6
REMARK VINA RESULT:      -6.8      1.154      1.199
REMARK  Name = 
REMARK  8 active torsions:
REMARK  status: ('A' for Active; 'I' for Inactive)
REMARK    1  A    between atoms: C_1  and  C_2
REMARK    2  A    between atoms: C_2  and  O_3
REMARK    3  A    between atoms: O_3  and  C_4
REMARK    4  A    between atoms: C_10  and  C_11
REMARK    5  A    between atoms: N_12  and  C_13
REMARK    6  A    between atoms: C_16  and  N_17
REMARK    7  A    between atoms: C_18  and  C_19
REMARK    8  A    between atoms: C_23  and  O_24
REMARK                            x       y       z     vdW  Elec       q    Type
REMARK                         _______ _______ _______ _____ _____    ______ ____
ROOT
ATOM      1  C   UNL     1       4.286   5.529  17.105  0.00  0.00    +0.000 A 
ATOM      2  C   UNL     1       4.101   4.163  17.345  0.00  0.00    +0.000 A 
ATOM      3  C   UNL     1       3.318   3.714  18.413  0.00  0.00    +0.000 A 
ATOM      4 BR   UNL     1       3.169   1.824  18.599  0.00  0.00    +0.000 Br
ATOM      5  C   UNL     1       2.696   4.628  19.269  0.00  0.00    +0.000 A 
ATOM      6 BR   UNL     1       1.664   3.998  20.754  0.00  0.00    +0.000 Br
ATOM      7  C   UNL     1       2.878   6.008  19.043  0.00  0.00    +0.000 A 
ATOM      8  C   UNL     1       3.677   6.451  17.972  0.00  0.00    +0.000 A 
ENDROOT
BRANCH   7   9
ATOM      9  C   UNL     1       2.183   6.989  19.907  0.00  0.00    +0.000 C 
ATOM     10  N   UNL     1       1.657   8.082  19.446  0.00  0.00    +0.000 NA
BRANCH  10  11
ATOM     11  C   UNL     1       1.064   8.969  20.379  0.00  0.00    +0.000 A 
ATOM     12  C   UNL     1       0.616   8.571  21.643  0.00  0.00    +0.000 A 
ATOM     13  C   UNL     1      -0.050   9.460  22.494  0.00  0.00    +0.000 A 
ATOM     14  C   UNL     1      -0.247  10.788  22.125  0.00  0.00    +0.000 A 
ATOM     15  C   UNL     1       0.278  11.220  20.901  0.00  0.00    +0.000 A 
ATOM     16  C   UNL     1       0.930  10.318  20.041  0.00  0.00    +0.000 A 
BRANCH  14  17
ATOM     17  N   UNL     1      -0.989  11.703  22.906  0.00  0.00    +0.000 N 
ATOM     18  C   UNL     1      -2.095  12.428  22.494  0.00  0.00    +0.000 C 
ATOM     19  C   UNL     1      -2.536  13.466  23.493  0.00  0.00    +0.000 C 
ATOM     20  O   UNL     1      -2.718  12.284  21.446  0.00  0.00    +0.000 OA
ATOM     21  H   UNL     1      -0.677  11.837  23.860  0.00  0.00    +0.000 HD
ENDBRANCH  14  17
ENDBRANCH  10  11
ENDBRANCH   7   9
BRANCH   8  22
ATOM     22  O   UNL     1       3.857   7.793  17.731  0.00  0.00    +0.000 OA
ATOM     23  H   UNL     1       3.048   8.269  18.017  0.00  0.00    +0.000 HD
ENDBRANCH   8  22
BRANCH   1  24
ATOM     24  O   UNL     1       5.031   6.019  16.056  0.00  0.00    +0.000 OA
BRANCH  24  26
ATOM     25  C   UNL     1       6.262   4.642  14.484  0.00  0.00    +0.000 C 
ATOM     26  C   UNL     1       6.282   5.368  15.814  0.00  0.00    +0.000 C 
ENDBRANCH  24  26
ENDBRANCH   1  24
TORSDOF 6
ENDMDL
MODEL 7
REMARK VINA RESULT:      -6.7      0.950      1.114
REMARK  Name = 
REMARK  8 active torsions:
REMARK  status: ('A' for Active; 'I' for Inactive)
REMARK    1  A    between atoms: C_1  and  C_2
REMARK    2  A    between atoms: C_2  and  O_3
REMARK    3  A    between atoms: O_3  and  C_4
REMARK    4  A    between atoms: C_10  and  C_11
REMARK    5  A    between atoms: N_12  and  C_13
REMARK    6  A    between atoms: C_16  and  N_17
REMARK    7  A    between atoms: C_18  and  C_19
REMARK    8  A    between atoms: C_23  and  O_24
REMARK                            x       y       z     vdW  Elec       q    Type
REMARK                         _______ _______ _______ _____ _____    ______ ____
ROOT
ATOM      1  C   UNL     1       4.607   4.856  16.784  0.00  0.00    +0.000 A 
ATOM      2  C   UNL     1       4.216   3.556  17.123  0.00  0.00    +0.000 A 
ATOM      3  C   UNL     1       3.310   3.318  18.161  0.00  0.00    +0.000 A 
ATOM      4 BR   UNL     1       2.885   1.492  18.493  0.00  0.00    +0.000 Br
ATOM      5  C   UNL     1       2.769   4.384  18.886  0.00  0.00    +0.000 A 
ATOM      6 BR   UNL     1       1.564   4.041  20.334  0.00  0.00    +0.000 Br
ATOM      7  C   UNL     1       3.157   5.700  18.560  0.00  0.00    +0.000 A 
ATOM      8  C   UNL     1       4.079   5.929  17.521  0.00  0.00    +0.000 A 
ENDROOT
BRANCH   7   9
ATOM      9  C   UNL     1       2.553   6.842  19.282  0.00  0.00    +0.000 C 
ATOM     10  N   UNL     1       2.051   7.872  18.672  0.00  0.00    +0.000 NA
BRANCH  10  11
ATOM     11  C   UNL     1       1.548   8.927  19.473  0.00  0.00    +0.000 A 
ATOM     12  C   UNL     1       1.404   8.840  20.863  0.00  0.00    +0.000 A 
ATOM     13  C   UNL     1       0.814   9.871  21.601  0.00  0.00    +0.000 A 
ATOM     14  C   UNL     1       0.390  11.042  20.978  0.00  0.00    +0.000 A 
ATOM     15  C   UNL     1       0.611  11.178  19.602  0.00  0.00    +0.000 A 
ATOM     16  C   UNL     1       1.189  10.131  18.861  0.00  0.00    +0.000 A 
BRANCH  14  17
ATOM     17  N   UNL     1      -0.291  12.075  21.661  0.00  0.00    +0.000 N 
ATOM     18  C   UNL     1      -1.101  11.930  22.775  0.00  0.00    +0.000 C 
ATOM     19  C   UNL     1      -1.844  13.188  23.143  0.00  0.00    +0.000 C 
ATOM     20  O   UNL     1      -1.236  10.918  23.457  0.00  0.00    +0.000 OA
ATOM     21  H   UNL     1      -0.172  13.012  21.294  0.00  0.00    +0.000 HD
ENDBRANCH  14  17
ENDBRANCH  10  11
ENDBRANCH   7   9
BRANCH   8  22
ATOM     22  O   UNL     1       4.461   7.206  17.182  0.00  0.00    +0.000 OA
ATOM     23  H   UNL     1       4.800   7.192  16.262  0.00  0.00    +0.000 HD
ENDBRANCH   8  22
BRANCH   1  24
ATOM     24  O   UNL     1       5.480   5.141  15.758  0.00  0.00    +0.000 OA
BRANCH  24  26
ATOM     25  C   UNL     1       7.451   4.680  17.095  0.00  0.00    +0.000 C 
ATOM     26  C   UNL     1       6.729   4.443  15.783  0.00  0.00    +0.000 C 
ENDBRANCH  24  26
ENDBRANCH   1  24
TORSDOF 6
ENDMDL
MODEL 8
REMARK VINA RESULT:      -6.6      3.497      8.872
REMARK  Name = 
REMARK  8 active torsions:
REMARK  status: ('A' for Active; 'I' for Inactive)
REMARK    1  A    between atoms: C_1  and  C_2
REMARK    2  A    between atoms: C_2  and  O_3
REMARK    3  A    between atoms: O_3  and  C_4
REMARK    4  A    between atoms: C_10  and  C_11
REMARK    5  A    between atoms: N_12  and  C_13
REMARK    6  A    between atoms: C_16  and  N_17
REMARK    7  A    between atoms: C_18  and  C_19
REMARK    8  A    between atoms: C_23  and  O_24
REMARK                            x       y       z     vdW  Elec       q    Type
REMARK                         _______ _______ _______ _____ _____    ______ ____
ROOT
ATOM      1  C   UNL     1      -0.409  12.704  19.380  0.00  0.00    +0.000 A 
ATOM      2  C   UNL     1      -1.071  12.937  20.590  0.00  0.00    +0.000 A 
ATOM      3  C   UNL     1      -1.081  11.980  21.609  0.00  0.00    +0.000 A 
ATOM      4 BR   UNL     1      -2.028  12.457  23.191  0.00  0.00    +0.000 Br
ATOM      5  C   UNL     1      -0.421  10.759  21.439  0.00  0.00    +0.000 A 
ATOM      6 BR   UNL     1      -0.481   9.439  22.825  0.00  0.00    +0.000 Br
ATOM      7  C   UNL     1       0.246  10.507  20.223  0.00  0.00    +0.000 A 
ATOM      8  C   UNL     1       0.241  11.472  19.198  0.00  0.00    +0.000 A 
ENDROOT
BRANCH   7   9
ATOM      9  C   UNL     1       0.994   9.241  20.047  0.00  0.00    +0.000 C 
ATOM     10  N   UNL     1       1.644   8.955  18.961  0.00  0.00    +0.000 NA
BRANCH  10  11
ATOM     11  C   UNL     1       2.279   7.690  18.892  0.00  0.00    +0.000 A 
ATOM     12  C   UNL     1       3.122   7.306  17.843  0.00  0.00    +0.000 A 
ATOM     13  C   UNL     1       3.651   6.013  17.767  0.00  0.00    +0.000 A 
ATOM     14  C   UNL     1       3.390   5.077  18.765  0.00  0.00    +0.000 A 
ATOM     15  C   UNL     1       2.623   5.477  19.866  0.00  0.00    +0.000 A 
ATOM     16  C   UNL     1       2.079   6.774  19.927  0.00  0.00    +0.000 A 
BRANCH  14  17
ATOM     17  N   UNL     1       3.825   3.734  18.694  0.00  0.00    +0.000 N 
ATOM     18  C   UNL     1       3.127   2.671  18.144  0.00  0.00    +0.000 C 
ATOM     19  C   UNL     1       3.769   1.334  18.405  0.00  0.00    +0.000 C 
ATOM     20  O   UNL     1       2.095   2.736  17.481  0.00  0.00    +0.000 OA
ATOM     21  H   UNL     1       4.737   3.535  19.086  0.00  0.00    +0.000 HD
ENDBRANCH  14  17
ENDBRANCH  10  11
ENDBRANCH   7   9
BRANCH   8  22
ATOM     22  O   UNL     1       0.895  11.246  18.009  0.00  0.00    +0.000 OA
ATOM     23  H   UNL     1       1.458  10.449  18.114  0.00  0.00    +0.000 HD
ENDBRANCH   8  22
BRANCH   1  24
ATOM     24  O   UNL     1      -0.355  13.623  18.357  0.00  0.00    +0.000 OA
BRANCH  24  26
ATOM     25  C   UNL     1       1.464  15.101  18.982  0.00  0.00    +0.000 C 
ATOM     26  C   UNL     1      -0.025  14.964  18.732  0.00  0.00    +0.000 C 
ENDBRANCH  24  26
ENDBRANCH   1  24
TORSDOF 6
ENDMDL
MODEL 9
REMARK VINA RESULT:      -6.5      1.500      1.552
REMARK  Name = 
REMARK  8 active torsions:
REMARK  status: ('A' for Active; 'I' for Inactive)
REMARK    1  A    between atoms: C_1  and  C_2
REMARK    2  A    between atoms: C_2  and  O_3
REMARK    3  A    between atoms: O_3  and  C_4
REMARK    4  A    between atoms: C_10  and  C_11
REMARK    5  A    between atoms: N_12  and  C_13
REMARK    6  A    between atoms: C_16  and  N_17
REMARK    7  A    between atoms: C_18  and  C_19
REMARK    8  A    between atoms: C_23  and  O_24
REMARK                            x       y       z     vdW  Elec       q    Type
REMARK                         _______ _______ _______ _____ _____    ______ ____
ROOT
ATOM      1  C   UNL     1       5.220   5.034  17.369  0.00  0.00    +0.000 A 
ATOM      2  C   UNL     1       5.203   3.891  18.177  0.00  0.00    +0.000 A 
ATOM      3  C   UNL     1       4.241   3.723  19.177  0.00  0.00    +0.000 A 
ATOM      4 BR   UNL     1       4.360   2.111  20.185  0.00  0.00    +0.000 Br
ATOM      5  C   UNL     1       3.264   4.700  19.390  0.00  0.00    +0.000 A 
ATOM      6 BR   UNL     1       1.979   4.477  20.793  0.00  0.00    +0.000 Br
ATOM      7  C   UNL     1       3.271   5.860  18.588  0.00  0.00    +0.000 A 
ATOM      8  C   UNL     1       4.252   6.027  17.592  0.00  0.00    +0.000 A 
ENDROOT
BRANCH   7   9
ATOM      9  C   UNL     1       2.213   6.880  18.766  0.00  0.00    +0.000 C 
ATOM     10  N   UNL     1       2.473   8.142  18.919  0.00  0.00    +0.000 NA
BRANCH  10  11
ATOM     11  C   UNL     1       1.377   9.015  19.133  0.00  0.00    +0.000 A 
ATOM     12  C   UNL     1       0.843   9.288  20.397  0.00  0.00    +0.000 A 
ATOM     13  C   UNL     1      -0.299  10.082  20.550  0.00  0.00    +0.000 A 
ATOM     14  C   UNL     1      -0.916  10.666  19.446  0.00  0.00    +0.000 A 
ATOM     15  C   UNL     1      -0.336  10.475  18.186  0.00  0.00    +0.000 A 
ATOM     16  C   UNL     1       0.802   9.661  18.035  0.00  0.00    +0.000 A 
BRANCH  14  17
ATOM     17  N   UNL     1      -2.119  11.401  19.535  0.00  0.00    +0.000 N 
ATOM     18  C   UNL     1      -2.321  12.565  20.259  0.00  0.00    +0.000 C 
ATOM     19  C   UNL     1      -3.765  12.992  20.315  0.00  0.00    +0.000 C 
ATOM     20  O   UNL     1      -1.460  13.245  20.809  0.00  0.00    +0.000 OA
ATOM     21  H   UNL     1      -2.909  11.036  19.016  0.00  0.00    +0.000 HD
ENDBRANCH  14  17
ENDBRANCH  10  11
ENDBRANCH   7   9
BRANCH   8  22
ATOM     22  O   UNL     1       4.268   7.147  16.794  0.00  0.00    +0.000 OA
ATOM     23  H   UNL     1       4.094   6.869  15.870  0.00  0.00    +0.000 HD
ENDBRANCH   8  22
BRANCH   1  24
ATOM     24  O   UNL     1       6.135   5.234  16.361  0.00  0.00    +0.000 OA
BRANCH  24  26
ATOM     25  C   UNL     1       5.710   4.222  14.198  0.00  0.00    +0.000 C 
ATOM     26  C   UNL     1       6.418   4.102  15.533  0.00  0.00    +0.000 C 
ENDBRANCH  24  26
ENDBRANCH   1  24
TORSDOF 6
ENDMDL
