MODEL 1
REMARK VINA RESULT:      -7.8      0.000      0.000
REMARK  Name = 
REMARK  13 active torsions:
REMARK  status: ('A' for Active; 'I' for Inactive)
REMARK    1  A    between atoms: C_1  and  C_2
REMARK    2  A    between atoms: C_2  and  O_3
REMARK    3  A    between atoms: O_3  and  C_4
REMARK    4  A    between atoms: C_4  and  C_6
REMARK    5  A    between atoms: C_6  and  N_7
REMARK    6  A    between atoms: C_9  and  C_10
REMARK    7  A    between atoms: C_10  and  O_11
REMARK    8  A    between atoms: O_11  and  C_12
REMARK    9  A    between atoms: C_12  and  C_13
REMARK   10  A    between atoms: C_14  and  C_15
REMARK   11  A    between atoms: C_18  and  O_19
REMARK   12  A    between atoms: O_19  and  C_20
REMARK   13  A    between atoms: C_26  and  C_27
REMARK                            x       y       z     vdW  Elec       q    Type
REMARK                         _______ _______ _______ _____ _____    ______ ____
ROOT
ATOM      1  C   UNL     1       3.964   5.580  19.267  0.00  0.00    +0.000 A 
ATOM      2  C   UNL     1       2.714   6.058  19.676  0.00  0.00    +0.000 A 
ATOM      3  N   UNL     1       2.021   5.115  20.418  0.00  0.00    +0.000 NA
ATOM      4  C   UNL     1       2.821   4.090  20.403  0.00  0.00    +0.000 A 
ATOM      5  S   UNL     1       2.774   2.513  21.060  0.00  0.00    +0.000 S 
ATOM      6  C   UNL     1       4.379   2.290  20.329  0.00  0.00    +0.000 A 
ATOM      7  C   UNL     1       5.041   0.964  20.513  0.00  0.00    +0.000 C 
ATOM      8  N   UNL     1       4.906   3.292  19.676  0.00  0.00    +0.000 NA
ATOM      9  N   UNL     1       3.985   4.294  19.737  0.00  0.00    +0.000 N 
ENDROOT
BRANCH   2  10
ATOM     10  C   UNL     1       2.162   7.381  19.435  0.00  0.00    +0.000 A 
ATOM     11  C   UNL     1       2.171   7.956  18.158  0.00  0.00    +0.000 A 
ATOM     12  C   UNL     1       1.657   9.240  17.957  0.00  0.00    +0.000 A 
ATOM     13  C   UNL     1       1.087   9.953  19.013  0.00  0.00    +0.000 A 
ATOM     14  C   UNL     1       1.037   9.379  20.280  0.00  0.00    +0.000 A 
ATOM     15  C   UNL     1       1.570   8.095  20.485  0.00  0.00    +0.000 A 
BRANCH  13  16
ATOM     16  O   UNL     1       0.654  11.208  18.684  0.00  0.00    +0.000 OA
ATOM     17  C   UNL     1      -0.727  11.331  18.372  0.00  0.00    +0.000 C 
ENDBRANCH  13  16
ENDBRANCH   2  10
BRANCH   1  18
ATOM     18  C   UNL     1       5.107   6.200  18.562  0.00  0.00    +0.000 C 
BRANCH  18  19
ATOM     19  O   UNL     1       5.577   5.238  17.618  0.00  0.00    +0.000 OA
BRANCH  19  20
ATOM     20  C   UNL     1       4.790   5.219  16.417  0.00  0.00    +0.000 C 
BRANCH  20  23
ATOM     21  N   UNL     1       6.501   4.236  13.388  0.00  0.00    +0.000 N 
ATOM     22  C   UNL     1       5.399   4.086  14.171  0.00  0.00    +0.000 A 
ATOM     23  C   UNL     1       5.593   4.992  15.189  0.00  0.00    +0.000 A 
ATOM     24  N   UNL     1       6.753   5.688  14.956  0.00  0.00    +0.000 NA
ATOM     25  N   UNL     1       7.296   5.223  13.839  0.00  0.00    +0.000 NA
BRANCH  21  26
ATOM     26  C   UNL     1       6.868   3.482  12.214  0.00  0.00    +0.000 C 
BRANCH  26  27
ATOM     27  C   UNL     1       5.668   2.777  11.650  0.00  0.00    +0.000 C 
ATOM     28  O   UNL     1       5.587   1.579  11.415  0.00  0.00    +0.000 OA
BRANCH  27  29
ATOM     29  O   UNL     1       4.666   3.680  11.437  0.00  0.00    +0.000 OA
BRANCH  29  31
ATOM     30  C   UNL     1       3.132   3.945   9.633  0.00  0.00    +0.000 C 
ATOM     31  C   UNL     1       3.469   3.131  10.868  0.00  0.00    +0.000 C 
ENDBRANCH  29  31
ENDBRANCH  27  29
ENDBRANCH  26  27
ENDBRANCH  21  26
ENDBRANCH  20  23
ENDBRANCH  19  20
ENDBRANCH  18  19
ENDBRANCH   1  18
TORSDOF 10
ENDMDL
MODEL 2
REMARK VINA RESULT:      -7.7      0.970      1.425
REMARK  Name = 
REMARK  13 active torsions:
REMARK  status: ('A' for Active; 'I' for Inactive)
REMARK    1  A    between atoms: C_1  and  C_2
REMARK    2  A    between atoms: C_2  and  O_3
REMARK    3  A    between atoms: O_3  and  C_4
REMARK    4  A    between atoms: C_4  and  C_6
REMARK    5  A    between atoms: C_6  and  N_7
REMARK    6  A    between atoms: C_9  and  C_10
REMARK    7  A    between atoms: C_10  and  O_11
REMARK    8  A    between atoms: O_11  and  C_12
REMARK    9  A    between atoms: C_12  and  C_13
REMARK   10  A    between atoms: C_14  and  C_15
REMARK   11  A    between atoms: C_18  and  O_19
REMARK   12  A    between atoms: O_19  and  C_20
REMARK   13  A    between atoms: C_26  and  C_27
REMARK                            x       y       z     vdW  Elec       q    Type
REMARK                         _______ _______ _______ _____ _____    ______ ____
ROOT
ATOM      1  C   UNL     1       3.647   5.793  19.183  0.00  0.00    +0.000 A 
ATOM      2  C   UNL     1       2.470   6.317  19.727  0.00  0.00    +0.000 A 
ATOM      3  N   UNL     1       1.847   5.411  20.571  0.00  0.00    +0.000 NA
ATOM      4  C   UNL     1       2.611   4.363  20.486  0.00  0.00    +0.000 A 
ATOM      5  S   UNL     1       2.602   2.803  21.183  0.00  0.00    +0.000 S 
ATOM      6  C   UNL     1       4.099   2.516  20.269  0.00  0.00    +0.000 A 
ATOM      7  C   UNL     1       4.742   1.174  20.405  0.00  0.00    +0.000 C 
ATOM      8  N   UNL     1       4.570   3.486  19.532  0.00  0.00    +0.000 NA
ATOM      9  N   UNL     1       3.691   4.517  19.679  0.00  0.00    +0.000 N 
ENDROOT
BRANCH   2  10
ATOM     10  C   UNL     1       1.929   7.651  19.521  0.00  0.00    +0.000 A 
ATOM     11  C   UNL     1       1.893   8.237  18.250  0.00  0.00    +0.000 A 
ATOM     12  C   UNL     1       1.390   9.531  18.082  0.00  0.00    +0.000 A 
ATOM     13  C   UNL     1       0.878  10.243  19.167  0.00  0.00    +0.000 A 
ATOM     14  C   UNL     1       0.873   9.658  20.430  0.00  0.00    +0.000 A 
ATOM     15  C   UNL     1       1.394   8.364  20.602  0.00  0.00    +0.000 A 
BRANCH  13  16
ATOM     16  O   UNL     1       0.451  11.506  18.868  0.00  0.00    +0.000 OA
ATOM     17  C   UNL     1      -0.884  11.620  18.391  0.00  0.00    +0.000 C 
ENDBRANCH  13  16
ENDBRANCH   2  10
BRANCH   1  18
ATOM     18  C   UNL     1       4.713   6.362  18.329  0.00  0.00    +0.000 C 
BRANCH  18  19
ATOM     19  O   UNL     1       4.626   5.699  17.068  0.00  0.00    +0.000 OA
BRANCH  19  20
ATOM     20  C   UNL     1       5.710   4.781  16.856  0.00  0.00    +0.000 C 
BRANCH  20  23
ATOM     21  N   UNL     1       6.785   4.507  13.415  0.00  0.00    +0.000 N 
ATOM     22  C   UNL     1       5.830   4.205  14.335  0.00  0.00    +0.000 A 
ATOM     23  C   UNL     1       6.267   4.833  15.480  0.00  0.00    +0.000 A 
ATOM     24  N   UNL     1       7.416   5.529  15.201  0.00  0.00    +0.000 NA
ATOM     25  N   UNL     1       7.718   5.331  13.925  0.00  0.00    +0.000 NA
BRANCH  21  26
ATOM     26  C   UNL     1       6.883   4.047  12.051  0.00  0.00    +0.000 C 
BRANCH  26  27
ATOM     27  C   UNL     1       5.904   2.937  11.802  0.00  0.00    +0.000 C 
ATOM     28  O   UNL     1       4.708   3.074  11.582  0.00  0.00    +0.000 OA
BRANCH  27  29
ATOM     29  O   UNL     1       6.551   1.736  11.855  0.00  0.00    +0.000 OA
BRANCH  29  31
ATOM     30  C   UNL     1       6.076  -0.556  11.406  0.00  0.00    +0.000 C 
ATOM     31  C   UNL     1       6.224   0.826  10.795  0.00  0.00    +0.000 C 
ENDBRANCH  29  31
ENDBRANCH  27  29
ENDBRANCH  26  27
ENDBRANCH  21  26
ENDBRANCH  20  23
ENDBRANCH  19  20
ENDBRANCH  18  19
ENDBRANCH   1  18
TORSDOF 10
ENDMDL
MODEL 3
REMARK VINA RESULT:      -7.7      1.523      1.983
REMARK  Name = 
REMARK  13 active torsions:
REMARK  status: ('A' for Active; 'I' for Inactive)
REMARK    1  A    between atoms: C_1  and  C_2
REMARK    2  A    between atoms: C_2  and  O_3
REMARK    3  A    between atoms: O_3  and  C_4
REMARK    4  A    between atoms: C_4  and  C_6
REMARK    5  A    between atoms: C_6  and  N_7
REMARK    6  A    between atoms: C_9  and  C_10
REMARK    7  A    between atoms: C_10  and  O_11
REMARK    8  A    between atoms: O_11  and  C_12
REMARK    9  A    between atoms: C_12  and  C_13
REMARK   10  A    between atoms: C_14  and  C_15
REMARK   11  A    between atoms: C_18  and  O_19
REMARK   12  A    between atoms: O_19  and  C_20
REMARK   13  A    between atoms: C_26  and  C_27
REMARK                            x       y       z     vdW  Elec       q    Type
REMARK                         _______ _______ _______ _____ _____    ______ ____
ROOT
ATOM      1  C   UNL     1       2.795   6.241  18.851  0.00  0.00    +0.000 A 
ATOM      2  C   UNL     1       1.965   6.638  19.904  0.00  0.00    +0.000 A 
ATOM      3  N   UNL     1       1.569   5.561  20.681  0.00  0.00    +0.000 NA
ATOM      4  C   UNL     1       2.112   4.549  20.071  0.00  0.00    +0.000 A 
ATOM      5  S   UNL     1       2.150   2.861  20.332  0.00  0.00    +0.000 S 
ATOM      6  C   UNL     1       3.176   2.781  18.883  0.00  0.00    +0.000 A 
ATOM      7  C   UNL     1       3.648   1.432  18.447  0.00  0.00    +0.000 C 
ATOM      8  N   UNL     1       3.477   3.897  18.274  0.00  0.00    +0.000 NA
ATOM      9  N   UNL     1       2.847   4.878  18.979  0.00  0.00    +0.000 N 
ENDROOT
BRANCH   2  10
ATOM     10  C   UNL     1       1.562   7.996  20.237  0.00  0.00    +0.000 A 
ATOM     11  C   UNL     1       1.225   8.358  21.546  0.00  0.00    +0.000 A 
ATOM     12  C   UNL     1       0.817   9.663  21.836  0.00  0.00    +0.000 A 
ATOM     13  C   UNL     1       0.780  10.636  20.837  0.00  0.00    +0.000 A 
ATOM     14  C   UNL     1       1.148  10.300  19.538  0.00  0.00    +0.000 A 
ATOM     15  C   UNL     1       1.541   8.983  19.243  0.00  0.00    +0.000 A 
BRANCH  13  16
ATOM     16  O   UNL     1       0.331  11.860  21.251  0.00  0.00    +0.000 OA
ATOM     17  C   UNL     1      -0.659  11.852  22.271  0.00  0.00    +0.000 C 
ENDBRANCH  13  16
ENDBRANCH   2  10
BRANCH   1  18
ATOM     18  C   UNL     1       3.554   6.984  17.821  0.00  0.00    +0.000 C 
BRANCH  18  19
ATOM     19  O   UNL     1       4.936   6.852  18.154  0.00  0.00    +0.000 OA
BRANCH  19  20
ATOM     20  C   UNL     1       5.800   7.315  17.104  0.00  0.00    +0.000 C 
BRANCH  20  23
ATOM     21  N   UNL     1       6.359   4.500  14.905  0.00  0.00    +0.000 N 
ATOM     22  C   UNL     1       5.446   5.288  15.533  0.00  0.00    +0.000 A 
ATOM     23  C   UNL     1       6.212   6.242  16.164  0.00  0.00    +0.000 A 
ATOM     24  N   UNL     1       7.533   6.037  15.851  0.00  0.00    +0.000 NA
ATOM     25  N   UNL     1       7.609   4.970  15.066  0.00  0.00    +0.000 NA
BRANCH  21  26
ATOM     26  C   UNL     1       6.124   3.293  14.150  0.00  0.00    +0.000 C 
BRANCH  26  27
ATOM     27  C   UNL     1       5.951   3.614  12.694  0.00  0.00    +0.000 C 
ATOM     28  O   UNL     1       6.854   3.809  11.892  0.00  0.00    +0.000 OA
BRANCH  27  29
ATOM     29  O   UNL     1       4.620   3.654  12.389  0.00  0.00    +0.000 OA
BRANCH  29  31
ATOM     30  C   UNL     1       3.425   3.949  10.349  0.00  0.00    +0.000 C 
ATOM     31  C   UNL     1       4.258   2.985  11.174  0.00  0.00    +0.000 C 
ENDBRANCH  29  31
ENDBRANCH  27  29
ENDBRANCH  26  27
ENDBRANCH  21  26
ENDBRANCH  20  23
ENDBRANCH  19  20
ENDBRANCH  18  19
ENDBRANCH   1  18
TORSDOF 10
ENDMDL
MODEL 4
REMARK VINA RESULT:      -7.4      1.034      1.346
REMARK  Name = 
REMARK  13 active torsions:
REMARK  status: ('A' for Active; 'I' for Inactive)
REMARK    1  A    between atoms: C_1  and  C_2
REMARK    2  A    between atoms: C_2  and  O_3
REMARK    3  A    between atoms: O_3  and  C_4
REMARK    4  A    between atoms: C_4  and  C_6
REMARK    5  A    between atoms: C_6  and  N_7
REMARK    6  A    between atoms: C_9  and  C_10
REMARK    7  A    between atoms: C_10  and  O_11
REMARK    8  A    between atoms: O_11  and  C_12
REMARK    9  A    between atoms: C_12  and  C_13
REMARK   10  A    between atoms: C_14  and  C_15
REMARK   11  A    between atoms: C_18  and  O_19
REMARK   12  A    between atoms: O_19  and  C_20
REMARK   13  A    between atoms: C_26  and  C_27
REMARK                            x       y       z     vdW  Elec       q    Type
REMARK                         _______ _______ _______ _____ _____    ______ ____
ROOT
ATOM      1  C   UNL     1       3.452   5.832  18.581  0.00  0.00    +0.000 A 
ATOM      2  C   UNL     1       2.288   6.341  19.166  0.00  0.00    +0.000 A 
ATOM      3  N   UNL     1       1.523   5.340  19.742  0.00  0.00    +0.000 NA
ATOM      4  C   UNL     1       2.193   4.263  19.459  0.00  0.00    +0.000 A 
ATOM      5  S   UNL     1       1.990   2.596  19.776  0.00  0.00    +0.000 S 
ATOM      6  C   UNL     1       3.521   2.366  18.904  0.00  0.00    +0.000 A 
ATOM      7  C   UNL     1       4.029   0.968  18.761  0.00  0.00    +0.000 C 
ATOM      8  N   UNL     1       4.134   3.422  18.438  0.00  0.00    +0.000 NA
ATOM      9  N   UNL     1       3.342   4.480  18.770  0.00  0.00    +0.000 N 
ENDROOT
BRANCH   2  10
ATOM     10  C   UNL     1       1.887   7.737  19.244  0.00  0.00    +0.000 A 
ATOM     11  C   UNL     1       1.472   8.311  20.451  0.00  0.00    +0.000 A 
ATOM     12  C   UNL     1       1.067   9.649  20.495  0.00  0.00    +0.000 A 
ATOM     13  C   UNL     1       1.110  10.444  19.350  0.00  0.00    +0.000 A 
ATOM     14  C   UNL     1       1.556   9.896  18.151  0.00  0.00    +0.000 A 
ATOM     15  C   UNL     1       1.946   8.547  18.103  0.00  0.00    +0.000 A 
BRANCH  13  16
ATOM     16  O   UNL     1       0.655  11.722  19.527  0.00  0.00    +0.000 OA
ATOM     17  C   UNL     1       1.251  12.718  18.707  0.00  0.00    +0.000 C 
ENDBRANCH  13  16
ENDBRANCH   2  10
BRANCH   1  18
ATOM     18  C   UNL     1       4.628   6.463  17.942  0.00  0.00    +0.000 C 
BRANCH  18  19
ATOM     19  O   UNL     1       4.803   5.821  16.679  0.00  0.00    +0.000 OA
BRANCH  19  20
ATOM     20  C   UNL     1       6.124   5.281  16.517  0.00  0.00    +0.000 C 
BRANCH  20  23
ATOM     21  N   UNL     1       6.733   4.519  13.036  0.00  0.00    +0.000 N 
ATOM     22  C   UNL     1       5.849   4.487  14.069  0.00  0.00    +0.000 A 
ATOM     23  C   UNL     1       6.521   5.110  15.097  0.00  0.00    +0.000 A 
ATOM     24  N   UNL     1       7.740   5.543  14.639  0.00  0.00    +0.000 NA
ATOM     25  N   UNL     1       7.854   5.186  13.367  0.00  0.00    +0.000 NA
BRANCH  21  26
ATOM     26  C   UNL     1       6.589   3.939  11.723  0.00  0.00    +0.000 C 
BRANCH  26  27
ATOM     27  C   UNL     1       5.574   2.833  11.750  0.00  0.00    +0.000 C 
ATOM     28  O   UNL     1       5.822   1.635  11.774  0.00  0.00    +0.000 OA
BRANCH  27  29
ATOM     29  O   UNL     1       4.317   3.366  11.747  0.00  0.00    +0.000 OA
BRANCH  29  31
ATOM     30  C   UNL     1       3.139   4.133   9.822  0.00  0.00    +0.000 C 
ATOM     31  C   UNL     1       3.475   2.922  10.674  0.00  0.00    +0.000 C 
ENDBRANCH  29  31
ENDBRANCH  27  29
ENDBRANCH  26  27
ENDBRANCH  21  26
ENDBRANCH  20  23
ENDBRANCH  19  20
ENDBRANCH  18  19
ENDBRANCH   1  18
TORSDOF 10
ENDMDL
MODEL 5
REMARK VINA RESULT:      -7.2      2.707      5.518
REMARK  Name = 
REMARK  13 active torsions:
REMARK  status: ('A' for Active; 'I' for Inactive)
REMARK    1  A    between atoms: C_1  and  C_2
REMARK    2  A    between atoms: C_2  and  O_3
REMARK    3  A    between atoms: O_3  and  C_4
REMARK    4  A    between atoms: C_4  and  C_6
REMARK    5  A    between atoms: C_6  and  N_7
REMARK    6  A    between atoms: C_9  and  C_10
REMARK    7  A    between atoms: C_10  and  O_11
REMARK    8  A    between atoms: O_11  and  C_12
REMARK    9  A    between atoms: C_12  and  C_13
REMARK   10  A    between atoms: C_14  and  C_15
REMARK   11  A    between atoms: C_18  and  O_19
REMARK   12  A    between atoms: O_19  and  C_20
REMARK   13  A    between atoms: C_26  and  C_27
REMARK                            x       y       z     vdW  Elec       q    Type
REMARK                         _______ _______ _______ _____ _____    ______ ____
ROOT
ATOM      1  C   UNL     1       1.834   8.392  19.123  0.00  0.00    +0.000 A 
ATOM      2  C   UNL     1       1.872   7.154  19.773  0.00  0.00    +0.000 A 
ATOM      3  N   UNL     1       1.308   7.219  21.037  0.00  0.00    +0.000 NA
ATOM      4  C   UNL     1       0.992   8.475  21.149  0.00  0.00    +0.000 A 
ATOM      5  S   UNL     1       0.258   9.432  22.359  0.00  0.00    +0.000 S 
ATOM      6  C   UNL     1       0.436  10.790  21.226  0.00  0.00    +0.000 A 
ATOM      7  C   UNL     1      -0.049  12.130  21.674  0.00  0.00    +0.000 C 
ATOM      8  N   UNL     1       0.972  10.555  20.057  0.00  0.00    +0.000 NA
ATOM      9  N   UNL     1       1.279   9.228  20.056  0.00  0.00    +0.000 N 
ENDROOT
BRANCH   2  10
ATOM     10  C   UNL     1       2.377   5.900  19.237  0.00  0.00    +0.000 A 
ATOM     11  C   UNL     1       3.552   5.316  19.726  0.00  0.00    +0.000 A 
ATOM     12  C   UNL     1       4.030   4.123  19.177  0.00  0.00    +0.000 A 
ATOM     13  C   UNL     1       3.326   3.472  18.164  0.00  0.00    +0.000 A 
ATOM     14  C   UNL     1       2.137   4.022  17.693  0.00  0.00    +0.000 A 
ATOM     15  C   UNL     1       1.665   5.230  18.233  0.00  0.00    +0.000 A 
BRANCH  13  16
ATOM     16  O   UNL     1       3.923   2.334  17.696  0.00  0.00    +0.000 OA
ATOM     17  C   UNL     1       3.872   1.202  18.554  0.00  0.00    +0.000 C 
ENDBRANCH  13  16
ENDBRANCH   2  10
BRANCH   1  18
ATOM     18  C   UNL     1       2.198   8.835  17.760  0.00  0.00    +0.000 C 
BRANCH  18  19
ATOM     19  O   UNL     1       3.062   7.835  17.221  0.00  0.00    +0.000 OA
BRANCH  19  20
ATOM     20  C   UNL     1       4.448   8.107  17.486  0.00  0.00    +0.000 C 
BRANCH  20  23
ATOM     21  N   UNL     1       6.264   5.204  16.327  0.00  0.00    +0.000 N 
ATOM     22  C   UNL     1       5.235   6.065  16.104  0.00  0.00    +0.000 A 
ATOM     23  C   UNL     1       5.349   6.985  17.122  0.00  0.00    +0.000 A 
ATOM     24  N   UNL     1       6.458   6.688  17.874  0.00  0.00    +0.000 NA
ATOM     25  N   UNL     1       7.019   5.598  17.367  0.00  0.00    +0.000 NA
BRANCH  21  26
ATOM     26  C   UNL     1       6.584   3.995  15.608  0.00  0.00    +0.000 C 
BRANCH  26  27
ATOM     27  C   UNL     1       6.610   4.258  14.130  0.00  0.00    +0.000 C 
ATOM     28  O   UNL     1       7.286   5.107  13.566  0.00  0.00    +0.000 OA
BRANCH  27  29
ATOM     29  O   UNL     1       5.759   3.396  13.498  0.00  0.00    +0.000 OA
BRANCH  29  31
ATOM     30  C   UNL     1       4.472   3.246  11.498  0.00  0.00    +0.000 C 
ATOM     31  C   UNL     1       5.872   3.376  12.068  0.00  0.00    +0.000 C 
ENDBRANCH  29  31
ENDBRANCH  27  29
ENDBRANCH  26  27
ENDBRANCH  21  26
ENDBRANCH  20  23
ENDBRANCH  19  20
ENDBRANCH  18  19
ENDBRANCH   1  18
TORSDOF 10
ENDMDL
MODEL 6
REMARK VINA RESULT:      -7.2      1.321      1.708
REMARK  Name = 
REMARK  13 active torsions:
REMARK  status: ('A' for Active; 'I' for Inactive)
REMARK    1  A    between atoms: C_1  and  C_2
REMARK    2  A    between atoms: C_2  and  O_3
REMARK    3  A    between atoms: O_3  and  C_4
REMARK    4  A    between atoms: C_4  and  C_6
REMARK    5  A    between atoms: C_6  and  N_7
REMARK    6  A    between atoms: C_9  and  C_10
REMARK    7  A    between atoms: C_10  and  O_11
REMARK    8  A    between atoms: O_11  and  C_12
REMARK    9  A    between atoms: C_12  and  C_13
REMARK   10  A    between atoms: C_14  and  C_15
REMARK   11  A    between atoms: C_18  and  O_19
REMARK   12  A    between atoms: O_19  and  C_20
REMARK   13  A    between atoms: C_26  and  C_27
REMARK                            x       y       z     vdW  Elec       q    Type
REMARK                         _______ _______ _______ _____ _____    ______ ____
ROOT
ATOM      1  C   UNL     1       2.795   6.235  19.033  0.00  0.00    +0.000 A 
ATOM      2  C   UNL     1       1.947   6.684  20.051  0.00  0.00    +0.000 A 
ATOM      3  N   UNL     1       1.537   5.646  20.873  0.00  0.00    +0.000 NA
ATOM      4  C   UNL     1       2.088   4.606  20.323  0.00  0.00    +0.000 A 
ATOM      5  S   UNL     1       2.119   2.932  20.666  0.00  0.00    +0.000 S 
ATOM      6  C   UNL     1       3.169   2.780  19.241  0.00  0.00    +0.000 A 
ATOM      7  C   UNL     1       3.647   1.411  18.880  0.00  0.00    +0.000 C 
ATOM      8  N   UNL     1       3.482   3.865  18.584  0.00  0.00    +0.000 NA
ATOM      9  N   UNL     1       2.842   4.881  19.228  0.00  0.00    +0.000 N 
ENDROOT
BRANCH   2  10
ATOM     10  C   UNL     1       1.541   8.056  20.311  0.00  0.00    +0.000 A 
ATOM     11  C   UNL     1       1.294   8.513  21.611  0.00  0.00    +0.000 A 
ATOM     12  C   UNL     1       0.880   9.830  21.831  0.00  0.00    +0.000 A 
ATOM     13  C   UNL     1       0.748  10.723  20.768  0.00  0.00    +0.000 A 
ATOM     14  C   UNL     1       1.026  10.293  19.473  0.00  0.00    +0.000 A 
ATOM     15  C   UNL     1       1.425   8.965  19.250  0.00  0.00    +0.000 A 
BRANCH  13  16
ATOM     16  O   UNL     1       0.305  11.967  21.121  0.00  0.00    +0.000 OA
ATOM     17  C   UNL     1       0.006  12.853  20.050  0.00  0.00    +0.000 C 
ENDBRANCH  13  16
ENDBRANCH   2  10
BRANCH   1  18
ATOM     18  C   UNL     1       3.572   6.926  17.981  0.00  0.00    +0.000 C 
BRANCH  18  19
ATOM     19  O   UNL     1       4.006   5.921  17.065  0.00  0.00    +0.000 OA
BRANCH  19  20
ATOM     20  C   UNL     1       5.166   6.323  16.319  0.00  0.00    +0.000 C 
BRANCH  20  23
ATOM     21  N   UNL     1       6.278   4.121  13.676  0.00  0.00    +0.000 N 
ATOM     22  C   UNL     1       6.072   5.405  14.075  0.00  0.00    +0.000 A 
ATOM     23  C   UNL     1       5.654   5.281  15.381  0.00  0.00    +0.000 A 
ATOM     24  N   UNL     1       5.679   3.955  15.736  0.00  0.00    +0.000 NA
ATOM     25  N   UNL     1       6.077   3.254  14.683  0.00  0.00    +0.000 NA
BRANCH  21  26
ATOM     26  C   UNL     1       6.652   3.646  12.366  0.00  0.00    +0.000 C 
BRANCH  26  27
ATOM     27  C   UNL     1       5.559   2.794  11.787  0.00  0.00    +0.000 C 
ATOM     28  O   UNL     1       5.669   1.625  11.446  0.00  0.00    +0.000 OA
BRANCH  27  29
ATOM     29  O   UNL     1       4.409   3.525  11.700  0.00  0.00    +0.000 OA
BRANCH  29  31
ATOM     30  C   UNL     1       3.113   4.105   9.786  0.00  0.00    +0.000 C 
ATOM     31  C   UNL     1       3.433   3.008  10.784  0.00  0.00    +0.000 C 
ENDBRANCH  29  31
ENDBRANCH  27  29
ENDBRANCH  26  27
ENDBRANCH  21  26
ENDBRANCH  20  23
ENDBRANCH  19  20
ENDBRANCH  18  19
ENDBRANCH   1  18
TORSDOF 10
ENDMDL
MODEL 7
REMARK VINA RESULT:      -7.2      5.025     10.565
REMARK  Name = 
REMARK  13 active torsions:
REMARK  status: ('A' for Active; 'I' for Inactive)
REMARK    1  A    between atoms: C_1  and  C_2
REMARK    2  A    between atoms: C_2  and  O_3
REMARK    3  A    between atoms: O_3  and  C_4
REMARK    4  A    between atoms: C_4  and  C_6
REMARK    5  A    between atoms: C_6  and  N_7
REMARK    6  A    between atoms: C_9  and  C_10
REMARK    7  A    between atoms: C_10  and  O_11
REMARK    8  A    between atoms: O_11  and  C_12
REMARK    9  A    between atoms: C_12  and  C_13
REMARK   10  A    between atoms: C_14  and  C_15
REMARK   11  A    between atoms: C_18  and  O_19
REMARK   12  A    between atoms: O_19  and  C_20
REMARK   13  A    between atoms: C_26  and  C_27
REMARK                            x       y       z     vdW  Elec       q    Type
REMARK                         _______ _______ _______ _____ _____    ______ ____
ROOT
ATOM      1  C   UNL     1       0.782   9.482  19.480  0.00  0.00    +0.000 A 
ATOM      2  C   UNL     1       1.504   8.347  19.866  0.00  0.00    +0.000 A 
ATOM      3  N   UNL     1       1.351   8.077  21.217  0.00  0.00    +0.000 NA
ATOM      4  C   UNL     1       0.600   9.056  21.626  0.00  0.00    +0.000 A 
ATOM      5  S   UNL     1      -0.076   9.513  23.127  0.00  0.00    +0.000 S 
ATOM      6  C   UNL     1      -0.797  10.881  22.250  0.00  0.00    +0.000 A 
ATOM      7  C   UNL     1      -1.632  11.840  23.035  0.00  0.00    +0.000 C 
ATOM      8  N   UNL     1      -0.573  10.981  20.966  0.00  0.00    +0.000 NA
ATOM      9  N   UNL     1       0.231   9.926  20.652  0.00  0.00    +0.000 N 
ENDROOT
BRANCH   2  10
ATOM     10  C   UNL     1       2.296   7.480  19.009  0.00  0.00    +0.000 A 
ATOM     11  C   UNL     1       3.045   7.992  17.943  0.00  0.00    +0.000 A 
ATOM     12  C   UNL     1       3.778   7.135  17.117  0.00  0.00    +0.000 A 
ATOM     13  C   UNL     1       3.812   5.763  17.366  0.00  0.00    +0.000 A 
ATOM     14  C   UNL     1       3.102   5.244  18.445  0.00  0.00    +0.000 A 
ATOM     15  C   UNL     1       2.351   6.104  19.264  0.00  0.00    +0.000 A 
BRANCH  13  16
ATOM     16  O   UNL     1       4.540   5.038  16.464  0.00  0.00    +0.000 OA
ATOM     17  C   UNL     1       5.679   5.687  15.913  0.00  0.00    +0.000 C 
ENDBRANCH  13  16
ENDBRANCH   2  10
BRANCH   1  18
ATOM     18  C   UNL     1       0.526  10.126  18.173  0.00  0.00    +0.000 C 
BRANCH  18  19
ATOM     19  O   UNL     1      -0.794   9.748  17.781  0.00  0.00    +0.000 OA
BRANCH  19  20
ATOM     20  C   UNL     1      -1.534  10.844  17.221  0.00  0.00    +0.000 C 
BRANCH  20  23
ATOM     21  N   UNL     1      -4.952  11.092  18.373  0.00  0.00    +0.000 N 
ATOM     22  C   UNL     1      -4.064  10.431  17.584  0.00  0.00    +0.000 A 
ATOM     23  C   UNL     1      -2.861  11.044  17.856  0.00  0.00    +0.000 A 
ATOM     24  N   UNL     1      -3.052  11.995  18.827  0.00  0.00    +0.000 NA
ATOM     25  N   UNL     1      -4.339  12.006  19.146  0.00  0.00    +0.000 NA
BRANCH  21  26
ATOM     26  C   UNL     1      -6.383  10.919  18.441  0.00  0.00    +0.000 C 
BRANCH  26  27
ATOM     27  C   UNL     1      -6.930  11.573  19.677  0.00  0.00    +0.000 C 
ATOM     28  O   UNL     1      -7.394  12.703  19.742  0.00  0.00    +0.000 OA
BRANCH  27  29
ATOM     29  O   UNL     1      -6.835  10.709  20.731  0.00  0.00    +0.000 OA
BRANCH  29  31
ATOM     30  C   UNL     1      -7.383   8.417  20.378  0.00  0.00    +0.000 C 
ATOM     31  C   UNL     1      -7.910   9.765  20.836  0.00  0.00    +0.000 C 
ENDBRANCH  29  31
ENDBRANCH  27  29
ENDBRANCH  26  27
ENDBRANCH  21  26
ENDBRANCH  20  23
ENDBRANCH  19  20
ENDBRANCH  18  19
ENDBRANCH   1  18
TORSDOF 10
ENDMDL
MODEL 8
REMARK VINA RESULT:      -7.1      3.342      7.943
REMARK  Name = 
REMARK  13 active torsions:
REMARK  status: ('A' for Active; 'I' for Inactive)
REMARK    1  A    between atoms: C_1  and  C_2
REMARK    2  A    between atoms: C_2  and  O_3
REMARK    3  A    between atoms: O_3  and  C_4
REMARK    4  A    between atoms: C_4  and  C_6
REMARK    5  A    between atoms: C_6  and  N_7
REMARK    6  A    between atoms: C_9  and  C_10
REMARK    7  A    between atoms: C_10  and  O_11
REMARK    8  A    between atoms: O_11  and  C_12
REMARK    9  A    between atoms: C_12  and  C_13
REMARK   10  A    between atoms: C_14  and  C_15
REMARK   11  A    between atoms: C_18  and  O_19
REMARK   12  A    between atoms: O_19  and  C_20
REMARK   13  A    between atoms: C_26  and  C_27
REMARK                            x       y       z     vdW  Elec       q    Type
REMARK                         _______ _______ _______ _____ _____    ______ ____
ROOT
ATOM      1  C   UNL     1       5.684   5.043  16.737  0.00  0.00    +0.000 A 
ATOM      2  C   UNL     1       4.715   4.037  16.668  0.00  0.00    +0.000 A 
ATOM      3  N   UNL     1       4.771   3.351  15.466  0.00  0.00    +0.000 NA
ATOM      4  C   UNL     1       5.716   3.970  14.823  0.00  0.00    +0.000 A 
ATOM      5  S   UNL     1       6.445   3.797  13.287  0.00  0.00    +0.000 S 
ATOM      6  C   UNL     1       7.478   5.166  13.756  0.00  0.00    +0.000 A 
ATOM      7  C   UNL     1       8.491   5.636  12.764  0.00  0.00    +0.000 C 
ATOM      8  N   UNL     1       7.311   5.690  14.941  0.00  0.00    +0.000 NA
ATOM      9  N   UNL     1       6.295   4.985  15.513  0.00  0.00    +0.000 N 
ENDROOT
BRANCH   2  10
ATOM     10  C   UNL     1       3.765   3.664  17.705  0.00  0.00    +0.000 A 
ATOM     11  C   UNL     1       2.384   3.752  17.497  0.00  0.00    +0.000 A 
ATOM     12  C   UNL     1       1.492   3.412  18.518  0.00  0.00    +0.000 A 
ATOM     13  C   UNL     1       1.960   2.939  19.745  0.00  0.00    +0.000 A 
ATOM     14  C   UNL     1       3.330   2.811  19.952  0.00  0.00    +0.000 A 
ATOM     15  C   UNL     1       4.227   3.170  18.932  0.00  0.00    +0.000 A 
BRANCH  13  16
ATOM     16  O   UNL     1       0.982   2.675  20.663  0.00  0.00    +0.000 OA
ATOM     17  C   UNL     1       1.417   2.472  22.001  0.00  0.00    +0.000 C 
ENDBRANCH  13  16
ENDBRANCH   2  10
BRANCH   1  18
ATOM     18  C   UNL     1       6.109   5.973  17.807  0.00  0.00    +0.000 C 
BRANCH  18  19
ATOM     19  O   UNL     1       5.502   7.233  17.520  0.00  0.00    +0.000 OA
BRANCH  19  20
ATOM     20  C   UNL     1       4.153   7.097  17.046  0.00  0.00    +0.000 C 
BRANCH  20  23
ATOM     21  N   UNL     1       1.741   8.727  19.190  0.00  0.00    +0.000 N 
ATOM     22  C   UNL     1       2.413   8.755  18.008  0.00  0.00    +0.000 A 
ATOM     23  C   UNL     1       3.136   7.583  18.013  0.00  0.00    +0.000 A 
ATOM     24  N   UNL     1       2.834   6.873  19.148  0.00  0.00    +0.000 NA
ATOM     25  N   UNL     1       1.965   7.581  19.857  0.00  0.00    +0.000 NA
BRANCH  21  26
ATOM     26  C   UNL     1       0.884   9.743  19.750  0.00  0.00    +0.000 C 
BRANCH  26  27
ATOM     27  C   UNL     1       0.142  10.460  18.659  0.00  0.00    +0.000 C 
ATOM     28  O   UNL     1      -0.727   9.976  17.947  0.00  0.00    +0.000 OA
BRANCH  27  29
ATOM     29  O   UNL     1       0.583  11.750  18.579  0.00  0.00    +0.000 OA
BRANCH  29  31
ATOM     30  C   UNL     1      -1.286  12.819  19.599  0.00  0.00    +0.000 C 
ATOM     31  C   UNL     1       0.211  12.586  19.683  0.00  0.00    +0.000 C 
ENDBRANCH  29  31
ENDBRANCH  27  29
ENDBRANCH  26  27
ENDBRANCH  21  26
ENDBRANCH  20  23
ENDBRANCH  19  20
ENDBRANCH  18  19
ENDBRANCH   1  18
TORSDOF 10
ENDMDL
MODEL 9
REMARK VINA RESULT:      -7.0      5.184      8.657
REMARK  Name = 
REMARK  13 active torsions:
REMARK  status: ('A' for Active; 'I' for Inactive)
REMARK    1  A    between atoms: C_1  and  C_2
REMARK    2  A    between atoms: C_2  and  O_3
REMARK    3  A    between atoms: O_3  and  C_4
REMARK    4  A    between atoms: C_4  and  C_6
REMARK    5  A    between atoms: C_6  and  N_7
REMARK    6  A    between atoms: C_9  and  C_10
REMARK    7  A    between atoms: C_10  and  O_11
REMARK    8  A    between atoms: O_11  and  C_12
REMARK    9  A    between atoms: C_12  and  C_13
REMARK   10  A    between atoms: C_14  and  C_15
REMARK   11  A    between atoms: C_18  and  O_19
REMARK   12  A    between atoms: O_19  and  C_20
REMARK   13  A    between atoms: C_26  and  C_27
REMARK                            x       y       z     vdW  Elec       q    Type
REMARK                         _______ _______ _______ _____ _____    ______ ____
ROOT
ATOM      1  C   UNL     1       0.907  13.074  20.114  0.00  0.00    +0.000 A 
ATOM      2  C   UNL     1       0.549  13.451  21.412  0.00  0.00    +0.000 A 
ATOM      3  N   UNL     1       1.466  14.331  21.963  0.00  0.00    +0.000 NA
ATOM      4  C   UNL     1       2.368  14.430  21.032  0.00  0.00    +0.000 A 
ATOM      5  S   UNL     1       3.834  15.292  20.858  0.00  0.00    +0.000 S 
ATOM      6  C   UNL     1       3.939  14.550  19.246  0.00  0.00    +0.000 A 
ATOM      7  C   UNL     1       5.128  14.889  18.408  0.00  0.00    +0.000 C 
ATOM      8  N   UNL     1       2.974  13.755  18.866  0.00  0.00    +0.000 NA
ATOM      9  N   UNL     1       2.104  13.709  19.913  0.00  0.00    +0.000 N 
ENDROOT
BRANCH   2  10
ATOM     10  C   UNL     1      -0.645  13.053  22.141  0.00  0.00    +0.000 A 
ATOM     11  C   UNL     1      -1.668  13.965  22.424  0.00  0.00    +0.000 A 
ATOM     12  C   UNL     1      -2.794  13.563  23.148  0.00  0.00    +0.000 A 
ATOM     13  C   UNL     1      -2.939  12.239  23.564  0.00  0.00    +0.000 A 
ATOM     14  C   UNL     1      -1.947  11.312  23.257  0.00  0.00    +0.000 A 
ATOM     15  C   UNL     1      -0.807  11.720  22.544  0.00  0.00    +0.000 A 
BRANCH  13  16
ATOM     16  O   UNL     1      -4.070  11.991  24.290  0.00  0.00    +0.000 OA
ATOM     17  C   UNL     1      -5.182  12.838  24.027  0.00  0.00    +0.000 C 
ENDBRANCH  13  16
ENDBRANCH   2  10
BRANCH   1  18
ATOM     18  C   UNL     1       0.242  12.260  19.073  0.00  0.00    +0.000 C 
BRANCH  18  19
ATOM     19  O   UNL     1       0.559  10.897  19.354  0.00  0.00    +0.000 OA
BRANCH  19  20
ATOM     20  C   UNL     1       1.424  10.319  18.363  0.00  0.00    +0.000 C 
BRANCH  20  23
ATOM     21  N   UNL     1       2.505   6.884  18.684  0.00  0.00    +0.000 N 
ATOM     22  C   UNL     1       2.431   7.982  17.886  0.00  0.00    +0.000 A 
ATOM     23  C   UNL     1       1.865   8.941  18.697  0.00  0.00    +0.000 A 
ATOM     24  N   UNL     1       1.677   8.415  19.950  0.00  0.00    +0.000 NA
ATOM     25  N   UNL     1       2.086   7.154  19.934  0.00  0.00    +0.000 NA
BRANCH  21  26
ATOM     26  C   UNL     1       2.948   5.557  18.333  0.00  0.00    +0.000 C 
BRANCH  26  27
ATOM     27  C   UNL     1       3.923   5.044  19.354  0.00  0.00    +0.000 C 
ATOM     28  O   UNL     1       5.090   5.392  19.466  0.00  0.00    +0.000 OA
BRANCH  27  29
ATOM     29  O   UNL     1       3.306   4.123  20.152  0.00  0.00    +0.000 OA
BRANCH  29  31
ATOM     30  C   UNL     1       1.138   3.227  20.569  0.00  0.00    +0.000 C 
ATOM     31  C   UNL     1       2.229   3.410  19.530  0.00  0.00    +0.000 C 
ENDBRANCH  29  31
ENDBRANCH  27  29
ENDBRANCH  26  27
ENDBRANCH  21  26
ENDBRANCH  20  23
ENDBRANCH  19  20
ENDBRANCH  18  19
ENDBRANCH   1  18
TORSDOF 10
ENDMDL
