MODEL 1
REMARK VINA RESULT:      -5.1      0.000      0.000
REMARK  Name = 
REMARK  3 active torsions:
REMARK  status: ('A' for Active; 'I' for Inactive)
REMARK    1  A    between atoms: N_1  and  C_2
REMARK    2  A    between atoms: C_6  and  S_7
REMARK    3  A    between atoms: S_7  and  N_8
REMARK                            x       y       z     vdW  Elec       q    Type
REMARK                         _______ _______ _______ _____ _____    ______ ____
ROOT
ATOM      1  C   UNL     1       7.087   5.925  16.690  0.00  0.00    +0.000 A 
ATOM      2  N   UNL     1       7.249   5.487  15.401  0.00  0.00    +0.000 N 
ATOM      3  C   UNL     1       6.548   4.322  15.253  0.00  0.00    +0.000 A 
ATOM      4  N   UNL     1       5.943   3.972  16.365  0.00  0.00    +0.000 NA
ATOM      5  C   UNL     1       6.273   4.973  17.275  0.00  0.00    +0.000 A 
ATOM      6  H   UNL     1       7.791   5.948  14.685  0.00  0.00    +0.000 HD
ENDROOT
BRANCH   1   7
ATOM      7  N   UNL     1       7.676   7.062  17.103  0.00  0.00    +0.000 N 
ATOM      8  H   UNL     1       7.273   7.722  17.763  0.00  0.00    +0.000 HD
ATOM      9  H   UNL     1       8.580   7.359  16.731  0.00  0.00    +0.000 HD
ENDBRANCH   1   7
BRANCH   5  10
ATOM     10  S   UNL     1       5.697   4.943  18.915  0.00  0.00    +0.000 S 
ATOM     11  O   UNL     1       6.834   5.325  19.720  0.00  0.00    +0.000 OA
ATOM     12  O   UNL     1       4.453   5.677  18.890  0.00  0.00    +0.000 OA
BRANCH  10  13
ATOM     13  N   UNL     1       5.332   3.331  19.273  0.00  0.00    +0.000 NA
ATOM     14  H   UNL     1       6.010   2.727  18.806  0.00  0.00    +0.000 HD
ATOM     15  H   UNL     1       4.381   3.130  18.961  0.00  0.00    +0.000 HD
ENDBRANCH  10  13
ENDBRANCH   5  10
TORSDOF 3
ENDMDL
MODEL 2
REMARK VINA RESULT:      -5.1      2.685      3.701
REMARK  Name = 
REMARK  3 active torsions:
REMARK  status: ('A' for Active; 'I' for Inactive)
REMARK    1  A    between atoms: N_1  and  C_2
REMARK    2  A    between atoms: C_6  and  S_7
REMARK    3  A    between atoms: S_7  and  N_8
REMARK                            x       y       z     vdW  Elec       q    Type
REMARK                         _______ _______ _______ _____ _____    ______ ____
ROOT
ATOM      1  C   UNL     1       6.382   4.282  17.784  0.00  0.00    +0.000 A 
ATOM      2  N   UNL     1       5.612   3.766  18.794  0.00  0.00    +0.000 N 
ATOM      3  C   UNL     1       4.308   3.763  18.380  0.00  0.00    +0.000 A 
ATOM      4  N   UNL     1       4.180   4.248  17.166  0.00  0.00    +0.000 NA
ATOM      5  C   UNL     1       5.477   4.576  16.780  0.00  0.00    +0.000 A 
ATOM      6  H   UNL     1       5.950   3.442  19.687  0.00  0.00    +0.000 HD
ENDROOT
BRANCH   1   7
ATOM      7  N   UNL     1       7.714   4.395  17.933  0.00  0.00    +0.000 N 
ATOM      8  H   UNL     1       8.192   5.210  18.307  0.00  0.00    +0.000 HD
ATOM      9  H   UNL     1       8.348   3.655  17.628  0.00  0.00    +0.000 HD
ENDBRANCH   1   7
BRANCH   5  10
ATOM     10  S   UNL     1       5.820   5.268  15.222  0.00  0.00    +0.000 S 
ATOM     11  O   UNL     1       5.360   4.288  14.266  0.00  0.00    +0.000 OA
ATOM     12  O   UNL     1       5.311   6.618  15.290  0.00  0.00    +0.000 OA
BRANCH  10  13
ATOM     13  N   UNL     1       7.504   5.362  15.093  0.00  0.00    +0.000 NA
ATOM     14  H   UNL     1       7.879   4.422  14.964  0.00  0.00    +0.000 HD
ATOM     15  H   UNL     1       7.876   5.797  15.938  0.00  0.00    +0.000 HD
ENDBRANCH  10  13
ENDBRANCH   5  10
TORSDOF 3
ENDMDL
MODEL 3
REMARK VINA RESULT:      -5.1      4.825      5.205
REMARK  Name = 
REMARK  3 active torsions:
REMARK  status: ('A' for Active; 'I' for Inactive)
REMARK    1  A    between atoms: N_1  and  C_2
REMARK    2  A    between atoms: C_6  and  S_7
REMARK    3  A    between atoms: S_7  and  N_8
REMARK                            x       y       z     vdW  Elec       q    Type
REMARK                         _______ _______ _______ _____ _____    ______ ____
ROOT
ATOM      1  C   UNL     1       3.992   2.157  19.424  0.00  0.00    +0.000 A 
ATOM      2  N   UNL     1       4.050   1.757  18.114  0.00  0.00    +0.000 N 
ATOM      3  C   UNL     1       2.875   2.106  17.507  0.00  0.00    +0.000 A 
ATOM      4  N   UNL     1       2.054   2.704  18.340  0.00  0.00    +0.000 NA
ATOM      5  C   UNL     1       2.745   2.743  19.548  0.00  0.00    +0.000 A 
ATOM      6  H   UNL     1       4.828   1.289  17.674  0.00  0.00    +0.000 HD
ENDROOT
BRANCH   1   7
ATOM      7  N   UNL     1       5.029   1.935  20.251  0.00  0.00    +0.000 N 
ATOM      8  H   UNL     1       5.662   2.650  20.598  0.00  0.00    +0.000 HD
ATOM      9  H   UNL     1       5.273   0.992  20.558  0.00  0.00    +0.000 HD
ENDBRANCH   1   7
BRANCH   5  10
ATOM     10  S   UNL     1       2.051   3.451  20.976  0.00  0.00    +0.000 S 
ATOM     11  O   UNL     1       0.630   3.503  20.717  0.00  0.00    +0.000 OA
ATOM     12  O   UNL     1       2.636   2.724  22.078  0.00  0.00    +0.000 OA
BRANCH  10  13
ATOM     13  N   UNL     1       2.618   5.043  21.055  0.00  0.00    +0.000 NA
ATOM     14  H   UNL     1       2.083   5.550  21.761  0.00  0.00    +0.000 HD
ATOM     15  H   UNL     1       2.519   5.474  20.135  0.00  0.00    +0.000 HD
ENDBRANCH  10  13
ENDBRANCH   5  10
TORSDOF 3
ENDMDL
MODEL 4
REMARK VINA RESULT:      -5.1      2.688      3.716
REMARK  Name = 
REMARK  3 active torsions:
REMARK  status: ('A' for Active; 'I' for Inactive)
REMARK    1  A    between atoms: N_1  and  C_2
REMARK    2  A    between atoms: C_6  and  S_7
REMARK    3  A    between atoms: S_7  and  N_8
REMARK                            x       y       z     vdW  Elec       q    Type
REMARK                         _______ _______ _______ _____ _____    ______ ____
ROOT
ATOM      1  C   UNL     1       4.963   4.402  18.388  0.00  0.00    +0.000 A 
ATOM      2  N   UNL     1       3.799   5.046  18.719  0.00  0.00    +0.000 N 
ATOM      3  C   UNL     1       3.652   6.121  17.885  0.00  0.00    +0.000 A 
ATOM      4  N   UNL     1       4.649   6.218  17.035  0.00  0.00    +0.000 NA
ATOM      5  C   UNL     1       5.478   5.143  17.340  0.00  0.00    +0.000 A 
ATOM      6  H   UNL     1       3.161   4.773  19.450  0.00  0.00    +0.000 HD
ENDROOT
BRANCH   1   7
ATOM      7  N   UNL     1       5.347   3.301  19.059  0.00  0.00    +0.000 N 
ATOM      8  H   UNL     1       6.171   3.236  19.651  0.00  0.00    +0.000 HD
ATOM      9  H   UNL     1       4.834   2.422  18.976  0.00  0.00    +0.000 HD
ENDBRANCH   1   7
BRANCH   5  10
ATOM     10  S   UNL     1       6.954   4.850  16.469  0.00  0.00    +0.000 S 
ATOM     11  O   UNL     1       6.615   3.854  15.479  0.00  0.00    +0.000 OA
ATOM     12  O   UNL     1       7.463   6.161  16.141  0.00  0.00    +0.000 OA
BRANCH  10  13
ATOM     13  N   UNL     1       8.032   4.141  17.563  0.00  0.00    +0.000 NA
ATOM     14  H   UNL     1       8.640   3.497  17.057  0.00  0.00    +0.000 HD
ATOM     15  H   UNL     1       7.498   3.656  18.285  0.00  0.00    +0.000 HD
ENDBRANCH  10  13
ENDBRANCH   5  10
TORSDOF 3
ENDMDL
MODEL 5
REMARK VINA RESULT:      -5.0      2.409      3.499
REMARK  Name = 
REMARK  3 active torsions:
REMARK  status: ('A' for Active; 'I' for Inactive)
REMARK    1  A    between atoms: N_1  and  C_2
REMARK    2  A    between atoms: C_6  and  S_7
REMARK    3  A    between atoms: S_7  and  N_8
REMARK                            x       y       z     vdW  Elec       q    Type
REMARK                         _______ _______ _______ _____ _____    ______ ____
ROOT
ATOM      1  C   UNL     1       4.902   4.144  18.813  0.00  0.00    +0.000 A 
ATOM      2  N   UNL     1       3.618   4.442  18.440  0.00  0.00    +0.000 N 
ATOM      3  C   UNL     1       3.620   5.670  17.838  0.00  0.00    +0.000 A 
ATOM      4  N   UNL     1       4.824   6.193  17.799  0.00  0.00    +0.000 NA
ATOM      5  C   UNL     1       5.639   5.242  18.408  0.00  0.00    +0.000 A 
ATOM      6  H   UNL     1       2.811   3.854  18.583  0.00  0.00    +0.000 HD
ENDROOT
BRANCH   1   7
ATOM      7  N   UNL     1       5.181   2.981  19.430  0.00  0.00    +0.000 N 
ATOM      8  H   UNL     1       5.340   2.874  20.428  0.00  0.00    +0.000 HD
ATOM      9  H   UNL     1       5.293   2.114  18.904  0.00  0.00    +0.000 HD
ENDBRANCH   1   7
BRANCH   5  10
ATOM     10  S   UNL     1       7.350   5.490  18.597  0.00  0.00    +0.000 S 
ATOM     11  O   UNL     1       7.638   6.697  17.856  0.00  0.00    +0.000 OA
ATOM     12  O   UNL     1       7.597   5.343  20.012  0.00  0.00    +0.000 OA
BRANCH  10  13
ATOM     13  N   UNL     1       8.118   4.206  17.807  0.00  0.00    +0.000 NA
ATOM     14  H   UNL     1       8.902   3.889  18.378  0.00  0.00    +0.000 HD
ATOM     15  H   UNL     1       8.432   4.524  16.889  0.00  0.00    +0.000 HD
ENDBRANCH  10  13
ENDBRANCH   5  10
TORSDOF 3
ENDMDL
MODEL 6
REMARK VINA RESULT:      -5.0      4.029      4.825
REMARK  Name = 
REMARK  3 active torsions:
REMARK  status: ('A' for Active; 'I' for Inactive)
REMARK    1  A    between atoms: N_1  and  C_2
REMARK    2  A    between atoms: C_6  and  S_7
REMARK    3  A    between atoms: S_7  and  N_8
REMARK                            x       y       z     vdW  Elec       q    Type
REMARK                         _______ _______ _______ _____ _____    ______ ____
ROOT
ATOM      1  C   UNL     1       4.110   2.677  18.823  0.00  0.00    +0.000 A 
ATOM      2  N   UNL     1       5.299   3.325  19.037  0.00  0.00    +0.000 N 
ATOM      3  C   UNL     1       5.034   4.653  19.232  0.00  0.00    +0.000 A 
ATOM      4  N   UNL     1       3.749   4.911  19.155  0.00  0.00    +0.000 NA
ATOM      5  C   UNL     1       3.157   3.677  18.901  0.00  0.00    +0.000 A 
ATOM      6  H   UNL     1       6.211   2.895  19.050  0.00  0.00    +0.000 HD
ENDROOT
BRANCH   1   7
ATOM      7  N   UNL     1       4.087   1.350  18.605  0.00  0.00    +0.000 N 
ATOM      8  H   UNL     1       4.540   0.654  19.191  0.00  0.00    +0.000 HD
ATOM      9  H   UNL     1       3.627   0.954  17.784  0.00  0.00    +0.000 HD
ENDBRANCH   1   7
BRANCH   5  10
ATOM     10  S   UNL     1       1.437   3.509  18.711  0.00  0.00    +0.000 S 
ATOM     11  O   UNL     1       0.873   4.014  19.941  0.00  0.00    +0.000 OA
ATOM     12  O   UNL     1       1.146   4.066  17.410  0.00  0.00    +0.000 OA
BRANCH  10  13
ATOM     13  N   UNL     1       1.115   1.850  18.641  0.00  0.00    +0.000 NA
ATOM     14  H   UNL     1       1.974   1.357  18.394  0.00  0.00    +0.000 HD
ATOM     15  H   UNL     1       0.382   1.685  17.951  0.00  0.00    +0.000 HD
ENDBRANCH  10  13
ENDBRANCH   5  10
TORSDOF 3
ENDMDL
MODEL 7
REMARK VINA RESULT:      -5.0      3.677      4.650
REMARK  Name = 
REMARK  3 active torsions:
REMARK  status: ('A' for Active; 'I' for Inactive)
REMARK    1  A    between atoms: N_1  and  C_2
REMARK    2  A    between atoms: C_6  and  S_7
REMARK    3  A    between atoms: S_7  and  N_8
REMARK                            x       y       z     vdW  Elec       q    Type
REMARK                         _______ _______ _______ _____ _____    ______ ____
ROOT
ATOM      1  C   UNL     1       4.589   2.962  19.604  0.00  0.00    +0.000 A 
ATOM      2  N   UNL     1       5.436   3.683  18.804  0.00  0.00    +0.000 N 
ATOM      3  C   UNL     1       4.796   4.831  18.426  0.00  0.00    +0.000 A 
ATOM      4  N   UNL     1       3.584   4.901  18.927  0.00  0.00    +0.000 NA
ATOM      5  C   UNL     1       3.443   3.733  19.671  0.00  0.00    +0.000 A 
ATOM      6  H   UNL     1       6.373   3.413  18.542  0.00  0.00    +0.000 HD
ENDROOT
BRANCH   1   7
ATOM      7  N   UNL     1       4.977   1.781  20.118  0.00  0.00    +0.000 N 
ATOM      8  H   UNL     1       4.891   1.513  21.095  0.00  0.00    +0.000 HD
ATOM      9  H   UNL     1       5.434   1.074  19.541  0.00  0.00    +0.000 HD
ENDBRANCH   1   7
BRANCH   5  10
ATOM     10  S   UNL     1       1.977   3.369  20.533  0.00  0.00    +0.000 S 
ATOM     11  O   UNL     1       1.352   4.650  20.767  0.00  0.00    +0.000 OA
ATOM     12  O   UNL     1       1.356   2.302  19.784  0.00  0.00    +0.000 OA
BRANCH  10  13
ATOM     13  N   UNL     1       2.440   2.740  22.033  0.00  0.00    +0.000 NA
ATOM     14  H   UNL     1       2.795   1.792  21.899  0.00  0.00    +0.000 HD
ATOM     15  H   UNL     1       1.633   2.749  22.658  0.00  0.00    +0.000 HD
ENDBRANCH  10  13
ENDBRANCH   5  10
TORSDOF 3
ENDMDL
MODEL 8
REMARK VINA RESULT:      -5.0      4.098      5.042
REMARK  Name = 
REMARK  3 active torsions:
REMARK  status: ('A' for Active; 'I' for Inactive)
REMARK    1  A    between atoms: N_1  and  C_2
REMARK    2  A    between atoms: C_6  and  S_7
REMARK    3  A    between atoms: S_7  and  N_8
REMARK                            x       y       z     vdW  Elec       q    Type
REMARK                         _______ _______ _______ _____ _____    ______ ____
ROOT
ATOM      1  C   UNL     1       4.550   2.818  19.662  0.00  0.00    +0.000 A 
ATOM      2  N   UNL     1       5.421   3.777  19.215  0.00  0.00    +0.000 N 
ATOM      3  C   UNL     1       4.788   4.989  19.264  0.00  0.00    +0.000 A 
ATOM      4  N   UNL     1       3.558   4.879  19.712  0.00  0.00    +0.000 NA
ATOM      5  C   UNL     1       3.397   3.520  19.966  0.00  0.00    +0.000 A 
ATOM      6  H   UNL     1       6.368   3.616  18.906  0.00  0.00    +0.000 HD
ENDROOT
BRANCH   1   7
ATOM      7  N   UNL     1       4.926   1.528  19.717  0.00  0.00    +0.000 N 
ATOM      8  H   UNL     1       4.382   0.780  20.139  0.00  0.00    +0.000 HD
ATOM      9  H   UNL     1       5.832   1.222  19.361  0.00  0.00    +0.000 HD
ENDBRANCH   1   7
BRANCH   5  10
ATOM     10  S   UNL     1       1.904   2.875  20.580  0.00  0.00    +0.000 S 
ATOM     11  O   UNL     1       1.571   1.786  19.692  0.00  0.00    +0.000 OA
ATOM     12  O   UNL     1       2.119   2.712  21.999  0.00  0.00    +0.000 OA
BRANCH  10  13
ATOM     13  N   UNL     1       0.734   4.081  20.376  0.00  0.00    +0.000 NA
ATOM     14  H   UNL     1       0.638   4.599  21.249  0.00  0.00    +0.000 HD
ATOM     15  H   UNL     1      -0.147   3.643  20.105  0.00  0.00    +0.000 HD
ENDBRANCH  10  13
ENDBRANCH   5  10
TORSDOF 3
ENDMDL
MODEL 9
REMARK VINA RESULT:      -5.0      3.635      4.586
REMARK  Name = 
REMARK  3 active torsions:
REMARK  status: ('A' for Active; 'I' for Inactive)
REMARK    1  A    between atoms: N_1  and  C_2
REMARK    2  A    between atoms: C_6  and  S_7
REMARK    3  A    between atoms: S_7  and  N_8
REMARK                            x       y       z     vdW  Elec       q    Type
REMARK                         _______ _______ _______ _____ _____    ______ ____
ROOT
ATOM      1  C   UNL     1       4.560   2.829  19.674  0.00  0.00    +0.000 A 
ATOM      2  N   UNL     1       5.214   3.259  18.549  0.00  0.00    +0.000 N 
ATOM      3  C   UNL     1       4.507   4.301  18.014  0.00  0.00    +0.000 A 
ATOM      4  N   UNL     1       3.433   4.574  18.718  0.00  0.00    +0.000 NA
ATOM      5  C   UNL     1       3.456   3.656  19.765  0.00  0.00    +0.000 A 
ATOM      6  H   UNL     1       6.071   2.874  18.181  0.00  0.00    +0.000 HD
ENDROOT
BRANCH   1   7
ATOM      7  N   UNL     1       5.049   1.806  20.398  0.00  0.00    +0.000 N 
ATOM      8  H   UNL     1       4.822   0.826  20.252  0.00  0.00    +0.000 HD
ATOM      9  H   UNL     1       5.670   1.966  21.193  0.00  0.00    +0.000 HD
ENDBRANCH   1   7
BRANCH   5  10
ATOM     10  S   UNL     1       2.211   3.623  20.979  0.00  0.00    +0.000 S 
ATOM     11  O   UNL     1       2.683   2.689  21.975  0.00  0.00    +0.000 OA
ATOM     12  O   UNL     1       1.921   5.010  21.258  0.00  0.00    +0.000 OA
BRANCH  10  13
ATOM     13  N   UNL     1       0.840   2.950  20.251  0.00  0.00    +0.000 NA
ATOM     14  H   UNL     1       1.138   2.260  19.561  0.00  0.00    +0.000 HD
ATOM     15  H   UNL     1       0.297   3.697  19.817  0.00  0.00    +0.000 HD
ENDBRANCH  10  13
ENDBRANCH   5  10
TORSDOF 3
ENDMDL
