MODEL 1
REMARK VINA RESULT:      -6.8      0.000      0.000
REMARK  Name = 
REMARK  12 active torsions:
REMARK  status: ('A' for Active; 'I' for Inactive)
REMARK    1  A    between atoms: C_1  and  O_2
REMARK    2  A    between atoms: O_2  and  C_3
REMARK    3  A    between atoms: C_3  and  C_5
REMARK    4  A    between atoms: C_6  and  C_7
REMARK    5  A    between atoms: C_9  and  O_10
REMARK    6  A    between atoms: O_10  and  C_11
REMARK    7  A    between atoms: C_15  and  C_16
REMARK    8  A    between atoms: C_16  and  O_17
REMARK    9  A    between atoms: C_18  and  C_19
REMARK   10  A    between atoms: C_22  and  O_23
REMARK   11  A    between atoms: C_24  and  O_25
REMARK   12  A    between atoms: O_25  and  C_26
REMARK                            x       y       z     vdW  Elec       q    Type
REMARK                         _______ _______ _______ _____ _____    ______ ____
ROOT
ATOM      1  C   UNL     1       2.458   6.908  19.575  0.00  0.00    +0.000 A 
ATOM      2  C   UNL     1       2.524   7.763  18.459  0.00  0.00    +0.000 A 
ATOM      3  C   UNL     1       1.840   8.983  18.453  0.00  0.00    +0.000 A 
ATOM      4  C   UNL     1       1.045   9.285  19.550  0.00  0.00    +0.000 A 
ATOM      5  C   UNL     1       0.946   8.434  20.640  0.00  0.00    +0.000 A 
ATOM      6  C   UNL     1       1.654   7.241  20.670  0.00  0.00    +0.000 A 
ATOM      7  C   UNL     1       0.072   9.041  21.688  0.00  0.00    +0.000 C 
ATOM      8  C   UNL     1      -0.524  10.214  20.852  0.00  0.00    +0.000 C 
ATOM      9  O   UNL     1       0.334  10.450  19.701  0.00  0.00    +0.000 OA
ENDROOT
BRANCH   8  10
ATOM     10  C   UNL     1      -0.766  11.520  21.588  0.00  0.00    +0.000 A 
ATOM     11  C   UNL     1       0.102  12.609  21.432  0.00  0.00    +0.000 A 
ATOM     12  C   UNL     1      -0.072  13.773  22.182  0.00  0.00    +0.000 A 
ATOM     13  C   UNL     1      -1.133  13.880  23.083  0.00  0.00    +0.000 A 
ATOM     14  C   UNL     1      -2.058  12.838  23.210  0.00  0.00    +0.000 A 
ATOM     15  C   UNL     1      -1.855  11.661  22.466  0.00  0.00    +0.000 A 
BRANCH  13  16
ATOM     16  O   UNL     1      -1.227  15.020  23.832  0.00  0.00    +0.000 OA
ATOM     17  H   UNL     1      -2.158  15.175  24.059  0.00  0.00    +0.000 HD
ENDBRANCH  13  16
BRANCH  14  18
ATOM     18  O   UNL     1      -3.181  12.793  23.994  0.00  0.00    +0.000 OA
ATOM     19  C   UNL     1      -4.431  13.102  23.391  0.00  0.00    +0.000 C 
ENDBRANCH  14  18
ENDBRANCH   8  10
BRANCH   1  21
ATOM     20  C   UNL     1       2.882   4.461  19.231  0.00  0.00    +0.000 C 
ATOM     21  C   UNL     1       3.270   5.688  19.606  0.00  0.00    +0.000 C 
BRANCH  20  22
ATOM     22  C   UNL     1       1.536   4.127  18.709  0.00  0.00    +0.000 C 
ATOM     23  O   UNL     1       1.198   4.116  17.543  0.00  0.00    +0.000 OA
BRANCH  22  25
ATOM     24  C   UNL     1       1.295   2.842  20.630  0.00  0.00    +0.000 C 
ATOM     25  O   UNL     1       0.738   3.840  19.772  0.00  0.00    +0.000 OA
ENDBRANCH  22  25
ENDBRANCH  20  22
ENDBRANCH   1  21
BRANCH   3  26
ATOM     26  O   UNL     1       1.881   9.891  17.433  0.00  0.00    +0.000 OA
ATOM     27  C   UNL     1       2.459  11.147  17.772  0.00  0.00    +0.000 C 
ENDBRANCH   3  26
BRANCH   7  28
ATOM     28  C   UNL     1       0.861   9.433  22.944  0.00  0.00    +0.000 C 
BRANCH  28  29
ATOM     29  O   UNL     1       0.059   9.355  24.126  0.00  0.00    +0.000 OA
ATOM     30  H   UNL     1      -0.308   8.457  24.182  0.00  0.00    +0.000 HD
ENDBRANCH  28  29
ENDBRANCH   7  28
TORSDOF 9
ENDMDL
MODEL 2
REMARK VINA RESULT:      -6.6      2.611      4.773
REMARK  Name = 
REMARK  12 active torsions:
REMARK  status: ('A' for Active; 'I' for Inactive)
REMARK    1  A    between atoms: C_1  and  O_2
REMARK    2  A    between atoms: O_2  and  C_3
REMARK    3  A    between atoms: C_3  and  C_5
REMARK    4  A    between atoms: C_6  and  C_7
REMARK    5  A    between atoms: C_9  and  O_10
REMARK    6  A    between atoms: O_10  and  C_11
REMARK    7  A    between atoms: C_15  and  C_16
REMARK    8  A    between atoms: C_16  and  O_17
REMARK    9  A    between atoms: C_18  and  C_19
REMARK   10  A    between atoms: C_22  and  O_23
REMARK   11  A    between atoms: C_24  and  O_25
REMARK   12  A    between atoms: O_25  and  C_26
REMARK                            x       y       z     vdW  Elec       q    Type
REMARK                         _______ _______ _______ _____ _____    ______ ____
ROOT
ATOM      1  C   UNL     1       3.577   5.000  17.869  0.00  0.00    +0.000 A 
ATOM      2  C   UNL     1       2.871   4.347  18.897  0.00  0.00    +0.000 A 
ATOM      3  C   UNL     1       2.084   5.074  19.796  0.00  0.00    +0.000 A 
ATOM      4  C   UNL     1       2.081   6.458  19.682  0.00  0.00    +0.000 A 
ATOM      5  C   UNL     1       2.799   7.113  18.694  0.00  0.00    +0.000 A 
ATOM      6  C   UNL     1       3.550   6.395  17.773  0.00  0.00    +0.000 A 
ATOM      7  C   UNL     1       2.562   8.585  18.777  0.00  0.00    +0.000 C 
ATOM      8  C   UNL     1       1.843   8.634  20.159  0.00  0.00    +0.000 C 
ATOM      9  O   UNL     1       1.342   7.304  20.472  0.00  0.00    +0.000 OA
ENDROOT
BRANCH   8  10
ATOM     10  C   UNL     1       0.726   9.651  20.311  0.00  0.00    +0.000 A 
ATOM     11  C   UNL     1      -0.482   9.507  19.614  0.00  0.00    +0.000 A 
ATOM     12  C   UNL     1      -1.467  10.493  19.684  0.00  0.00    +0.000 A 
ATOM     13  C   UNL     1      -1.274  11.629  20.473  0.00  0.00    +0.000 A 
ATOM     14  C   UNL     1      -0.110  11.769  21.235  0.00  0.00    +0.000 A 
ATOM     15  C   UNL     1       0.885  10.779  21.134  0.00  0.00    +0.000 A 
BRANCH  13  16
ATOM     16  O   UNL     1      -2.248  12.589  20.463  0.00  0.00    +0.000 OA
ATOM     17  H   UNL     1      -2.836  12.437  19.707  0.00  0.00    +0.000 HD
ENDBRANCH  13  16
BRANCH  14  18
ATOM     18  O   UNL     1       0.220  12.778  22.101  0.00  0.00    +0.000 OA
ATOM     19  C   UNL     1       0.773  13.971  21.560  0.00  0.00    +0.000 C 
ENDBRANCH  14  18
ENDBRANCH   8  10
BRANCH   1  21
ATOM     20  C   UNL     1       5.637   4.090  16.766  0.00  0.00    +0.000 C 
ATOM     21  C   UNL     1       4.305   4.211  16.871  0.00  0.00    +0.000 C 
BRANCH  20  22
ATOM     22  C   UNL     1       6.615   4.748  17.663  0.00  0.00    +0.000 C 
ATOM     23  O   UNL     1       6.765   4.532  18.848  0.00  0.00    +0.000 OA
BRANCH  22  25
ATOM     24  C   UNL     1       7.397   6.933  17.545  0.00  0.00    +0.000 C 
ATOM     25  O   UNL     1       7.315   5.649  16.923  0.00  0.00    +0.000 OA
ENDBRANCH  22  25
ENDBRANCH  20  22
ENDBRANCH   1  21
BRANCH   3  26
ATOM     26  O   UNL     1       1.334   4.521  20.795  0.00  0.00    +0.000 OA
ATOM     27  C   UNL     1       1.214   3.104  20.739  0.00  0.00    +0.000 C 
ENDBRANCH   3  26
BRANCH   7  28
ATOM     28  C   UNL     1       1.764   9.111  17.577  0.00  0.00    +0.000 C 
BRANCH  28  29
ATOM     29  O   UNL     1       2.085  10.474  17.278  0.00  0.00    +0.000 OA
ATOM     30  H   UNL     1       3.036  10.600  17.432  0.00  0.00    +0.000 HD
ENDBRANCH  28  29
ENDBRANCH   7  28
TORSDOF 9
ENDMDL
MODEL 3
REMARK VINA RESULT:      -6.6      2.553      4.829
REMARK  Name = 
REMARK  12 active torsions:
REMARK  status: ('A' for Active; 'I' for Inactive)
REMARK    1  A    between atoms: C_1  and  O_2
REMARK    2  A    between atoms: O_2  and  C_3
REMARK    3  A    between atoms: C_3  and  C_5
REMARK    4  A    between atoms: C_6  and  C_7
REMARK    5  A    between atoms: C_9  and  O_10
REMARK    6  A    between atoms: O_10  and  C_11
REMARK    7  A    between atoms: C_15  and  C_16
REMARK    8  A    between atoms: C_16  and  O_17
REMARK    9  A    between atoms: C_18  and  C_19
REMARK   10  A    between atoms: C_22  and  O_23
REMARK   11  A    between atoms: C_24  and  O_25
REMARK   12  A    between atoms: O_25  and  C_26
REMARK                            x       y       z     vdW  Elec       q    Type
REMARK                         _______ _______ _______ _____ _____    ______ ____
ROOT
ATOM      1  C   UNL     1       3.156   4.725  17.899  0.00  0.00    +0.000 A 
ATOM      2  C   UNL     1       2.555   4.048  18.977  0.00  0.00    +0.000 A 
ATOM      3  C   UNL     1       1.911   4.758  19.996  0.00  0.00    +0.000 A 
ATOM      4  C   UNL     1       1.946   6.145  19.942  0.00  0.00    +0.000 A 
ATOM      5  C   UNL     1       2.564   6.821  18.903  0.00  0.00    +0.000 A 
ATOM      6  C   UNL     1       3.171   6.124  17.867  0.00  0.00    +0.000 A 
ATOM      7  C   UNL     1       2.395   8.295  19.077  0.00  0.00    +0.000 C 
ATOM      8  C   UNL     1       1.851   8.302  20.537  0.00  0.00    +0.000 C 
ATOM      9  O   UNL     1       1.341   6.976  20.852  0.00  0.00    +0.000 OA
ENDROOT
BRANCH   8  10
ATOM     10  C   UNL     1       0.799   9.347  20.868  0.00  0.00    +0.000 A 
ATOM     11  C   UNL     1       0.550   9.728  22.193  0.00  0.00    +0.000 A 
ATOM     12  C   UNL     1      -0.481  10.617  22.497  0.00  0.00    +0.000 A 
ATOM     13  C   UNL     1      -1.266  11.163  21.479  0.00  0.00    +0.000 A 
ATOM     14  C   UNL     1      -0.997  10.858  20.141  0.00  0.00    +0.000 A 
ATOM     15  C   UNL     1       0.029   9.939  19.851  0.00  0.00    +0.000 A 
BRANCH  13  16
ATOM     16  O   UNL     1      -2.297  11.987  21.836  0.00  0.00    +0.000 OA
ATOM     17  H   UNL     1      -3.047  11.447  22.134  0.00  0.00    +0.000 HD
ENDBRANCH  13  16
BRANCH  14  18
ATOM     18  O   UNL     1      -1.620  11.341  19.020  0.00  0.00    +0.000 OA
ATOM     19  C   UNL     1      -2.106  10.404  18.067  0.00  0.00    +0.000 C 
ENDBRANCH  14  18
ENDBRANCH   8  10
BRANCH   1  21
ATOM     20  C   UNL     1       5.030   3.834  16.492  0.00  0.00    +0.000 C 
ATOM     21  C   UNL     1       3.728   3.961  16.787  0.00  0.00    +0.000 C 
BRANCH  20  22
ATOM     22  C   UNL     1       6.132   4.459  17.260  0.00  0.00    +0.000 C 
ATOM     23  O   UNL     1       6.395   4.265  18.429  0.00  0.00    +0.000 OA
BRANCH  22  25
ATOM     24  C   UNL     1       6.976   4.752  15.115  0.00  0.00    +0.000 C 
ATOM     25  O   UNL     1       6.797   5.299  16.423  0.00  0.00    +0.000 OA
ENDBRANCH  22  25
ENDBRANCH  20  22
ENDBRANCH   1  21
BRANCH   3  26
ATOM     26  O   UNL     1       1.266   4.182  21.055  0.00  0.00    +0.000 OA
ATOM     27  C   UNL     1       1.897   3.020  21.580  0.00  0.00    +0.000 C 
ENDBRANCH   3  26
BRANCH   7  28
ATOM     28  C   UNL     1       1.479   8.903  18.007  0.00  0.00    +0.000 C 
BRANCH  28  29
ATOM     29  O   UNL     1       2.105   9.994  17.324  0.00  0.00    +0.000 OA
ATOM     30  H   UNL     1       2.614  10.504  17.976  0.00  0.00    +0.000 HD
ENDBRANCH  28  29
ENDBRANCH   7  28
TORSDOF 9
ENDMDL
MODEL 4
REMARK VINA RESULT:      -6.5      3.007      3.994
REMARK  Name = 
REMARK  12 active torsions:
REMARK  status: ('A' for Active; 'I' for Inactive)
REMARK    1  A    between atoms: C_1  and  O_2
REMARK    2  A    between atoms: O_2  and  C_3
REMARK    3  A    between atoms: C_3  and  C_5
REMARK    4  A    between atoms: C_6  and  C_7
REMARK    5  A    between atoms: C_9  and  O_10
REMARK    6  A    between atoms: O_10  and  C_11
REMARK    7  A    between atoms: C_15  and  C_16
REMARK    8  A    between atoms: C_16  and  O_17
REMARK    9  A    between atoms: C_18  and  C_19
REMARK   10  A    between atoms: C_22  and  O_23
REMARK   11  A    between atoms: C_24  and  O_25
REMARK   12  A    between atoms: O_25  and  C_26
REMARK                            x       y       z     vdW  Elec       q    Type
REMARK                         _______ _______ _______ _____ _____    ______ ____
ROOT
ATOM      1  C   UNL     1       4.207   4.734  19.089  0.00  0.00    +0.000 A 
ATOM      2  C   UNL     1       5.023   5.265  18.073  0.00  0.00    +0.000 A 
ATOM      3  C   UNL     1       4.715   6.492  17.477  0.00  0.00    +0.000 A 
ATOM      4  C   UNL     1       3.547   7.129  17.873  0.00  0.00    +0.000 A 
ATOM      5  C   UNL     1       2.718   6.599  18.849  0.00  0.00    +0.000 A 
ATOM      6  C   UNL     1       3.039   5.402  19.473  0.00  0.00    +0.000 A 
ATOM      7  C   UNL     1       1.574   7.524  19.108  0.00  0.00    +0.000 C 
ATOM      8  C   UNL     1       1.763   8.485  17.896  0.00  0.00    +0.000 C 
ATOM      9  O   UNL     1       3.124   8.346  17.399  0.00  0.00    +0.000 OA
ENDROOT
BRANCH   8  10
ATOM     10  C   UNL     1       1.451   9.951  18.133  0.00  0.00    +0.000 A 
ATOM     11  C   UNL     1       2.453  10.926  18.053  0.00  0.00    +0.000 A 
ATOM     12  C   UNL     1       2.180  12.259  18.365  0.00  0.00    +0.000 A 
ATOM     13  C   UNL     1       0.891  12.646  18.738  0.00  0.00    +0.000 A 
ATOM     14  C   UNL     1      -0.148  11.709  18.761  0.00  0.00    +0.000 A 
ATOM     15  C   UNL     1       0.149  10.365  18.468  0.00  0.00    +0.000 A 
BRANCH  13  16
ATOM     16  O   UNL     1       0.689  13.953  19.086  0.00  0.00    +0.000 OA
ATOM     17  H   UNL     1       0.544  14.008  20.044  0.00  0.00    +0.000 HD
ENDBRANCH  13  16
BRANCH  14  18
ATOM     18  O   UNL     1      -1.472  11.919  19.044  0.00  0.00    +0.000 OA
ATOM     19  C   UNL     1      -2.432  11.560  18.060  0.00  0.00    +0.000 C 
ENDBRANCH  14  18
ENDBRANCH   8  10
BRANCH   1  21
ATOM     20  C   UNL     1       4.058   2.290  19.625  0.00  0.00    +0.000 C 
ATOM     21  C   UNL     1       4.607   3.504  19.777  0.00  0.00    +0.000 C 
BRANCH  20  22
ATOM     22  C   UNL     1       2.930   1.984  18.714  0.00  0.00    +0.000 C 
ATOM     23  O   UNL     1       2.989   1.873  17.506  0.00  0.00    +0.000 OA
BRANCH  22  25
ATOM     24  C   UNL     1       0.702   2.598  18.952  0.00  0.00    +0.000 C 
ATOM     25  O   UNL     1       1.808   1.857  19.471  0.00  0.00    +0.000 OA
ENDBRANCH  22  25
ENDBRANCH  20  22
ENDBRANCH   1  21
BRANCH   3  26
ATOM     26  O   UNL     1       5.473   7.100  16.516  0.00  0.00    +0.000 OA
ATOM     27  C   UNL     1       6.868   7.143  16.791  0.00  0.00    +0.000 C 
ENDBRANCH   3  26
BRANCH   7  28
ATOM     28  C   UNL     1       1.650   8.162  20.501  0.00  0.00    +0.000 C 
BRANCH  28  29
ATOM     29  O   UNL     1       0.412   8.049  21.210  0.00  0.00    +0.000 OA
ATOM     30  H   UNL     1       0.510   8.509  22.060  0.00  0.00    +0.000 HD
ENDBRANCH  28  29
ENDBRANCH   7  28
TORSDOF 9
ENDMDL
MODEL 5
REMARK VINA RESULT:      -6.4      0.875      1.811
REMARK  Name = 
REMARK  12 active torsions:
REMARK  status: ('A' for Active; 'I' for Inactive)
REMARK    1  A    between atoms: C_1  and  O_2
REMARK    2  A    between atoms: O_2  and  C_3
REMARK    3  A    between atoms: C_3  and  C_5
REMARK    4  A    between atoms: C_6  and  C_7
REMARK    5  A    between atoms: C_9  and  O_10
REMARK    6  A    between atoms: O_10  and  C_11
REMARK    7  A    between atoms: C_15  and  C_16
REMARK    8  A    between atoms: C_16  and  O_17
REMARK    9  A    between atoms: C_18  and  C_19
REMARK   10  A    between atoms: C_22  and  O_23
REMARK   11  A    between atoms: C_24  and  O_25
REMARK   12  A    between atoms: O_25  and  C_26
REMARK                            x       y       z     vdW  Elec       q    Type
REMARK                         _______ _______ _______ _____ _____    ______ ____
ROOT
ATOM      1  C   UNL     1       2.429   6.819  19.593  0.00  0.00    +0.000 A 
ATOM      2  C   UNL     1       2.494   7.702  18.500  0.00  0.00    +0.000 A 
ATOM      3  C   UNL     1       1.825   8.930  18.534  0.00  0.00    +0.000 A 
ATOM      4  C   UNL     1       1.045   9.213  19.647  0.00  0.00    +0.000 A 
ATOM      5  C   UNL     1       0.947   8.335  20.714  0.00  0.00    +0.000 A 
ATOM      6  C   UNL     1       1.640   7.132  20.705  0.00  0.00    +0.000 A 
ATOM      7  C   UNL     1       0.091   8.924  21.787  0.00  0.00    +0.000 C 
ATOM      8  C   UNL     1      -0.499  10.126  20.989  0.00  0.00    +0.000 C 
ATOM      9  O   UNL     1       0.351  10.382  19.836  0.00  0.00    +0.000 OA
ENDROOT
BRANCH   8  10
ATOM     10  C   UNL     1      -0.717  11.415  21.762  0.00  0.00    +0.000 A 
ATOM     11  C   UNL     1      -1.747  11.527  22.704  0.00  0.00    +0.000 A 
ATOM     12  C   UNL     1      -2.002  12.742  23.342  0.00  0.00    +0.000 A 
ATOM     13  C   UNL     1      -1.214  13.862  23.067  0.00  0.00    +0.000 A 
ATOM     14  C   UNL     1      -0.134  13.765  22.183  0.00  0.00    +0.000 A 
ATOM     15  C   UNL     1       0.094  12.539  21.529  0.00  0.00    +0.000 A 
BRANCH  13  16
ATOM     16  O   UNL     1      -1.540  15.041  23.678  0.00  0.00    +0.000 OA
ATOM     17  H   UNL     1      -1.838  15.675  23.006  0.00  0.00    +0.000 HD
ENDBRANCH  13  16
BRANCH  14  18
ATOM     18  O   UNL     1       0.771  14.735  21.842  0.00  0.00    +0.000 OA
ATOM     19  C   UNL     1       0.446  15.607  20.769  0.00  0.00    +0.000 C 
ENDBRANCH  14  18
ENDBRANCH   8  10
BRANCH   1  21
ATOM     20  C   UNL     1       2.828   4.384  19.150  0.00  0.00    +0.000 C 
ATOM     21  C   UNL     1       3.226   5.589  19.584  0.00  0.00    +0.000 C 
BRANCH  20  22
ATOM     22  C   UNL     1       1.487   4.089  18.595  0.00  0.00    +0.000 C 
ATOM     23  O   UNL     1       1.134   4.245  17.444  0.00  0.00    +0.000 OA
BRANCH  22  25
ATOM     24  C   UNL     1       1.432   2.780  20.514  0.00  0.00    +0.000 C 
ATOM     25  O   UNL     1       0.712   3.618  19.609  0.00  0.00    +0.000 OA
ENDBRANCH  22  25
ENDBRANCH  20  22
ENDBRANCH   1  21
BRANCH   3  26
ATOM     26  O   UNL     1       1.868   9.865  17.538  0.00  0.00    +0.000 OA
ATOM     27  C   UNL     1       2.420  11.121  17.918  0.00  0.00    +0.000 C 
ENDBRANCH   3  26
BRANCH   7  28
ATOM     28  C   UNL     1       0.898   9.273  23.045  0.00  0.00    +0.000 C 
BRANCH  28  29
ATOM     29  O   UNL     1       2.273   9.527  22.744  0.00  0.00    +0.000 OA
ATOM     30  H   UNL     1       2.458   9.173  21.858  0.00  0.00    +0.000 HD
ENDBRANCH  28  29
ENDBRANCH   7  28
TORSDOF 9
ENDMDL
MODEL 6
REMARK VINA RESULT:      -6.4      0.636      1.048
REMARK  Name = 
REMARK  12 active torsions:
REMARK  status: ('A' for Active; 'I' for Inactive)
REMARK    1  A    between atoms: C_1  and  O_2
REMARK    2  A    between atoms: O_2  and  C_3
REMARK    3  A    between atoms: C_3  and  C_5
REMARK    4  A    between atoms: C_6  and  C_7
REMARK    5  A    between atoms: C_9  and  O_10
REMARK    6  A    between atoms: O_10  and  C_11
REMARK    7  A    between atoms: C_15  and  C_16
REMARK    8  A    between atoms: C_16  and  O_17
REMARK    9  A    between atoms: C_18  and  C_19
REMARK   10  A    between atoms: C_22  and  O_23
REMARK   11  A    between atoms: C_24  and  O_25
REMARK   12  A    between atoms: O_25  and  C_26
REMARK                            x       y       z     vdW  Elec       q    Type
REMARK                         _______ _______ _______ _____ _____    ______ ____
ROOT
ATOM      1  C   UNL     1       2.453   6.884  19.647  0.00  0.00    +0.000 A 
ATOM      2  C   UNL     1       2.509   7.748  18.538  0.00  0.00    +0.000 A 
ATOM      3  C   UNL     1       1.805   8.957  18.538  0.00  0.00    +0.000 A 
ATOM      4  C   UNL     1       1.001   9.239  19.635  0.00  0.00    +0.000 A 
ATOM      5  C   UNL     1       0.913   8.379  20.718  0.00  0.00    +0.000 A 
ATOM      6  C   UNL     1       1.640   7.197  20.742  0.00  0.00    +0.000 A 
ATOM      7  C   UNL     1       0.025   8.964  21.767  0.00  0.00    +0.000 C 
ATOM      8  C   UNL     1      -0.587  10.133  20.937  0.00  0.00    +0.000 C 
ATOM      9  O   UNL     1       0.272  10.391  19.791  0.00  0.00    +0.000 OA
ENDROOT
BRANCH   8  10
ATOM     10  C   UNL     1      -0.852  11.430  21.681  0.00  0.00    +0.000 A 
ATOM     11  C   UNL     1      -0.011  12.540  21.522  0.00  0.00    +0.000 A 
ATOM     12  C   UNL     1      -0.205  13.696  22.279  0.00  0.00    +0.000 A 
ATOM     13  C   UNL     1      -1.260  13.774  23.190  0.00  0.00    +0.000 A 
ATOM     14  C   UNL     1      -2.159  12.710  23.322  0.00  0.00    +0.000 A 
ATOM     15  C   UNL     1      -1.935  11.541  22.570  0.00  0.00    +0.000 A 
BRANCH  13  16
ATOM     16  O   UNL     1      -1.373  14.909  23.945  0.00  0.00    +0.000 OA
ATOM     17  H   UNL     1      -2.287  14.991  24.261  0.00  0.00    +0.000 HD
ENDBRANCH  13  16
BRANCH  14  18
ATOM     18  O   UNL     1      -3.273  12.636  24.115  0.00  0.00    +0.000 OA
ATOM     19  C   UNL     1      -4.511  13.080  23.576  0.00  0.00    +0.000 C 
ENDBRANCH  14  18
ENDBRANCH   8  10
BRANCH   1  21
ATOM     20  C   UNL     1       2.873   4.420  19.455  0.00  0.00    +0.000 C 
ATOM     21  C   UNL     1       3.284   5.678  19.674  0.00  0.00    +0.000 C 
BRANCH  20  22
ATOM     22  C   UNL     1       1.477   4.033  19.143  0.00  0.00    +0.000 C 
ATOM     23  O   UNL     1       0.585   3.848  19.944  0.00  0.00    +0.000 OA
BRANCH  22  25
ATOM     24  C   UNL     1       2.443   3.162  17.217  0.00  0.00    +0.000 C 
ATOM     25  O   UNL     1       1.372   3.913  17.792  0.00  0.00    +0.000 OA
ENDBRANCH  22  25
ENDBRANCH  20  22
ENDBRANCH   1  21
BRANCH   3  26
ATOM     26  O   UNL     1       1.836   9.873  17.524  0.00  0.00    +0.000 OA
ATOM     27  C   UNL     1       2.467  11.106  17.850  0.00  0.00    +0.000 C 
ENDBRANCH   3  26
BRANCH   7  28
ATOM     28  C   UNL     1       0.804   9.360  23.028  0.00  0.00    +0.000 C 
BRANCH  28  29
ATOM     29  O   UNL     1       2.210   9.460  22.779  0.00  0.00    +0.000 OA
ATOM     30  H   UNL     1       2.637   9.779  23.592  0.00  0.00    +0.000 HD
ENDBRANCH  28  29
ENDBRANCH   7  28
TORSDOF 9
ENDMDL
MODEL 7
REMARK VINA RESULT:      -6.4      3.054      4.308
REMARK  Name = 
REMARK  12 active torsions:
REMARK  status: ('A' for Active; 'I' for Inactive)
REMARK    1  A    between atoms: C_1  and  O_2
REMARK    2  A    between atoms: O_2  and  C_3
REMARK    3  A    between atoms: C_3  and  C_5
REMARK    4  A    between atoms: C_6  and  C_7
REMARK    5  A    between atoms: C_9  and  O_10
REMARK    6  A    between atoms: O_10  and  C_11
REMARK    7  A    between atoms: C_15  and  C_16
REMARK    8  A    between atoms: C_16  and  O_17
REMARK    9  A    between atoms: C_18  and  C_19
REMARK   10  A    between atoms: C_22  and  O_23
REMARK   11  A    between atoms: C_24  and  O_25
REMARK   12  A    between atoms: O_25  and  C_26
REMARK                            x       y       z     vdW  Elec       q    Type
REMARK                         _______ _______ _______ _____ _____    ______ ____
ROOT
ATOM      1  C   UNL     1       4.034   4.932  19.152  0.00  0.00    +0.000 A 
ATOM      2  C   UNL     1       4.651   5.389  17.973  0.00  0.00    +0.000 A 
ATOM      3  C   UNL     1       4.235   6.577  17.364  0.00  0.00    +0.000 A 
ATOM      4  C   UNL     1       3.154   7.247  17.920  0.00  0.00    +0.000 A 
ATOM      5  C   UNL     1       2.517   6.788  19.062  0.00  0.00    +0.000 A 
ATOM      6  C   UNL     1       2.951   5.631  19.696  0.00  0.00    +0.000 A 
ATOM      7  C   UNL     1       1.434   7.735  19.462  0.00  0.00    +0.000 C 
ATOM      8  C   UNL     1       1.397   8.613  18.175  0.00  0.00    +0.000 C 
ATOM      9  O   UNL     1       2.647   8.433  17.452  0.00  0.00    +0.000 OA
ENDROOT
BRANCH   8  10
ATOM     10  C   UNL     1       1.126  10.095  18.369  0.00  0.00    +0.000 A 
ATOM     11  C   UNL     1      -0.164  10.562  18.655  0.00  0.00    +0.000 A 
ATOM     12  C   UNL     1      -0.425  11.930  18.739  0.00  0.00    +0.000 A 
ATOM     13  C   UNL     1       0.604  12.857  18.563  0.00  0.00    +0.000 A 
ATOM     14  C   UNL     1       1.916  12.421  18.345  0.00  0.00    +0.000 A 
ATOM     15  C   UNL     1       2.159  11.039  18.239  0.00  0.00    +0.000 A 
BRANCH  13  16
ATOM     16  O   UNL     1       0.285  14.186  18.601  0.00  0.00    +0.000 OA
ATOM     17  H   UNL     1       0.222  14.471  19.526  0.00  0.00    +0.000 HD
ENDBRANCH  13  16
BRANCH  14  18
ATOM     18  O   UNL     1       3.049  13.179  18.209  0.00  0.00    +0.000 OA
ATOM     19  C   UNL     1       3.397  14.060  19.270  0.00  0.00    +0.000 C 
ENDBRANCH  14  18
ENDBRANCH   8  10
BRANCH   1  21
ATOM     20  C   UNL     1       4.133   2.483  19.681  0.00  0.00    +0.000 C 
ATOM     21  C   UNL     1       4.557   3.746  19.836  0.00  0.00    +0.000 C 
BRANCH  20  22
ATOM     22  C   UNL     1       3.040   2.068  18.772  0.00  0.00    +0.000 C 
ATOM     23  O   UNL     1       3.139   1.841  17.583  0.00  0.00    +0.000 OA
BRANCH  22  25
ATOM     24  C   UNL     1       0.778   2.593  18.848  0.00  0.00    +0.000 C 
ATOM     25  O   UNL     1       1.897   1.993  19.504  0.00  0.00    +0.000 OA
ENDBRANCH  22  25
ENDBRANCH  20  22
ENDBRANCH   1  21
BRANCH   3  26
ATOM     26  O   UNL     1       4.804   7.115  16.243  0.00  0.00    +0.000 OA
ATOM     27  C   UNL     1       5.429   6.174  15.378  0.00  0.00    +0.000 C 
ENDBRANCH   3  26
BRANCH   7  28
ATOM     28  C   UNL     1       1.758   8.463  20.773  0.00  0.00    +0.000 C 
BRANCH  28  29
ATOM     29  O   UNL     1       0.604   8.593  21.611  0.00  0.00    +0.000 OA
ATOM     30  H   UNL     1       0.799   9.263  22.288  0.00  0.00    +0.000 HD
ENDBRANCH  28  29
ENDBRANCH   7  28
TORSDOF 9
ENDMDL
MODEL 8
REMARK VINA RESULT:      -6.4      1.898      3.142
REMARK  Name = 
REMARK  12 active torsions:
REMARK  status: ('A' for Active; 'I' for Inactive)
REMARK    1  A    between atoms: C_1  and  O_2
REMARK    2  A    between atoms: O_2  and  C_3
REMARK    3  A    between atoms: C_3  and  C_5
REMARK    4  A    between atoms: C_6  and  C_7
REMARK    5  A    between atoms: C_9  and  O_10
REMARK    6  A    between atoms: O_10  and  C_11
REMARK    7  A    between atoms: C_15  and  C_16
REMARK    8  A    between atoms: C_16  and  O_17
REMARK    9  A    between atoms: C_18  and  C_19
REMARK   10  A    between atoms: C_22  and  O_23
REMARK   11  A    between atoms: C_24  and  O_25
REMARK   12  A    between atoms: O_25  and  C_26
REMARK                            x       y       z     vdW  Elec       q    Type
REMARK                         _______ _______ _______ _____ _____    ______ ____
ROOT
ATOM      1  C   UNL     1       2.224   5.460  20.410  0.00  0.00    +0.000 A 
ATOM      2  C   UNL     1       2.856   5.914  19.239  0.00  0.00    +0.000 A 
ATOM      3  C   UNL     1       2.664   7.223  18.784  0.00  0.00    +0.000 A 
ATOM      4  C   UNL     1       1.778   8.029  19.487  0.00  0.00    +0.000 A 
ATOM      5  C   UNL     1       1.124   7.580  20.623  0.00  0.00    +0.000 A 
ATOM      6  C   UNL     1       1.341   6.296  21.103  0.00  0.00    +0.000 A 
ATOM      7  C   UNL     1       0.285   8.674  21.198  0.00  0.00    +0.000 C 
ATOM      8  C   UNL     1       0.361   9.682  20.012  0.00  0.00    +0.000 C 
ATOM      9  O   UNL     1       1.504   9.338  19.180  0.00  0.00    +0.000 OA
ENDROOT
BRANCH   8  10
ATOM     10  C   UNL     1       0.414  11.156  20.373  0.00  0.00    +0.000 A 
ATOM     11  C   UNL     1      -0.711  11.816  20.884  0.00  0.00    +0.000 A 
ATOM     12  C   UNL     1      -0.683  13.191  21.125  0.00  0.00    +0.000 A 
ATOM     13  C   UNL     1       0.479  13.926  20.883  0.00  0.00    +0.000 A 
ATOM     14  C   UNL     1       1.640  13.285  20.439  0.00  0.00    +0.000 A 
ATOM     15  C   UNL     1       1.589  11.903  20.177  0.00  0.00    +0.000 A 
BRANCH  13  16
ATOM     16  O   UNL     1       0.436  15.278  21.084  0.00  0.00    +0.000 OA
ATOM     17  H   UNL     1       1.320  15.590  21.335  0.00  0.00    +0.000 HD
ENDBRANCH  13  16
BRANCH  14  18
ATOM     18  O   UNL     1       2.874  13.832  20.207  0.00  0.00    +0.000 OA
ATOM     19  C   UNL     1       3.220  14.161  18.868  0.00  0.00    +0.000 C 
ENDBRANCH  14  18
ENDBRANCH   8  10
BRANCH   1  21
ATOM     20  C   UNL     1       2.153   2.954  20.389  0.00  0.00    +0.000 C 
ATOM     21  C   UNL     1       2.525   4.123  20.930  0.00  0.00    +0.000 C 
BRANCH  20  22
ATOM     22  C   UNL     1       1.357   2.816  19.148  0.00  0.00    +0.000 C 
ATOM     23  O   UNL     1       0.148   2.740  19.072  0.00  0.00    +0.000 OA
BRANCH  22  25
ATOM     24  C   UNL     1       3.236   1.783  18.252  0.00  0.00    +0.000 C 
ATOM     25  O   UNL     1       2.224   2.780  18.100  0.00  0.00    +0.000 OA
ENDBRANCH  22  25
ENDBRANCH  20  22
ENDBRANCH   1  21
BRANCH   3  26
ATOM     26  O   UNL     1       3.270   7.760  17.683  0.00  0.00    +0.000 OA
ATOM     27  C   UNL     1       4.349   6.993  17.160  0.00  0.00    +0.000 C 
ENDBRANCH   3  26
BRANCH   7  28
ATOM     28  C   UNL     1       0.824   9.169  22.546  0.00  0.00    +0.000 C 
BRANCH  28  29
ATOM     29  O   UNL     1      -0.216   9.311  23.519  0.00  0.00    +0.000 OA
ATOM     30  H   UNL     1      -1.059   9.078  23.094  0.00  0.00    +0.000 HD
ENDBRANCH  28  29
ENDBRANCH   7  28
TORSDOF 9
ENDMDL
MODEL 9
REMARK VINA RESULT:      -6.3      0.856      1.994
REMARK  Name = 
REMARK  12 active torsions:
REMARK  status: ('A' for Active; 'I' for Inactive)
REMARK    1  A    between atoms: C_1  and  O_2
REMARK    2  A    between atoms: O_2  and  C_3
REMARK    3  A    between atoms: C_3  and  C_5
REMARK    4  A    between atoms: C_6  and  C_7
REMARK    5  A    between atoms: C_9  and  O_10
REMARK    6  A    between atoms: O_10  and  C_11
REMARK    7  A    between atoms: C_15  and  C_16
REMARK    8  A    between atoms: C_16  and  O_17
REMARK    9  A    between atoms: C_18  and  C_19
REMARK   10  A    between atoms: C_22  and  O_23
REMARK   11  A    between atoms: C_24  and  O_25
REMARK   12  A    between atoms: O_25  and  C_26
REMARK                            x       y       z     vdW  Elec       q    Type
REMARK                         _______ _______ _______ _____ _____    ______ ____
ROOT
ATOM      1  C   UNL     1       2.503   6.855  19.624  0.00  0.00    +0.000 A 
ATOM      2  C   UNL     1       2.518   7.696  18.496  0.00  0.00    +0.000 A 
ATOM      3  C   UNL     1       1.828   8.913  18.503  0.00  0.00    +0.000 A 
ATOM      4  C   UNL     1       1.077   9.225  19.627  0.00  0.00    +0.000 A 
ATOM      5  C   UNL     1       1.028   8.389  20.731  0.00  0.00    +0.000 A 
ATOM      6  C   UNL     1       1.743   7.199  20.747  0.00  0.00    +0.000 A 
ATOM      7  C   UNL     1       0.194   9.005  21.806  0.00  0.00    +0.000 C 
ATOM      8  C   UNL     1      -0.442  10.164  20.981  0.00  0.00    +0.000 C 
ATOM      9  O   UNL     1       0.367  10.389  19.792  0.00  0.00    +0.000 OA
ENDROOT
BRANCH   8  10
ATOM     10  C   UNL     1      -0.660  11.478  21.709  0.00  0.00    +0.000 A 
ATOM     11  C   UNL     1      -1.722  11.638  22.609  0.00  0.00    +0.000 A 
ATOM     12  C   UNL     1      -1.974  12.876  23.203  0.00  0.00    +0.000 A 
ATOM     13  C   UNL     1      -1.152  13.971  22.928  0.00  0.00    +0.000 A 
ATOM     14  C   UNL     1      -0.043  13.826  22.087  0.00  0.00    +0.000 A 
ATOM     15  C   UNL     1       0.183  12.579  21.477  0.00  0.00    +0.000 A 
BRANCH  13  16
ATOM     16  O   UNL     1      -1.475  15.173  23.493  0.00  0.00    +0.000 OA
ATOM     17  H   UNL     1      -0.935  15.305  24.289  0.00  0.00    +0.000 HD
ENDBRANCH  13  16
BRANCH  14  18
ATOM     18  O   UNL     1       0.896  14.767  21.754  0.00  0.00    +0.000 OA
ATOM     19  C   UNL     1       0.653  15.581  20.614  0.00  0.00    +0.000 C 
ENDBRANCH  14  18
ENDBRANCH   8  10
BRANCH   1  21
ATOM     20  C   UNL     1       2.888   4.383  19.462  0.00  0.00    +0.000 C 
ATOM     21  C   UNL     1       3.321   5.640  19.638  0.00  0.00    +0.000 C 
BRANCH  20  22
ATOM     22  C   UNL     1       1.476   4.006  19.219  0.00  0.00    +0.000 C 
ATOM     23  O   UNL     1       0.588   3.966  20.047  0.00  0.00    +0.000 OA
BRANCH  22  25
ATOM     24  C   UNL     1       2.357   2.804  17.437  0.00  0.00    +0.000 C 
ATOM     25  O   UNL     1       1.348   3.704  17.900  0.00  0.00    +0.000 OA
ENDBRANCH  22  25
ENDBRANCH  20  22
ENDBRANCH   1  21
BRANCH   3  26
ATOM     26  O   UNL     1       1.822   9.808  17.470  0.00  0.00    +0.000 OA
ATOM     27  C   UNL     1       2.435  11.059  17.759  0.00  0.00    +0.000 C 
ENDBRANCH   3  26
BRANCH   7  28
ATOM     28  C   UNL     1       1.032   9.417  23.023  0.00  0.00    +0.000 C 
BRANCH  28  29
ATOM     29  O   UNL     1       0.255   9.440  24.225  0.00  0.00    +0.000 OA
ATOM     30  H   UNL     1      -0.683   9.469  23.975  0.00  0.00    +0.000 HD
ENDBRANCH  28  29
ENDBRANCH   7  28
TORSDOF 9
ENDMDL
