MODEL 1
REMARK VINA RESULT:      -8.1      0.000      0.000
REMARK  Name = 
REMARK  12 active torsions:
REMARK  status: ('A' for Active; 'I' for Inactive)
REMARK    1  A    between atoms: C_1  and  C_2
REMARK    2  A    between atoms: C_2  and  C_3
REMARK    3  A    between atoms: C_2  and  C_4
REMARK    4  A    between atoms: N_6  and  C_7
REMARK    5  A    between atoms: C_7  and  C_8
REMARK    6  A    between atoms: C_7  and  C_12
REMARK    7  A    between atoms: C_8  and  C_9
REMARK    8  A    between atoms: C_9  and  O_11
REMARK    9  A    between atoms: N_14  and  C_15
REMARK   10  A    between atoms: C_18  and  C_19
REMARK   11  A    between atoms: C_24  and  C_25
REMARK   12  A    between atoms: C_25  and  O_27
REMARK                            x       y       z     vdW  Elec       q    Type
REMARK                         _______ _______ _______ _____ _____    ______ ____
ROOT
ATOM      1  C   UNL     1       2.887   5.412  17.832  0.00  0.00    +0.000 C 
ATOM      2  O   UNL     1       1.753   4.939  17.778  0.00  0.00    +0.000 OA
ATOM      3  N   UNL     1       3.217   6.690  18.253  0.00  0.00    +0.000 N 
ATOM      4  H   UNL     1       4.196   6.941  18.186  0.00  0.00    +0.000 HD
ENDROOT
BRANCH   3   5
ATOM      5  C   UNL     1       2.322   7.701  18.635  0.00  0.00    +0.000 A 
ATOM      6  C   UNL     1       1.892   8.704  17.770  0.00  0.00    +0.000 A 
ATOM      7  C   UNL     1       1.048   9.723  18.213  0.00  0.00    +0.000 A 
ATOM      8  C   UNL     1       0.667   9.827  19.555  0.00  0.00    +0.000 A 
ATOM      9  C   UNL     1       1.055   8.772  20.406  0.00  0.00    +0.000 A 
ATOM     10  C   UNL     1       1.846   7.708  19.947  0.00  0.00    +0.000 A 
BRANCH   8  11
ATOM     11  C   UNL     1      -0.089  11.001  20.061  0.00  0.00    +0.000 A 
ATOM     12  C   UNL     1       0.312  11.572  21.296  0.00  0.00    +0.000 A 
ATOM     13  C   UNL     1      -0.343  12.668  21.860  0.00  0.00    +0.000 A 
ATOM     14  C   UNL     1      -1.439  13.229  21.221  0.00  0.00    +0.000 A 
ATOM     15  C   UNL     1      -1.868  12.692  20.009  0.00  0.00    +0.000 A 
ATOM     16  C   UNL     1      -1.202  11.597  19.416  0.00  0.00    +0.000 A 
BRANCH  16  17
ATOM     17  C   UNL     1      -1.816  11.168  18.124  0.00  0.00    +0.000 C 
ATOM     18  O   UNL     1      -2.509  10.163  18.046  0.00  0.00    +0.000 OA
BRANCH  17  19
ATOM     19  O   UNL     1      -1.652  12.006  17.083  0.00  0.00    +0.000 OA
ATOM     20  H   UNL     1      -1.065  12.768  17.239  0.00  0.00    +0.000 HD
ENDBRANCH  17  19
ENDBRANCH  16  17
ENDBRANCH   8  11
ENDBRANCH   3   5
BRANCH   1  21
ATOM     21  C   UNL     1       4.097   4.495  17.568  0.00  0.00    +0.000 C 
BRANCH  21  24
ATOM     22  C   UNL     1       6.376   5.392  17.265  0.00  0.00    +0.000 C 
ATOM     23  O   UNL     1       6.289   5.290  16.047  0.00  0.00    +0.000 OA
ATOM     24  N   UNL     1       5.351   5.018  18.107  0.00  0.00    +0.000 N 
ATOM     25  H   UNL     1       5.379   5.273  19.092  0.00  0.00    +0.000 HD
BRANCH  22  27
ATOM     26  C   UNL     1       7.689   7.478  17.739  0.00  0.00    +0.000 C 
ATOM     27  C   UNL     1       7.590   5.973  17.977  0.00  0.00    +0.000 C 
ATOM     28  C   UNL     1       7.520   5.673  19.474  0.00  0.00    +0.000 C 
ENDBRANCH  22  27
ENDBRANCH  21  24
BRANCH  21  29
ATOM     29  C   UNL     1       3.777   3.086  18.070  0.00  0.00    +0.000 C 
BRANCH  29  30
ATOM     30  C   UNL     1       4.080   2.926  19.536  0.00  0.00    +0.000 C 
ATOM     31  O   UNL     1       3.378   3.374  20.433  0.00  0.00    +0.000 OA
BRANCH  30  32
ATOM     32  O   UNL     1       5.254   2.304  19.776  0.00  0.00    +0.000 OA
ATOM     33  H   UNL     1       5.192   1.334  19.873  0.00  0.00    +0.000 HD
ENDBRANCH  30  32
ENDBRANCH  29  30
ENDBRANCH  21  29
ENDBRANCH   1  21
TORSDOF 10
ENDMDL
MODEL 2
REMARK VINA RESULT:      -7.9      1.641      2.377
REMARK  Name = 
REMARK  12 active torsions:
REMARK  status: ('A' for Active; 'I' for Inactive)
REMARK    1  A    between atoms: C_1  and  C_2
REMARK    2  A    between atoms: C_2  and  C_3
REMARK    3  A    between atoms: C_2  and  C_4
REMARK    4  A    between atoms: N_6  and  C_7
REMARK    5  A    between atoms: C_7  and  C_8
REMARK    6  A    between atoms: C_7  and  C_12
REMARK    7  A    between atoms: C_8  and  C_9
REMARK    8  A    between atoms: C_9  and  O_11
REMARK    9  A    between atoms: N_14  and  C_15
REMARK   10  A    between atoms: C_18  and  C_19
REMARK   11  A    between atoms: C_24  and  C_25
REMARK   12  A    between atoms: C_25  and  O_27
REMARK                            x       y       z     vdW  Elec       q    Type
REMARK                         _______ _______ _______ _____ _____    ______ ____
ROOT
ATOM      1  C   UNL     1       3.000   5.370  18.458  0.00  0.00    +0.000 C 
ATOM      2  O   UNL     1       1.999   5.106  17.796  0.00  0.00    +0.000 OA
ATOM      3  N   UNL     1       3.182   6.493  19.250  0.00  0.00    +0.000 N 
ATOM      4  H   UNL     1       4.089   6.585  19.690  0.00  0.00    +0.000 HD
ENDROOT
BRANCH   3   5
ATOM      5  C   UNL     1       2.288   7.565  19.395  0.00  0.00    +0.000 A 
ATOM      6  C   UNL     1       1.594   7.822  20.575  0.00  0.00    +0.000 A 
ATOM      7  C   UNL     1       0.669   8.864  20.653  0.00  0.00    +0.000 A 
ATOM      8  C   UNL     1       0.340   9.637  19.535  0.00  0.00    +0.000 A 
ATOM      9  C   UNL     1       1.094   9.410  18.366  0.00  0.00    +0.000 A 
ATOM     10  C   UNL     1       2.076   8.409  18.304  0.00  0.00    +0.000 A 
BRANCH   8  11
ATOM     11  C   UNL     1      -0.763  10.632  19.572  0.00  0.00    +0.000 A 
ATOM     12  C   UNL     1      -1.741  10.582  18.547  0.00  0.00    +0.000 A 
ATOM     13  C   UNL     1      -2.808  11.480  18.489  0.00  0.00    +0.000 A 
ATOM     14  C   UNL     1      -2.931  12.478  19.444  0.00  0.00    +0.000 A 
ATOM     15  C   UNL     1      -1.985  12.564  20.463  0.00  0.00    +0.000 A 
ATOM     16  C   UNL     1      -0.913  11.650  20.547  0.00  0.00    +0.000 A 
BRANCH  16  17
ATOM     17  C   UNL     1      -0.008  11.912  21.706  0.00  0.00    +0.000 C 
ATOM     18  O   UNL     1       0.980  12.624  21.600  0.00  0.00    +0.000 OA
BRANCH  17  19
ATOM     19  O   UNL     1      -0.404  11.410  22.891  0.00  0.00    +0.000 OA
ATOM     20  H   UNL     1      -0.203  10.468  23.044  0.00  0.00    +0.000 HD
ENDBRANCH  17  19
ENDBRANCH  16  17
ENDBRANCH   8  11
ENDBRANCH   3   5
BRANCH   1  21
ATOM     21  C   UNL     1       4.120   4.319  18.579  0.00  0.00    +0.000 C 
BRANCH  21  24
ATOM     22  C   UNL     1       6.156   5.302  17.590  0.00  0.00    +0.000 C 
ATOM     23  O   UNL     1       5.707   5.176  16.457  0.00  0.00    +0.000 OA
ATOM     24  N   UNL     1       5.455   4.901  18.706  0.00  0.00    +0.000 N 
ATOM     25  H   UNL     1       5.770   5.175  19.635  0.00  0.00    +0.000 HD
BRANCH  22  27
ATOM     26  C   UNL     1       7.493   7.426  17.523  0.00  0.00    +0.000 C 
ATOM     27  C   UNL     1       7.503   5.946  17.894  0.00  0.00    +0.000 C 
ATOM     28  C   UNL     1       7.852   5.768  19.372  0.00  0.00    +0.000 C 
ENDBRANCH  22  27
ENDBRANCH  21  24
BRANCH  21  29
ATOM     29  C   UNL     1       3.783   3.355  19.717  0.00  0.00    +0.000 C 
BRANCH  29  30
ATOM     30  C   UNL     1       4.191   1.941  19.400  0.00  0.00    +0.000 C 
ATOM     31  O   UNL     1       3.622   1.232  18.581  0.00  0.00    +0.000 OA
BRANCH  30  32
ATOM     32  O   UNL     1       5.205   1.490  20.168  0.00  0.00    +0.000 OA
ATOM     33  H   UNL     1       5.024   0.653  20.638  0.00  0.00    +0.000 HD
ENDBRANCH  30  32
ENDBRANCH  29  30
ENDBRANCH  21  29
ENDBRANCH   1  21
TORSDOF 10
ENDMDL
MODEL 3
REMARK VINA RESULT:      -7.8      1.608      3.434
REMARK  Name = 
REMARK  12 active torsions:
REMARK  status: ('A' for Active; 'I' for Inactive)
REMARK    1  A    between atoms: C_1  and  C_2
REMARK    2  A    between atoms: C_2  and  C_3
REMARK    3  A    between atoms: C_2  and  C_4
REMARK    4  A    between atoms: N_6  and  C_7
REMARK    5  A    between atoms: C_7  and  C_8
REMARK    6  A    between atoms: C_7  and  C_12
REMARK    7  A    between atoms: C_8  and  C_9
REMARK    8  A    between atoms: C_9  and  O_11
REMARK    9  A    between atoms: N_14  and  C_15
REMARK   10  A    between atoms: C_18  and  C_19
REMARK   11  A    between atoms: C_24  and  C_25
REMARK   12  A    between atoms: C_25  and  O_27
REMARK                            x       y       z     vdW  Elec       q    Type
REMARK                         _______ _______ _______ _____ _____    ______ ____
ROOT
ATOM      1  C   UNL     1       4.513   6.423  17.707  0.00  0.00    +0.000 C 
ATOM      2  O   UNL     1       5.158   7.416  17.376  0.00  0.00    +0.000 OA
ATOM      3  N   UNL     1       3.250   6.425  18.278  0.00  0.00    +0.000 N 
ATOM      4  H   UNL     1       2.879   5.519  18.540  0.00  0.00    +0.000 HD
ENDROOT
BRANCH   3   5
ATOM      5  C   UNL     1       2.500   7.554  18.642  0.00  0.00    +0.000 A 
ATOM      6  C   UNL     1       1.956   7.728  19.913  0.00  0.00    +0.000 A 
ATOM      7  C   UNL     1       1.166   8.839  20.210  0.00  0.00    +0.000 A 
ATOM      8  C   UNL     1       0.821   9.776  19.231  0.00  0.00    +0.000 A 
ATOM      9  C   UNL     1       1.429   9.624  17.968  0.00  0.00    +0.000 A 
ATOM     10  C   UNL     1       2.281   8.546  17.685  0.00  0.00    +0.000 A 
BRANCH   8  11
ATOM     11  C   UNL     1      -0.155  10.863  19.502  0.00  0.00    +0.000 A 
ATOM     12  C   UNL     1       0.175  11.826  20.489  0.00  0.00    +0.000 A 
ATOM     13  C   UNL     1      -0.680  12.878  20.822  0.00  0.00    +0.000 A 
ATOM     14  C   UNL     1      -1.910  13.000  20.195  0.00  0.00    +0.000 A 
ATOM     15  C   UNL     1      -2.274  12.070  19.224  0.00  0.00    +0.000 A 
ATOM     16  C   UNL     1      -1.410  11.014  18.861  0.00  0.00    +0.000 A 
BRANCH  16  17
ATOM     17  C   UNL     1      -1.983  10.123  17.807  0.00  0.00    +0.000 C 
ATOM     18  O   UNL     1      -2.870   9.320  18.059  0.00  0.00    +0.000 OA
BRANCH  17  19
ATOM     19  O   UNL     1      -1.545  10.334  16.552  0.00  0.00    +0.000 OA
ATOM     20  H   UNL     1      -2.039   9.880  15.845  0.00  0.00    +0.000 HD
ENDBRANCH  17  19
ENDBRANCH  16  17
ENDBRANCH   8  11
ENDBRANCH   3   5
BRANCH   1  21
ATOM     21  C   UNL     1       5.040   5.025  17.332  0.00  0.00    +0.000 C 
BRANCH  21  24
ATOM     22  C   UNL     1       4.246   3.189  18.777  0.00  0.00    +0.000 C 
ATOM     23  O   UNL     1       5.164   3.370  19.568  0.00  0.00    +0.000 OA
ATOM     24  N   UNL     1       4.100   3.947  17.636  0.00  0.00    +0.000 N 
ATOM     25  H   UNL     1       3.241   3.895  17.092  0.00  0.00    +0.000 HD
BRANCH  22  27
ATOM     26  C   UNL     1       2.362   2.436  20.256  0.00  0.00    +0.000 C 
ATOM     27  C   UNL     1       3.152   2.149  18.981  0.00  0.00    +0.000 C 
ATOM     28  C   UNL     1       2.219   2.117  17.770  0.00  0.00    +0.000 C 
ENDBRANCH  22  27
ENDBRANCH  21  24
BRANCH  21  29
ATOM     29  C   UNL     1       5.482   5.031  15.868  0.00  0.00    +0.000 C 
BRANCH  29  30
ATOM     30  C   UNL     1       6.974   4.881  15.728  0.00  0.00    +0.000 C 
ATOM     31  O   UNL     1       7.699   4.412  16.596  0.00  0.00    +0.000 OA
BRANCH  30  32
ATOM     32  O   UNL     1       7.459   5.391  14.577  0.00  0.00    +0.000 OA
ATOM     33  H   UNL     1       8.227   5.986  14.682  0.00  0.00    +0.000 HD
ENDBRANCH  30  32
ENDBRANCH  29  30
ENDBRANCH  21  29
ENDBRANCH   1  21
TORSDOF 10
ENDMDL
MODEL 4
REMARK VINA RESULT:      -7.7      1.131      1.409
REMARK  Name = 
REMARK  12 active torsions:
REMARK  status: ('A' for Active; 'I' for Inactive)
REMARK    1  A    between atoms: C_1  and  C_2
REMARK    2  A    between atoms: C_2  and  C_3
REMARK    3  A    between atoms: C_2  and  C_4
REMARK    4  A    between atoms: N_6  and  C_7
REMARK    5  A    between atoms: C_7  and  C_8
REMARK    6  A    between atoms: C_7  and  C_12
REMARK    7  A    between atoms: C_8  and  C_9
REMARK    8  A    between atoms: C_9  and  O_11
REMARK    9  A    between atoms: N_14  and  C_15
REMARK   10  A    between atoms: C_18  and  C_19
REMARK   11  A    between atoms: C_24  and  C_25
REMARK   12  A    between atoms: C_25  and  O_27
REMARK                            x       y       z     vdW  Elec       q    Type
REMARK                         _______ _______ _______ _____ _____    ______ ____
ROOT
ATOM      1  C   UNL     1       2.606   4.892  18.116  0.00  0.00    +0.000 C 
ATOM      2  O   UNL     1       1.453   4.706  17.733  0.00  0.00    +0.000 OA
ATOM      3  N   UNL     1       3.109   6.069  18.648  0.00  0.00    +0.000 N 
ATOM      4  H   UNL     1       4.098   6.072  18.866  0.00  0.00    +0.000 HD
ENDROOT
BRANCH   3   5
ATOM      5  C   UNL     1       2.418   7.282  18.790  0.00  0.00    +0.000 A 
ATOM      6  C   UNL     1       2.335   8.234  17.776  0.00  0.00    +0.000 A 
ATOM      7  C   UNL     1       1.688   9.452  17.986  0.00  0.00    +0.000 A 
ATOM      8  C   UNL     1       1.172   9.803  19.237  0.00  0.00    +0.000 A 
ATOM      9  C   UNL     1       1.205   8.808  20.236  0.00  0.00    +0.000 A 
ATOM     10  C   UNL     1       1.792   7.554  20.007  0.00  0.00    +0.000 A 
BRANCH   8  11
ATOM     11  C   UNL     1       0.636  11.162  19.507  0.00  0.00    +0.000 A 
ATOM     12  C   UNL     1       1.339  11.988  20.420  0.00  0.00    +0.000 A 
ATOM     13  C   UNL     1       0.908  13.275  20.746  0.00  0.00    +0.000 A 
ATOM     14  C   UNL     1      -0.255  13.783  20.188  0.00  0.00    +0.000 A 
ATOM     15  C   UNL     1      -0.978  12.998  19.293  0.00  0.00    +0.000 A 
ATOM     16  C   UNL     1      -0.543  11.704  18.935  0.00  0.00    +0.000 A 
BRANCH  16  17
ATOM     17  C   UNL     1      -1.456  11.025  17.968  0.00  0.00    +0.000 C 
ATOM     18  O   UNL     1      -1.999   9.963  18.235  0.00  0.00    +0.000 OA
BRANCH  17  19
ATOM     19  O   UNL     1      -1.728  11.702  16.836  0.00  0.00    +0.000 OA
ATOM     20  H   UNL     1      -1.519  11.241  16.003  0.00  0.00    +0.000 HD
ENDBRANCH  17  19
ENDBRANCH  16  17
ENDBRANCH   8  11
ENDBRANCH   3   5
BRANCH   1  21
ATOM     21  C   UNL     1       3.579   3.699  18.179  0.00  0.00    +0.000 C 
BRANCH  21  24
ATOM     22  C   UNL     1       5.501   4.088  16.681  0.00  0.00    +0.000 C 
ATOM     23  O   UNL     1       4.839   3.779  15.697  0.00  0.00    +0.000 OA
ATOM     24  N   UNL     1       4.974   4.072  17.954  0.00  0.00    +0.000 N 
ATOM     25  H   UNL     1       5.485   4.497  18.725  0.00  0.00    +0.000 HD
BRANCH  22  27
ATOM     26  C   UNL     1       7.288   5.052  15.204  0.00  0.00    +0.000 C 
ATOM     27  C   UNL     1       6.948   4.558  16.608  0.00  0.00    +0.000 C 
ATOM     28  C   UNL     1       7.199   5.660  17.637  0.00  0.00    +0.000 C 
ENDBRANCH  22  27
ENDBRANCH  21  24
BRANCH  21  29
ATOM     29  C   UNL     1       3.370   2.951  19.497  0.00  0.00    +0.000 C 
BRANCH  29  30
ATOM     30  C   UNL     1       4.358   1.828  19.672  0.00  0.00    +0.000 C 
ATOM     31  O   UNL     1       5.198   1.790  20.562  0.00  0.00    +0.000 OA
BRANCH  30  32
ATOM     32  O   UNL     1       4.288   0.895  18.700  0.00  0.00    +0.000 OA
ATOM     33  H   UNL     1       4.879   1.050  17.938  0.00  0.00    +0.000 HD
ENDBRANCH  30  32
ENDBRANCH  29  30
ENDBRANCH  21  29
ENDBRANCH   1  21
TORSDOF 10
ENDMDL
MODEL 5
REMARK VINA RESULT:      -7.7      1.641      3.310
REMARK  Name = 
REMARK  12 active torsions:
REMARK  status: ('A' for Active; 'I' for Inactive)
REMARK    1  A    between atoms: C_1  and  C_2
REMARK    2  A    between atoms: C_2  and  C_3
REMARK    3  A    between atoms: C_2  and  C_4
REMARK    4  A    between atoms: N_6  and  C_7
REMARK    5  A    between atoms: C_7  and  C_8
REMARK    6  A    between atoms: C_7  and  C_12
REMARK    7  A    between atoms: C_8  and  C_9
REMARK    8  A    between atoms: C_9  and  O_11
REMARK    9  A    between atoms: N_14  and  C_15
REMARK   10  A    between atoms: C_18  and  C_19
REMARK   11  A    between atoms: C_24  and  C_25
REMARK   12  A    between atoms: C_25  and  O_27
REMARK                            x       y       z     vdW  Elec       q    Type
REMARK                         _______ _______ _______ _____ _____    ______ ____
ROOT
ATOM      1  C   UNL     1       4.120   6.363  18.052  0.00  0.00    +0.000 C 
ATOM      2  O   UNL     1       4.727   7.151  17.329  0.00  0.00    +0.000 OA
ATOM      3  N   UNL     1       2.952   6.631  18.750  0.00  0.00    +0.000 N 
ATOM      4  H   UNL     1       2.608   5.886  19.343  0.00  0.00    +0.000 HD
ENDROOT
BRANCH   3   5
ATOM      5  C   UNL     1       2.280   7.861  18.812  0.00  0.00    +0.000 A 
ATOM      6  C   UNL     1       2.218   8.748  17.741  0.00  0.00    +0.000 A 
ATOM      7  C   UNL     1       1.590   9.988  17.870  0.00  0.00    +0.000 A 
ATOM      8  C   UNL     1       1.073  10.424  19.094  0.00  0.00    +0.000 A 
ATOM      9  C   UNL     1       1.084   9.492  20.152  0.00  0.00    +0.000 A 
ATOM     10  C   UNL     1       1.652   8.218  20.006  0.00  0.00    +0.000 A 
BRANCH   8  11
ATOM     11  C   UNL     1       0.557  11.805  19.275  0.00  0.00    +0.000 A 
ATOM     12  C   UNL     1       1.340  12.717  20.028  0.00  0.00    +0.000 A 
ATOM     13  C   UNL     1       0.935  14.032  20.263  0.00  0.00    +0.000 A 
ATOM     14  C   UNL     1      -0.279  14.485  19.771  0.00  0.00    +0.000 A 
ATOM     15  C   UNL     1      -1.080  13.617  19.033  0.00  0.00    +0.000 A 
ATOM     16  C   UNL     1      -0.674  12.292  18.768  0.00  0.00    +0.000 A 
BRANCH  16  17
ATOM     17  C   UNL     1      -1.672  11.522  17.966  0.00  0.00    +0.000 C 
ATOM     18  O   UNL     1      -2.394  10.679  18.478  0.00  0.00    +0.000 OA
BRANCH  17  19
ATOM     19  O   UNL     1      -1.803  11.887  16.676  0.00  0.00    +0.000 OA
ATOM     20  H   UNL     1      -1.107  12.473  16.327  0.00  0.00    +0.000 HD
ENDBRANCH  17  19
ENDBRANCH  16  17
ENDBRANCH   8  11
ENDBRANCH   3   5
BRANCH   1  21
ATOM     21  C   UNL     1       4.565   4.889  18.099  0.00  0.00    +0.000 C 
BRANCH  21  24
ATOM     22  C   UNL     1       3.749   2.944  19.379  0.00  0.00    +0.000 C 
ATOM     23  O   UNL     1       4.860   2.749  19.856  0.00  0.00    +0.000 OA
ATOM     24  N   UNL     1       3.499   3.970  18.494  0.00  0.00    +0.000 N 
ATOM     25  H   UNL     1       2.542   4.217  18.252  0.00  0.00    +0.000 HD
BRANCH  22  27
ATOM     26  C   UNL     1       1.935   2.562  21.073  0.00  0.00    +0.000 C 
ATOM     27  C   UNL     1       2.522   2.115  19.736  0.00  0.00    +0.000 C 
ATOM     28  C   UNL     1       1.471   2.219  18.631  0.00  0.00    +0.000 C 
ENDBRANCH  22  27
ENDBRANCH  21  24
BRANCH  21  29
ATOM     29  C   UNL     1       5.205   4.516  16.760  0.00  0.00    +0.000 C 
BRANCH  29  30
ATOM     30  C   UNL     1       6.706   4.437  16.854  0.00  0.00    +0.000 C 
ATOM     31  O   UNL     1       7.459   4.595  15.903  0.00  0.00    +0.000 OA
BRANCH  30  32
ATOM     32  O   UNL     1       7.149   4.091  18.080  0.00  0.00    +0.000 OA
ATOM     33  H   UNL     1       6.464   3.739  18.681  0.00  0.00    +0.000 HD
ENDBRANCH  30  32
ENDBRANCH  29  30
ENDBRANCH  21  29
ENDBRANCH   1  21
TORSDOF 10
ENDMDL
MODEL 6
REMARK VINA RESULT:      -7.7      1.543      2.169
REMARK  Name = 
REMARK  12 active torsions:
REMARK  status: ('A' for Active; 'I' for Inactive)
REMARK    1  A    between atoms: C_1  and  C_2
REMARK    2  A    between atoms: C_2  and  C_3
REMARK    3  A    between atoms: C_2  and  C_4
REMARK    4  A    between atoms: N_6  and  C_7
REMARK    5  A    between atoms: C_7  and  C_8
REMARK    6  A    between atoms: C_7  and  C_12
REMARK    7  A    between atoms: C_8  and  C_9
REMARK    8  A    between atoms: C_9  and  O_11
REMARK    9  A    between atoms: N_14  and  C_15
REMARK   10  A    between atoms: C_18  and  C_19
REMARK   11  A    between atoms: C_24  and  C_25
REMARK   12  A    between atoms: C_25  and  O_27
REMARK                            x       y       z     vdW  Elec       q    Type
REMARK                         _______ _______ _______ _____ _____    ______ ____
ROOT
ATOM      1  C   UNL     1       2.917   5.241  17.862  0.00  0.00    +0.000 C 
ATOM      2  O   UNL     1       1.745   4.869  17.880  0.00  0.00    +0.000 OA
ATOM      3  N   UNL     1       3.374   6.511  18.179  0.00  0.00    +0.000 N 
ATOM      4  H   UNL     1       4.368   6.667  18.063  0.00  0.00    +0.000 HD
ENDROOT
BRANCH   3   5
ATOM      5  C   UNL     1       2.586   7.621  18.517  0.00  0.00    +0.000 A 
ATOM      6  C   UNL     1       1.980   7.773  19.762  0.00  0.00    +0.000 A 
ATOM      7  C   UNL     1       1.155   8.866  20.031  0.00  0.00    +0.000 A 
ATOM      8  C   UNL     1       0.838   9.805  19.045  0.00  0.00    +0.000 A 
ATOM      9  C   UNL     1       1.507   9.677  17.811  0.00  0.00    +0.000 A 
ATOM     10  C   UNL     1       2.393   8.618  17.560  0.00  0.00    +0.000 A 
BRANCH   8  11
ATOM     11  C   UNL     1      -0.170  10.871  19.279  0.00  0.00    +0.000 A 
ATOM     12  C   UNL     1      -1.529  10.581  18.993  0.00  0.00    +0.000 A 
ATOM     13  C   UNL     1      -2.546  11.519  19.169  0.00  0.00    +0.000 A 
ATOM     14  C   UNL     1      -2.246  12.795  19.621  0.00  0.00    +0.000 A 
ATOM     15  C   UNL     1      -0.922  13.121  19.907  0.00  0.00    +0.000 A 
ATOM     16  C   UNL     1       0.115  12.176  19.755  0.00  0.00    +0.000 A 
BRANCH  16  17
ATOM     17  C   UNL     1       1.461  12.720  20.107  0.00  0.00    +0.000 C 
ATOM     18  O   UNL     1       2.215  13.166  19.255  0.00  0.00    +0.000 OA
BRANCH  17  19
ATOM     19  O   UNL     1       1.745  12.788  21.421  0.00  0.00    +0.000 OA
ATOM     20  H   UNL     1       1.041  12.492  22.026  0.00  0.00    +0.000 HD
ENDBRANCH  17  19
ENDBRANCH  16  17
ENDBRANCH   8  11
ENDBRANCH   3   5
BRANCH   1  21
ATOM     21  C   UNL     1       4.031   4.204  17.626  0.00  0.00    +0.000 C 
BRANCH  21  24
ATOM     22  C   UNL     1       6.178   5.394  17.375  0.00  0.00    +0.000 C 
ATOM     23  O   UNL     1       5.887   5.749  16.239  0.00  0.00    +0.000 OA
ATOM     24  N   UNL     1       5.334   4.620  18.141  0.00  0.00    +0.000 N 
ATOM     25  H   UNL     1       5.520   4.488  19.133  0.00  0.00    +0.000 HD
BRANCH  22  27
ATOM     26  C   UNL     1       7.802   7.261  17.804  0.00  0.00    +0.000 C 
ATOM     27  C   UNL     1       7.469   5.796  18.077  0.00  0.00    +0.000 C 
ATOM     28  C   UNL     1       7.353   5.546  19.581  0.00  0.00    +0.000 C 
ENDBRANCH  22  27
ENDBRANCH  21  24
BRANCH  21  29
ATOM     29  C   UNL     1       3.581   2.850  18.176  0.00  0.00    +0.000 C 
BRANCH  29  30
ATOM     30  C   UNL     1       3.954   2.676  19.625  0.00  0.00    +0.000 C 
ATOM     31  O   UNL     1       3.301   3.125  20.558  0.00  0.00    +0.000 OA
BRANCH  30  32
ATOM     32  O   UNL     1       5.132   2.043  19.803  0.00  0.00    +0.000 OA
ATOM     33  H   UNL     1       5.092   1.256  20.380  0.00  0.00    +0.000 HD
ENDBRANCH  30  32
ENDBRANCH  29  30
ENDBRANCH  21  29
ENDBRANCH   1  21
TORSDOF 10
ENDMDL
MODEL 7
REMARK VINA RESULT:      -7.7      1.439      2.040
REMARK  Name = 
REMARK  12 active torsions:
REMARK  status: ('A' for Active; 'I' for Inactive)
REMARK    1  A    between atoms: C_1  and  C_2
REMARK    2  A    between atoms: C_2  and  C_3
REMARK    3  A    between atoms: C_2  and  C_4
REMARK    4  A    between atoms: N_6  and  C_7
REMARK    5  A    between atoms: C_7  and  C_8
REMARK    6  A    between atoms: C_7  and  C_12
REMARK    7  A    between atoms: C_8  and  C_9
REMARK    8  A    between atoms: C_9  and  O_11
REMARK    9  A    between atoms: N_14  and  C_15
REMARK   10  A    between atoms: C_18  and  C_19
REMARK   11  A    between atoms: C_24  and  C_25
REMARK   12  A    between atoms: C_25  and  O_27
REMARK                            x       y       z     vdW  Elec       q    Type
REMARK                         _______ _______ _______ _____ _____    ______ ____
ROOT
ATOM      1  C   UNL     1       2.597   4.289  17.937  0.00  0.00    +0.000 C 
ATOM      2  O   UNL     1       1.414   4.253  17.603  0.00  0.00    +0.000 OA
ATOM      3  N   UNL     1       3.175   5.217  18.789  0.00  0.00    +0.000 N 
ATOM      4  H   UNL     1       4.176   5.137  18.920  0.00  0.00    +0.000 HD
ENDROOT
BRANCH   3   5
ATOM      5  C   UNL     1       2.538   6.319  19.379  0.00  0.00    +0.000 A 
ATOM      6  C   UNL     1       1.872   6.249  20.601  0.00  0.00    +0.000 A 
ATOM      7  C   UNL     1       1.201   7.358  21.118  0.00  0.00    +0.000 A 
ATOM      8  C   UNL     1       1.098   8.553  20.400  0.00  0.00    +0.000 A 
ATOM      9  C   UNL     1       1.829   8.633  19.197  0.00  0.00    +0.000 A 
ATOM     10  C   UNL     1       2.564   7.542  18.707  0.00  0.00    +0.000 A 
BRANCH   8  11
ATOM     11  C   UNL     1       0.245   9.675  20.871  0.00  0.00    +0.000 A 
ATOM     12  C   UNL     1       0.035   9.814  22.266  0.00  0.00    +0.000 A 
ATOM     13  C   UNL     1      -0.760  10.828  22.804  0.00  0.00    +0.000 A 
ATOM     14  C   UNL     1      -1.392  11.735  21.967  0.00  0.00    +0.000 A 
ATOM     15  C   UNL     1      -1.216  11.627  20.589  0.00  0.00    +0.000 A 
ATOM     16  C   UNL     1      -0.398  10.620  20.032  0.00  0.00    +0.000 A 
BRANCH  16  17
ATOM     17  C   UNL     1      -0.341  10.670  18.540  0.00  0.00    +0.000 C 
ATOM     18  O   UNL     1      -1.096  10.003  17.847  0.00  0.00    +0.000 OA
BRANCH  17  19
ATOM     19  O   UNL     1       0.511  11.568  18.010  0.00  0.00    +0.000 OA
ATOM     20  H   UNL     1       1.390  11.620  18.428  0.00  0.00    +0.000 HD
ENDBRANCH  17  19
ENDBRANCH  16  17
ENDBRANCH   8  11
ENDBRANCH   3   5
BRANCH   1  21
ATOM     21  C   UNL     1       3.530   3.134  17.525  0.00  0.00    +0.000 C 
BRANCH  21  24
ATOM     22  C   UNL     1       5.421   4.065  16.243  0.00  0.00    +0.000 C 
ATOM     23  O   UNL     1       4.718   4.215  15.251  0.00  0.00    +0.000 OA
ATOM     24  N   UNL     1       4.933   3.530  17.415  0.00  0.00    +0.000 N 
ATOM     25  H   UNL     1       5.484   3.578  18.269  0.00  0.00    +0.000 HD
BRANCH  22  27
ATOM     26  C   UNL     1       7.376   4.953  14.941  0.00  0.00    +0.000 C 
ATOM     27  C   UNL     1       6.885   4.483  16.308  0.00  0.00    +0.000 C 
ATOM     28  C   UNL     1       7.074   5.585  17.352  0.00  0.00    +0.000 C 
ENDBRANCH  22  27
ENDBRANCH  21  24
BRANCH  21  29
ATOM     29  C   UNL     1       3.319   1.956  18.478  0.00  0.00    +0.000 C 
BRANCH  29  30
ATOM     30  C   UNL     1       3.900   2.222  19.842  0.00  0.00    +0.000 C 
ATOM     31  O   UNL     1       5.053   1.958  20.157  0.00  0.00    +0.000 OA
BRANCH  30  32
ATOM     32  O   UNL     1       3.001   2.709  20.722  0.00  0.00    +0.000 OA
ATOM     33  H   UNL     1       2.160   2.214  20.767  0.00  0.00    +0.000 HD
ENDBRANCH  30  32
ENDBRANCH  29  30
ENDBRANCH  21  29
ENDBRANCH   1  21
TORSDOF 10
ENDMDL
MODEL 8
REMARK VINA RESULT:      -7.6      1.081      1.559
REMARK  Name = 
REMARK  12 active torsions:
REMARK  status: ('A' for Active; 'I' for Inactive)
REMARK    1  A    between atoms: C_1  and  C_2
REMARK    2  A    between atoms: C_2  and  C_3
REMARK    3  A    between atoms: C_2  and  C_4
REMARK    4  A    between atoms: N_6  and  C_7
REMARK    5  A    between atoms: C_7  and  C_8
REMARK    6  A    between atoms: C_7  and  C_12
REMARK    7  A    between atoms: C_8  and  C_9
REMARK    8  A    between atoms: C_9  and  O_11
REMARK    9  A    between atoms: N_14  and  C_15
REMARK   10  A    between atoms: C_18  and  C_19
REMARK   11  A    between atoms: C_24  and  C_25
REMARK   12  A    between atoms: C_25  and  O_27
REMARK                            x       y       z     vdW  Elec       q    Type
REMARK                         _______ _______ _______ _____ _____    ______ ____
ROOT
ATOM      1  C   UNL     1       2.496   5.024  17.931  0.00  0.00    +0.000 C 
ATOM      2  O   UNL     1       1.318   4.677  18.007  0.00  0.00    +0.000 OA
ATOM      3  N   UNL     1       3.043   6.177  18.472  0.00  0.00    +0.000 N 
ATOM      4  H   UNL     1       4.023   6.340  18.273  0.00  0.00    +0.000 HD
ENDROOT
BRANCH   3   5
ATOM      5  C   UNL     1       2.350   7.191  19.150  0.00  0.00    +0.000 A 
ATOM      6  C   UNL     1       1.871   7.046  20.450  0.00  0.00    +0.000 A 
ATOM      7  C   UNL     1       1.134   8.062  21.061  0.00  0.00    +0.000 A 
ATOM      8  C   UNL     1       0.776   9.225  20.372  0.00  0.00    +0.000 A 
ATOM      9  C   UNL     1       1.321   9.387  19.081  0.00  0.00    +0.000 A 
ATOM     10  C   UNL     1       2.122   8.399  18.489  0.00  0.00    +0.000 A 
BRANCH   8  11
ATOM     11  C   UNL     1      -0.147  10.228  20.961  0.00  0.00    +0.000 A 
ATOM     12  C   UNL     1      -0.249  10.293  22.374  0.00  0.00    +0.000 A 
ATOM     13  C   UNL     1      -1.097  11.194  23.021  0.00  0.00    +0.000 A 
ATOM     14  C   UNL     1      -1.894  12.054  22.281  0.00  0.00    +0.000 A 
ATOM     15  C   UNL     1      -1.827  12.015  20.890  0.00  0.00    +0.000 A 
ATOM     16  C   UNL     1      -0.958  11.126  20.222  0.00  0.00    +0.000 A 
BRANCH  16  17
ATOM     17  C   UNL     1      -1.038  11.234  18.735  0.00  0.00    +0.000 C 
ATOM     18  O   UNL     1      -0.435  12.104  18.122  0.00  0.00    +0.000 OA
BRANCH  17  19
ATOM     19  O   UNL     1      -1.720  10.258  18.106  0.00  0.00    +0.000 OA
ATOM     20  H   UNL     1      -1.270   9.396  18.044  0.00  0.00    +0.000 HD
ENDBRANCH  17  19
ENDBRANCH  16  17
ENDBRANCH   8  11
ENDBRANCH   3   5
BRANCH   1  21
ATOM     21  C   UNL     1       3.528   4.052  17.328  0.00  0.00    +0.000 C 
BRANCH  21  24
ATOM     22  C   UNL     1       5.694   4.719  16.353  0.00  0.00    +0.000 C 
ATOM     23  O   UNL     1       5.282   4.520  15.216  0.00  0.00    +0.000 OA
ATOM     24  N   UNL     1       4.910   4.509  17.466  0.00  0.00    +0.000 N 
ATOM     25  H   UNL     1       5.212   4.846  18.377  0.00  0.00    +0.000 HD
BRANCH  22  27
ATOM     26  C   UNL     1       7.023   6.719  17.085  0.00  0.00    +0.000 C 
ATOM     27  C   UNL     1       7.087   5.254  16.662  0.00  0.00    +0.000 C 
ATOM     28  C   UNL     1       7.748   4.411  17.752  0.00  0.00    +0.000 C 
ENDBRANCH  22  27
ENDBRANCH  21  24
BRANCH  21  29
ATOM     29  C   UNL     1       3.303   2.656  17.913  0.00  0.00    +0.000 C 
BRANCH  29  30
ATOM     30  C   UNL     1       3.785   2.557  19.336  0.00  0.00    +0.000 C 
ATOM     31  O   UNL     1       3.047   2.603  20.312  0.00  0.00    +0.000 OA
BRANCH  30  32
ATOM     32  O   UNL     1       5.128   2.491  19.445  0.00  0.00    +0.000 OA
ATOM     33  H   UNL     1       5.596   2.260  18.619  0.00  0.00    +0.000 HD
ENDBRANCH  30  32
ENDBRANCH  29  30
ENDBRANCH  21  29
ENDBRANCH   1  21
TORSDOF 10
ENDMDL
MODEL 9
REMARK VINA RESULT:      -7.6      1.986      2.521
REMARK  Name = 
REMARK  12 active torsions:
REMARK  status: ('A' for Active; 'I' for Inactive)
REMARK    1  A    between atoms: C_1  and  C_2
REMARK    2  A    between atoms: C_2  and  C_3
REMARK    3  A    between atoms: C_2  and  C_4
REMARK    4  A    between atoms: N_6  and  C_7
REMARK    5  A    between atoms: C_7  and  C_8
REMARK    6  A    between atoms: C_7  and  C_12
REMARK    7  A    between atoms: C_8  and  C_9
REMARK    8  A    between atoms: C_9  and  O_11
REMARK    9  A    between atoms: N_14  and  C_15
REMARK   10  A    between atoms: C_18  and  C_19
REMARK   11  A    between atoms: C_24  and  C_25
REMARK   12  A    between atoms: C_25  and  O_27
REMARK                            x       y       z     vdW  Elec       q    Type
REMARK                         _______ _______ _______ _____ _____    ______ ____
ROOT
ATOM      1  C   UNL     1       2.594   4.367  17.755  0.00  0.00    +0.000 C 
ATOM      2  O   UNL     1       1.413   4.243  17.436  0.00  0.00    +0.000 OA
ATOM      3  N   UNL     1       3.147   5.441  18.435  0.00  0.00    +0.000 N 
ATOM      4  H   UNL     1       4.150   5.411  18.574  0.00  0.00    +0.000 HD
ENDROOT
BRANCH   3   5
ATOM      5  C   UNL     1       2.481   6.611  18.829  0.00  0.00    +0.000 A 
ATOM      6  C   UNL     1       2.210   7.663  17.957  0.00  0.00    +0.000 A 
ATOM      7  C   UNL     1       1.599   8.833  18.410  0.00  0.00    +0.000 A 
ATOM      8  C   UNL     1       1.308   9.032  19.763  0.00  0.00    +0.000 A 
ATOM      9  C   UNL     1       1.527   7.937  20.624  0.00  0.00    +0.000 A 
ATOM     10  C   UNL     1       2.076   6.732  20.160  0.00  0.00    +0.000 A 
BRANCH   8  11
ATOM     11  C   UNL     1       0.815  10.338  20.272  0.00  0.00    +0.000 A 
ATOM     12  C   UNL     1       1.007  11.486  19.461  0.00  0.00    +0.000 A 
ATOM     13  C   UNL     1       0.589  12.757  19.857  0.00  0.00    +0.000 A 
ATOM     14  C   UNL     1      -0.022  12.938  21.088  0.00  0.00    +0.000 A 
ATOM     15  C   UNL     1      -0.222  11.835  21.916  0.00  0.00    +0.000 A 
ATOM     16  C   UNL     1       0.175  10.540  21.520  0.00  0.00    +0.000 A 
BRANCH  16  17
ATOM     17  C   UNL     1      -0.122   9.497  22.547  0.00  0.00    +0.000 C 
ATOM     18  O   UNL     1      -0.898   8.579  22.323  0.00  0.00    +0.000 OA
BRANCH  17  19
ATOM     19  O   UNL     1       0.594   9.566  23.685  0.00  0.00    +0.000 OA
ATOM     20  H   UNL     1       0.689  10.454  24.075  0.00  0.00    +0.000 HD
ENDBRANCH  17  19
ENDBRANCH  16  17
ENDBRANCH   8  11
ENDBRANCH   3   5
BRANCH   1  21
ATOM     21  C   UNL     1       3.557   3.183  17.544  0.00  0.00    +0.000 C 
BRANCH  21  24
ATOM     22  C   UNL     1       5.554   4.011  16.353  0.00  0.00    +0.000 C 
ATOM     23  O   UNL     1       4.939   4.073  15.296  0.00  0.00    +0.000 OA
ATOM     24  N   UNL     1       4.966   3.575  17.521  0.00  0.00    +0.000 N 
ATOM     25  H   UNL     1       5.442   3.698  18.412  0.00  0.00    +0.000 HD
BRANCH  22  27
ATOM     26  C   UNL     1       7.496   5.163  15.255  0.00  0.00    +0.000 C 
ATOM     27  C   UNL     1       7.007   4.440  16.508  0.00  0.00    +0.000 C 
ATOM     28  C   UNL     1       7.167   5.336  17.737  0.00  0.00    +0.000 C 
ENDBRANCH  22  27
ENDBRANCH  21  24
BRANCH  21  29
ATOM     29  C   UNL     1       3.259   2.103  18.586  0.00  0.00    +0.000 C 
BRANCH  29  30
ATOM     30  C   UNL     1       3.884   2.418  19.920  0.00  0.00    +0.000 C 
ATOM     31  O   UNL     1       5.001   2.047  20.256  0.00  0.00    +0.000 OA
BRANCH  30  32
ATOM     32  O   UNL     1       3.059   3.084  20.754  0.00  0.00    +0.000 OA
ATOM     33  H   UNL     1       2.394   2.529  21.205  0.00  0.00    +0.000 HD
ENDBRANCH  30  32
ENDBRANCH  29  30
ENDBRANCH  21  29
ENDBRANCH   1  21
TORSDOF 10
ENDMDL
