MODEL 1
REMARK VINA RESULT:      -9.0      0.000      0.000
REMARK  Name = 
REMARK  11 active torsions:
REMARK  status: ('A' for Active; 'I' for Inactive)
REMARK    1  A    between atoms: C_1  and  O_2
REMARK    2  A    between atoms: O_2  and  C_3
REMARK    3  A    between atoms: C_3  and  C_4
REMARK    4  A    between atoms: C_7  and  C_8
REMARK    5  A    between atoms: C_9  and  C_10
REMARK    6  A    between atoms: C_10  and  C_11
REMARK    7  A    between atoms: C_11  and  C_12
REMARK    8  A    between atoms: C_12  and  C_13
REMARK    9  A    between atoms: N_21  and  C_22
REMARK   10  A    between atoms: C_25  and  O_26
REMARK   11  A    between atoms: O_26  and  C_27
REMARK                            x       y       z     vdW  Elec       q    Type
REMARK                         _______ _______ _______ _____ _____    ______ ____
ROOT
ATOM      1  C   UNL     1       6.408   6.321  17.669  0.00  0.00    +0.000 C 
ATOM      2  C   UNL     1       7.835   6.451  18.307  0.00  0.00    +0.000 C 
ATOM      3  C   UNL     1       7.258   5.623  19.456  0.00  0.00    +0.000 C 
ATOM      4  O   UNL     1       7.715   5.176  20.488  0.00  0.00    +0.000 OA
ATOM      5  N   UNL     1       6.042   5.558  18.865  0.00  0.00    +0.000 N 
ENDROOT
BRANCH   1   9
ATOM      6  C   UNL     1       6.266   4.226  13.774  0.00  0.00    +0.000 A 
ATOM      7  C   UNL     1       5.108   4.378  14.541  0.00  0.00    +0.000 A 
ATOM      8  C   UNL     1       5.155   5.055  15.757  0.00  0.00    +0.000 A 
ATOM      9  C   UNL     1       6.352   5.596  16.264  0.00  0.00    +0.000 A 
ATOM     10  C   UNL     1       7.502   5.440  15.467  0.00  0.00    +0.000 A 
ATOM     11  C   UNL     1       7.466   4.766  14.243  0.00  0.00    +0.000 A 
BRANCH   6  12
ATOM     12  C   UNL     1       6.202   3.509  12.455  0.00  0.00    +0.000 C 
BRANCH  12  14
ATOM     13  C   UNL     1       4.257   3.255  11.159  0.00  0.00    +0.000 C 
ATOM     14  O   UNL     1       4.921   2.894  12.357  0.00  0.00    +0.000 OA
ENDBRANCH  12  14
ENDBRANCH   6  12
ENDBRANCH   1   9
BRANCH   5  15
ATOM     15  C   UNL     1       4.882   4.885  19.241  0.00  0.00    +0.000 A 
ATOM     16  C   UNL     1       4.862   3.488  19.222  0.00  0.00    +0.000 A 
ATOM     17  C   UNL     1       3.697   2.784  19.521  0.00  0.00    +0.000 A 
ATOM     18  C   UNL     1       2.531   3.464  19.856  0.00  0.00    +0.000 A 
ATOM     19  C   UNL     1       2.536   4.857  19.884  0.00  0.00    +0.000 A 
ATOM     20  C   UNL     1       3.715   5.566  19.601  0.00  0.00    +0.000 A 
BRANCH  18  21
ATOM     21  O   UNL     1       1.446   2.665  20.085  0.00  0.00    +0.000 OA
ATOM     22  C   UNL     1       0.597   2.452  18.965  0.00  0.00    +0.000 C 
ENDBRANCH  18  21
ENDBRANCH   5  15
BRANCH   2  23
ATOM     23  C   UNL     1       8.311   7.840  18.695  0.00  0.00    +0.000 C 
BRANCH  23  24
ATOM     24  C   UNL     1       8.169   8.798  17.509  0.00  0.00    +0.000 C 
BRANCH  24  25
ATOM     25  C   UNL     1       8.004  10.235  18.000  0.00  0.00    +0.000 C 
BRANCH  25  26
ATOM     26  C   UNL     1       9.283  10.788  18.574  0.00  0.00    +0.000 A 
ATOM     27  C   UNL     1       9.425  10.944  19.959  0.00  0.00    +0.000 A 
ATOM     28  C   UNL     1      10.600  11.474  20.493  0.00  0.00    +0.000 A 
ATOM     29  C   UNL     1      11.641  11.853  19.648  0.00  0.00    +0.000 A 
ATOM     30  C   UNL     1      11.509  11.703  18.268  0.00  0.00    +0.000 A 
ATOM     31  C   UNL     1      10.332  11.176  17.732  0.00  0.00    +0.000 A 
ENDBRANCH  25  26
ENDBRANCH  24  25
ENDBRANCH  23  24
ENDBRANCH   2  23
TORSDOF 9
ENDMDL
MODEL 2
REMARK VINA RESULT:      -8.6      0.459      1.301
REMARK  Name = 
REMARK  11 active torsions:
REMARK  status: ('A' for Active; 'I' for Inactive)
REMARK    1  A    between atoms: C_1  and  O_2
REMARK    2  A    between atoms: O_2  and  C_3
REMARK    3  A    between atoms: C_3  and  C_4
REMARK    4  A    between atoms: C_7  and  C_8
REMARK    5  A    between atoms: C_9  and  C_10
REMARK    6  A    between atoms: C_10  and  C_11
REMARK    7  A    between atoms: C_11  and  C_12
REMARK    8  A    between atoms: C_12  and  C_13
REMARK    9  A    between atoms: N_21  and  C_22
REMARK   10  A    between atoms: C_25  and  O_26
REMARK   11  A    between atoms: O_26  and  C_27
REMARK                            x       y       z     vdW  Elec       q    Type
REMARK                         _______ _______ _______ _____ _____    ______ ____
ROOT
ATOM      1  C   UNL     1       6.424   6.314  17.616  0.00  0.00    +0.000 C 
ATOM      2  C   UNL     1       7.827   6.484  18.297  0.00  0.00    +0.000 C 
ATOM      3  C   UNL     1       7.244   5.628  19.423  0.00  0.00    +0.000 C 
ATOM      4  O   UNL     1       7.684   5.189  20.465  0.00  0.00    +0.000 OA
ATOM      5  N   UNL     1       6.048   5.530  18.796  0.00  0.00    +0.000 N 
ENDROOT
BRANCH   1   9
ATOM      6  C   UNL     1       6.442   4.379  13.637  0.00  0.00    +0.000 A 
ATOM      7  C   UNL     1       7.639   4.775  14.240  0.00  0.00    +0.000 A 
ATOM      8  C   UNL     1       7.629   5.365  15.500  0.00  0.00    +0.000 A 
ATOM      9  C   UNL     1       6.432   5.598  16.206  0.00  0.00    +0.000 A 
ATOM     10  C   UNL     1       5.242   5.180  15.583  0.00  0.00    +0.000 A 
ATOM     11  C   UNL     1       5.240   4.582  14.319  0.00  0.00    +0.000 A 
BRANCH   6  12
ATOM     12  C   UNL     1       6.465   3.727  12.284  0.00  0.00    +0.000 C 
BRANCH  12  14
ATOM     13  C   UNL     1       5.833   1.658  11.364  0.00  0.00    +0.000 C 
ATOM     14  O   UNL     1       5.503   2.677  12.291  0.00  0.00    +0.000 OA
ENDBRANCH  12  14
ENDBRANCH   6  12
ENDBRANCH   1   9
BRANCH   5  15
ATOM     15  C   UNL     1       4.900   4.817  19.134  0.00  0.00    +0.000 A 
ATOM     16  C   UNL     1       3.773   5.507  19.588  0.00  0.00    +0.000 A 
ATOM     17  C   UNL     1       2.633   4.822  20.005  0.00  0.00    +0.000 A 
ATOM     18  C   UNL     1       2.595   3.432  19.966  0.00  0.00    +0.000 A 
ATOM     19  C   UNL     1       3.710   2.730  19.511  0.00  0.00    +0.000 A 
ATOM     20  C   UNL     1       4.851   3.421  19.074  0.00  0.00    +0.000 A 
BRANCH  18  21
ATOM     21  O   UNL     1       1.441   2.875  20.441  0.00  0.00    +0.000 OA
ATOM     22  C   UNL     1       0.572   2.335  19.454  0.00  0.00    +0.000 C 
ENDBRANCH  18  21
ENDBRANCH   5  15
BRANCH   2  23
ATOM     23  C   UNL     1       8.247   7.884  18.709  0.00  0.00    +0.000 C 
BRANCH  23  24
ATOM     24  C   UNL     1       8.250   8.814  17.492  0.00  0.00    +0.000 C 
BRANCH  24  25
ATOM     25  C   UNL     1       8.095  10.269  17.931  0.00  0.00    +0.000 C 
BRANCH  25  26
ATOM     26  C   UNL     1       9.360  10.815  18.541  0.00  0.00    +0.000 A 
ATOM     27  C   UNL     1       9.442  11.031  19.923  0.00  0.00    +0.000 A 
ATOM     28  C   UNL     1      10.604  11.554  20.488  0.00  0.00    +0.000 A 
ATOM     29  C   UNL     1      11.694  11.867  19.679  0.00  0.00    +0.000 A 
ATOM     30  C   UNL     1      11.624  11.656  18.303  0.00  0.00    +0.000 A 
ATOM     31  C   UNL     1      10.459  11.136  17.735  0.00  0.00    +0.000 A 
ENDBRANCH  25  26
ENDBRANCH  24  25
ENDBRANCH  23  24
ENDBRANCH   2  23
TORSDOF 9
ENDMDL
MODEL 3
REMARK VINA RESULT:      -8.6      0.429      1.295
REMARK  Name = 
REMARK  11 active torsions:
REMARK  status: ('A' for Active; 'I' for Inactive)
REMARK    1  A    between atoms: C_1  and  O_2
REMARK    2  A    between atoms: O_2  and  C_3
REMARK    3  A    between atoms: C_3  and  C_4
REMARK    4  A    between atoms: C_7  and  C_8
REMARK    5  A    between atoms: C_9  and  C_10
REMARK    6  A    between atoms: C_10  and  C_11
REMARK    7  A    between atoms: C_11  and  C_12
REMARK    8  A    between atoms: C_12  and  C_13
REMARK    9  A    between atoms: N_21  and  C_22
REMARK   10  A    between atoms: C_25  and  O_26
REMARK   11  A    between atoms: O_26  and  C_27
REMARK                            x       y       z     vdW  Elec       q    Type
REMARK                         _______ _______ _______ _____ _____    ______ ____
ROOT
ATOM      1  C   UNL     1       6.486   6.385  17.581  0.00  0.00    +0.000 C 
ATOM      2  C   UNL     1       7.891   6.507  18.268  0.00  0.00    +0.000 C 
ATOM      3  C   UNL     1       7.281   5.655  19.382  0.00  0.00    +0.000 C 
ATOM      4  O   UNL     1       7.706   5.190  20.419  0.00  0.00    +0.000 OA
ATOM      5  N   UNL     1       6.084   5.597  18.750  0.00  0.00    +0.000 N 
ENDROOT
BRANCH   1   9
ATOM      6  C   UNL     1       6.492   4.369  13.643  0.00  0.00    +0.000 A 
ATOM      7  C   UNL     1       5.368   4.307  14.470  0.00  0.00    +0.000 A 
ATOM      8  C   UNL     1       5.364   4.959  15.699  0.00  0.00    +0.000 A 
ATOM      9  C   UNL     1       6.479   5.687  16.162  0.00  0.00    +0.000 A 
ATOM     10  C   UNL     1       7.594   5.743  15.306  0.00  0.00    +0.000 A 
ATOM     11  C   UNL     1       7.607   5.095  14.067  0.00  0.00    +0.000 A 
BRANCH   6  12
ATOM     12  C   UNL     1       6.480   3.675  12.310  0.00  0.00    +0.000 C 
BRANCH  12  14
ATOM     13  C   UNL     1       5.562   1.720  11.381  0.00  0.00    +0.000 C 
ATOM     14  O   UNL     1       5.367   2.787  12.292  0.00  0.00    +0.000 OA
ENDBRANCH  12  14
ENDBRANCH   6  12
ENDBRANCH   1   9
BRANCH   5  15
ATOM     15  C   UNL     1       4.916   4.913  19.076  0.00  0.00    +0.000 A 
ATOM     16  C   UNL     1       3.762   5.635  19.390  0.00  0.00    +0.000 A 
ATOM     17  C   UNL     1       2.597   4.986  19.792  0.00  0.00    +0.000 A 
ATOM     18  C   UNL     1       2.560   3.598  19.879  0.00  0.00    +0.000 A 
ATOM     19  C   UNL     1       3.702   2.862  19.564  0.00  0.00    +0.000 A 
ATOM     20  C   UNL     1       4.870   3.517  19.141  0.00  0.00    +0.000 A 
BRANCH  18  21
ATOM     21  O   UNL     1       1.377   3.081  20.326  0.00  0.00    +0.000 OA
ATOM     22  C   UNL     1       0.587   2.425  19.343  0.00  0.00    +0.000 C 
ENDBRANCH  18  21
ENDBRANCH   5  15
BRANCH   2  23
ATOM     23  C   UNL     1       8.348   7.890  18.698  0.00  0.00    +0.000 C 
BRANCH  23  24
ATOM     24  C   UNL     1       8.233   8.872  17.529  0.00  0.00    +0.000 C 
BRANCH  24  25
ATOM     25  C   UNL     1       8.025  10.295  18.045  0.00  0.00    +0.000 C 
BRANCH  25  26
ATOM     26  C   UNL     1       9.297  10.890  18.594  0.00  0.00    +0.000 A 
ATOM     27  C   UNL     1      10.295  11.346  17.723  0.00  0.00    +0.000 A 
ATOM     28  C   UNL     1      11.481  11.880  18.227  0.00  0.00    +0.000 A 
ATOM     29  C   UNL     1      11.680  11.961  19.603  0.00  0.00    +0.000 A 
ATOM     30  C   UNL     1      10.693  11.509  20.478  0.00  0.00    +0.000 A 
ATOM     31  C   UNL     1       9.507  10.971  19.975  0.00  0.00    +0.000 A 
ENDBRANCH  25  26
ENDBRANCH  24  25
ENDBRANCH  23  24
ENDBRANCH   2  23
TORSDOF 9
ENDMDL
MODEL 4
REMARK VINA RESULT:      -7.9      0.774      1.277
REMARK  Name = 
REMARK  11 active torsions:
REMARK  status: ('A' for Active; 'I' for Inactive)
REMARK    1  A    between atoms: C_1  and  O_2
REMARK    2  A    between atoms: O_2  and  C_3
REMARK    3  A    between atoms: C_3  and  C_4
REMARK    4  A    between atoms: C_7  and  C_8
REMARK    5  A    between atoms: C_9  and  C_10
REMARK    6  A    between atoms: C_10  and  C_11
REMARK    7  A    between atoms: C_11  and  C_12
REMARK    8  A    between atoms: C_12  and  C_13
REMARK    9  A    between atoms: N_21  and  C_22
REMARK   10  A    between atoms: C_25  and  O_26
REMARK   11  A    between atoms: O_26  and  C_27
REMARK                            x       y       z     vdW  Elec       q    Type
REMARK                         _______ _______ _______ _____ _____    ______ ____
ROOT
ATOM      1  C   UNL     1       6.333   6.361  17.723  0.00  0.00    +0.000 C 
ATOM      2  C   UNL     1       7.763   6.325  18.365  0.00  0.00    +0.000 C 
ATOM      3  C   UNL     1       7.082   5.620  19.539  0.00  0.00    +0.000 C 
ATOM      4  O   UNL     1       7.475   5.155  20.588  0.00  0.00    +0.000 OA
ATOM      5  N   UNL     1       5.868   5.694  18.942  0.00  0.00    +0.000 N 
ENDROOT
BRANCH   1   9
ATOM      6  C   UNL     1       5.865   4.189  13.897  0.00  0.00    +0.000 A 
ATOM      7  C   UNL     1       5.085   5.314  14.174  0.00  0.00    +0.000 A 
ATOM      8  C   UNL     1       5.250   6.005  15.371  0.00  0.00    +0.000 A 
ATOM      9  C   UNL     1       6.185   5.600  16.344  0.00  0.00    +0.000 A 
ATOM     10  C   UNL     1       6.966   4.471  16.036  0.00  0.00    +0.000 A 
ATOM     11  C   UNL     1       6.812   3.772  14.835  0.00  0.00    +0.000 A 
BRANCH   6  12
ATOM     12  C   UNL     1       5.691   3.460  12.594  0.00  0.00    +0.000 C 
BRANCH  12  14
ATOM     13  C   UNL     1       7.508   4.622  11.660  0.00  0.00    +0.000 C 
ATOM     14  O   UNL     1       6.972   3.351  11.982  0.00  0.00    +0.000 OA
ENDBRANCH  12  14
ENDBRANCH   6  12
ENDBRANCH   1   9
BRANCH   5  15
ATOM     15  C   UNL     1       4.630   5.192  19.335  0.00  0.00    +0.000 A 
ATOM     16  C   UNL     1       4.396   3.816  19.272  0.00  0.00    +0.000 A 
ATOM     17  C   UNL     1       3.146   3.287  19.587  0.00  0.00    +0.000 A 
ATOM     18  C   UNL     1       2.107   4.124  19.980  0.00  0.00    +0.000 A 
ATOM     19  C   UNL     1       2.326   5.499  20.053  0.00  0.00    +0.000 A 
ATOM     20  C   UNL     1       3.591   6.029  19.754  0.00  0.00    +0.000 A 
BRANCH  18  21
ATOM     21  O   UNL     1       0.919   3.492  20.220  0.00  0.00    +0.000 OA
ATOM     22  C   UNL     1       0.716   2.281  19.503  0.00  0.00    +0.000 C 
ENDBRANCH  18  21
ENDBRANCH   5  15
BRANCH   2  23
ATOM     23  C   UNL     1       8.417   7.653  18.707  0.00  0.00    +0.000 C 
BRANCH  23  24
ATOM     24  C   UNL     1       8.280   8.628  17.534  0.00  0.00    +0.000 C 
BRANCH  24  25
ATOM     25  C   UNL     1       7.989  10.038  18.043  0.00  0.00    +0.000 C 
BRANCH  25  26
ATOM     26  C   UNL     1       9.223  10.712  18.584  0.00  0.00    +0.000 A 
ATOM     27  C   UNL     1      10.238  11.130  17.713  0.00  0.00    +0.000 A 
ATOM     28  C   UNL     1      11.391  11.737  18.211  0.00  0.00    +0.000 A 
ATOM     29  C   UNL     1      11.539  11.930  19.583  0.00  0.00    +0.000 A 
ATOM     30  C   UNL     1      10.536  11.518  20.458  0.00  0.00    +0.000 A 
ATOM     31  C   UNL     1       9.383  10.907  19.961  0.00  0.00    +0.000 A 
ENDBRANCH  25  26
ENDBRANCH  24  25
ENDBRANCH  23  24
ENDBRANCH   2  23
TORSDOF 9
ENDMDL
MODEL 5
REMARK VINA RESULT:      -7.9      0.920      1.618
REMARK  Name = 
REMARK  11 active torsions:
REMARK  status: ('A' for Active; 'I' for Inactive)
REMARK    1  A    between atoms: C_1  and  O_2
REMARK    2  A    between atoms: O_2  and  C_3
REMARK    3  A    between atoms: C_3  and  C_4
REMARK    4  A    between atoms: C_7  and  C_8
REMARK    5  A    between atoms: C_9  and  C_10
REMARK    6  A    between atoms: C_10  and  C_11
REMARK    7  A    between atoms: C_11  and  C_12
REMARK    8  A    between atoms: C_12  and  C_13
REMARK    9  A    between atoms: N_21  and  C_22
REMARK   10  A    between atoms: C_25  and  O_26
REMARK   11  A    between atoms: O_26  and  C_27
REMARK                            x       y       z     vdW  Elec       q    Type
REMARK                         _______ _______ _______ _____ _____    ______ ____
ROOT
ATOM      1  C   UNL     1       6.077   6.486  17.055  0.00  0.00    +0.000 C 
ATOM      2  C   UNL     1       7.506   6.943  17.512  0.00  0.00    +0.000 C 
ATOM      3  C   UNL     1       7.184   6.213  18.817  0.00  0.00    +0.000 C 
ATOM      4  O   UNL     1       7.798   6.007  19.843  0.00  0.00    +0.000 OA
ATOM      5  N   UNL     1       5.954   5.860  18.374  0.00  0.00    +0.000 N 
ENDROOT
BRANCH   1   9
ATOM      6  C   UNL     1       5.932   3.952  13.431  0.00  0.00    +0.000 A 
ATOM      7  C   UNL     1       7.071   4.707  13.724  0.00  0.00    +0.000 A 
ATOM      8  C   UNL     1       7.118   5.487  14.876  0.00  0.00    +0.000 A 
ATOM      9  C   UNL     1       6.035   5.560  15.774  0.00  0.00    +0.000 A 
ATOM     10  C   UNL     1       4.905   4.781  15.461  0.00  0.00    +0.000 A 
ATOM     11  C   UNL     1       4.848   3.991  14.309  0.00  0.00    +0.000 A 
BRANCH   6  12
ATOM     12  C   UNL     1       5.898   3.100  12.193  0.00  0.00    +0.000 C 
BRANCH  12  14
ATOM     13  C   UNL     1       7.398   1.806  10.928  0.00  0.00    +0.000 C 
ATOM     14  O   UNL     1       7.233   2.971  11.717  0.00  0.00    +0.000 OA
ENDBRANCH  12  14
ENDBRANCH   6  12
ENDBRANCH   1   9
BRANCH   5  15
ATOM     15  C   UNL     1       4.969   5.069  18.960  0.00  0.00    +0.000 A 
ATOM     16  C   UNL     1       5.121   3.680  18.972  0.00  0.00    +0.000 A 
ATOM     17  C   UNL     1       4.122   2.854  19.482  0.00  0.00    +0.000 A 
ATOM     18  C   UNL     1       2.953   3.402  20.001  0.00  0.00    +0.000 A 
ATOM     19  C   UNL     1       2.789   4.786  20.000  0.00  0.00    +0.000 A 
ATOM     20  C   UNL     1       3.804   5.619  19.502  0.00  0.00    +0.000 A 
BRANCH  18  21
ATOM     21  O   UNL     1       2.032   2.489  20.431  0.00  0.00    +0.000 OA
ATOM     22  C   UNL     1       0.806   2.474  19.712  0.00  0.00    +0.000 C 
ENDBRANCH  18  21
ENDBRANCH   5  15
BRANCH   2  23
ATOM     23  C   UNL     1       7.756   8.434  17.659  0.00  0.00    +0.000 C 
BRANCH  23  24
ATOM     24  C   UNL     1       8.899   8.684  18.647  0.00  0.00    +0.000 C 
BRANCH  24  25
ATOM     25  C   UNL     1       8.740  10.048  19.315  0.00  0.00    +0.000 C 
BRANCH  25  26
ATOM     26  C   UNL     1       9.946  10.927  19.104  0.00  0.00    +0.000 A 
ATOM     27  C   UNL     1      10.316  11.319  17.811  0.00  0.00    +0.000 A 
ATOM     28  C   UNL     1      11.443  12.116  17.610  0.00  0.00    +0.000 A 
ATOM     29  C   UNL     1      12.209  12.527  18.699  0.00  0.00    +0.000 A 
ATOM     30  C   UNL     1      11.850  12.143  19.990  0.00  0.00    +0.000 A 
ATOM     31  C   UNL     1      10.724  11.341  20.191  0.00  0.00    +0.000 A 
ENDBRANCH  25  26
ENDBRANCH  24  25
ENDBRANCH  23  24
ENDBRANCH   2  23
TORSDOF 9
ENDMDL
MODEL 6
REMARK VINA RESULT:      -7.9      0.905      1.457
REMARK  Name = 
REMARK  11 active torsions:
REMARK  status: ('A' for Active; 'I' for Inactive)
REMARK    1  A    between atoms: C_1  and  O_2
REMARK    2  A    between atoms: O_2  and  C_3
REMARK    3  A    between atoms: C_3  and  C_4
REMARK    4  A    between atoms: C_7  and  C_8
REMARK    5  A    between atoms: C_9  and  C_10
REMARK    6  A    between atoms: C_10  and  C_11
REMARK    7  A    between atoms: C_11  and  C_12
REMARK    8  A    between atoms: C_12  and  C_13
REMARK    9  A    between atoms: N_21  and  C_22
REMARK   10  A    between atoms: C_25  and  O_26
REMARK   11  A    between atoms: O_26  and  C_27
REMARK                            x       y       z     vdW  Elec       q    Type
REMARK                         _______ _______ _______ _____ _____    ______ ____
ROOT
ATOM      1  C   UNL     1       6.301   6.319  17.792  0.00  0.00    +0.000 C 
ATOM      2  C   UNL     1       7.776   6.488  18.296  0.00  0.00    +0.000 C 
ATOM      3  C   UNL     1       7.335   5.633  19.485  0.00  0.00    +0.000 C 
ATOM      4  O   UNL     1       7.900   5.193  20.464  0.00  0.00    +0.000 OA
ATOM      5  N   UNL     1       6.071   5.535  19.009  0.00  0.00    +0.000 N 
ENDROOT
BRANCH   1   9
ATOM      6  C   UNL     1       5.902   4.355  13.848  0.00  0.00    +0.000 A 
ATOM      7  C   UNL     1       6.664   3.766  14.861  0.00  0.00    +0.000 A 
ATOM      8  C   UNL     1       6.770   4.379  16.105  0.00  0.00    +0.000 A 
ATOM      9  C   UNL     1       6.136   5.604  16.391  0.00  0.00    +0.000 A 
ATOM     10  C   UNL     1       5.366   6.171  15.359  0.00  0.00    +0.000 A 
ATOM     11  C   UNL     1       5.249   5.562  14.105  0.00  0.00    +0.000 A 
BRANCH   6  12
ATOM     12  C   UNL     1       5.780   3.677  12.512  0.00  0.00    +0.000 C 
BRANCH  12  14
ATOM     13  C   UNL     1       7.226   2.311  11.260  0.00  0.00    +0.000 C 
ATOM     14  O   UNL     1       7.092   3.522  11.982  0.00  0.00    +0.000 OA
ENDBRANCH  12  14
ENDBRANCH   6  12
ENDBRANCH   1   9
BRANCH   5  15
ATOM     15  C   UNL     1       4.973   4.822  19.484  0.00  0.00    +0.000 A 
ATOM     16  C   UNL     1       5.016   3.426  19.502  0.00  0.00    +0.000 A 
ATOM     17  C   UNL     1       3.909   2.680  19.901  0.00  0.00    +0.000 A 
ATOM     18  C   UNL     1       2.739   3.317  20.300  0.00  0.00    +0.000 A 
ATOM     19  C   UNL     1       2.682   4.710  20.293  0.00  0.00    +0.000 A 
ATOM     20  C   UNL     1       3.804   5.461  19.908  0.00  0.00    +0.000 A 
BRANCH  18  21
ATOM     21  O   UNL     1       1.710   2.478  20.627  0.00  0.00    +0.000 OA
ATOM     22  C   UNL     1       1.068   2.753  21.865  0.00  0.00    +0.000 C 
ENDBRANCH  18  21
ENDBRANCH   5  15
BRANCH   2  23
ATOM     23  C   UNL     1       8.244   7.889  18.654  0.00  0.00    +0.000 C 
BRANCH  23  24
ATOM     24  C   UNL     1       8.139   8.808  17.434  0.00  0.00    +0.000 C 
BRANCH  24  25
ATOM     25  C   UNL     1       8.022  10.266  17.874  0.00  0.00    +0.000 C 
BRANCH  25  26
ATOM     26  C   UNL     1       9.303  10.782  18.477  0.00  0.00    +0.000 A 
ATOM     27  C   UNL     1      10.384  11.123  17.653  0.00  0.00    +0.000 A 
ATOM     28  C   UNL     1      11.578  11.582  18.208  0.00  0.00    +0.000 A 
ATOM     29  C   UNL     1      11.703  11.703  19.590  0.00  0.00    +0.000 A 
ATOM     30  C   UNL     1      10.634  11.366  20.419  0.00  0.00    +0.000 A 
ATOM     31  C   UNL     1       9.439  10.903  19.865  0.00  0.00    +0.000 A 
ENDBRANCH  25  26
ENDBRANCH  24  25
ENDBRANCH  23  24
ENDBRANCH   2  23
TORSDOF 9
ENDMDL
MODEL 7
REMARK VINA RESULT:      -7.8      0.779      1.596
REMARK  Name = 
REMARK  11 active torsions:
REMARK  status: ('A' for Active; 'I' for Inactive)
REMARK    1  A    between atoms: C_1  and  O_2
REMARK    2  A    between atoms: O_2  and  C_3
REMARK    3  A    between atoms: C_3  and  C_4
REMARK    4  A    between atoms: C_7  and  C_8
REMARK    5  A    between atoms: C_9  and  C_10
REMARK    6  A    between atoms: C_10  and  C_11
REMARK    7  A    between atoms: C_11  and  C_12
REMARK    8  A    between atoms: C_12  and  C_13
REMARK    9  A    between atoms: N_21  and  C_22
REMARK   10  A    between atoms: C_25  and  O_26
REMARK   11  A    between atoms: O_26  and  C_27
REMARK                            x       y       z     vdW  Elec       q    Type
REMARK                         _______ _______ _______ _____ _____    ______ ____
ROOT
ATOM      1  C   UNL     1       6.521   6.279  17.664  0.00  0.00    +0.000 C 
ATOM      2  C   UNL     1       7.938   6.491  18.301  0.00  0.00    +0.000 C 
ATOM      3  C   UNL     1       7.420   5.608  19.438  0.00  0.00    +0.000 C 
ATOM      4  O   UNL     1       7.908   5.176  20.461  0.00  0.00    +0.000 OA
ATOM      5  N   UNL     1       6.208   5.474  18.848  0.00  0.00    +0.000 N 
ENDROOT
BRANCH   1   9
ATOM      6  C   UNL     1       6.453   4.368  13.673  0.00  0.00    +0.000 A 
ATOM      7  C   UNL     1       7.555   5.126  14.079  0.00  0.00    +0.000 A 
ATOM      8  C   UNL     1       7.579   5.709  15.343  0.00  0.00    +0.000 A 
ATOM      9  C   UNL     1       6.508   5.574  16.248  0.00  0.00    +0.000 A 
ATOM     10  C   UNL     1       5.416   4.797  15.820  0.00  0.00    +0.000 A 
ATOM     11  C   UNL     1       5.382   4.203  14.554  0.00  0.00    +0.000 A 
BRANCH   6  12
ATOM     12  C   UNL     1       6.444   3.729  12.313  0.00  0.00    +0.000 C 
BRANCH  12  14
ATOM     13  C   UNL     1       4.388   3.280  11.267  0.00  0.00    +0.000 C 
ATOM     14  O   UNL     1       5.318   2.860  12.249  0.00  0.00    +0.000 OA
ENDBRANCH  12  14
ENDBRANCH   6  12
ENDBRANCH   1   9
BRANCH   5  15
ATOM     15  C   UNL     1       5.096   4.721  19.216  0.00  0.00    +0.000 A 
ATOM     16  C   UNL     1       3.943   5.373  19.660  0.00  0.00    +0.000 A 
ATOM     17  C   UNL     1       2.838   4.650  20.106  0.00  0.00    +0.000 A 
ATOM     18  C   UNL     1       2.862   3.259  20.108  0.00  0.00    +0.000 A 
ATOM     19  C   UNL     1       4.004   2.595  19.663  0.00  0.00    +0.000 A 
ATOM     20  C   UNL     1       5.110   3.324  19.197  0.00  0.00    +0.000 A 
BRANCH  18  21
ATOM     21  O   UNL     1       1.737   2.666  20.608  0.00  0.00    +0.000 OA
ATOM     22  C   UNL     1       0.522   3.366  20.374  0.00  0.00    +0.000 C 
ENDBRANCH  18  21
ENDBRANCH   5  15
BRANCH   2  23
ATOM     23  C   UNL     1       8.324   7.901  18.710  0.00  0.00    +0.000 C 
BRANCH  23  24
ATOM     24  C   UNL     1       8.237   8.844  17.507  0.00  0.00    +0.000 C 
BRANCH  24  25
ATOM     25  C   UNL     1       7.791  10.236  17.949  0.00  0.00    +0.000 C 
BRANCH  25  26
ATOM     26  C   UNL     1       8.923  11.230  17.919  0.00  0.00    +0.000 A 
ATOM     27  C   UNL     1       8.670  12.578  17.631  0.00  0.00    +0.000 A 
ATOM     28  C   UNL     1       9.717  13.498  17.582  0.00  0.00    +0.000 A 
ATOM     29  C   UNL     1      11.025  13.080  17.820  0.00  0.00    +0.000 A 
ATOM     30  C   UNL     1      11.287  11.741  18.108  0.00  0.00    +0.000 A 
ATOM     31  C   UNL     1      10.240  10.818  18.153  0.00  0.00    +0.000 A 
ENDBRANCH  25  26
ENDBRANCH  24  25
ENDBRANCH  23  24
ENDBRANCH   2  23
TORSDOF 9
ENDMDL
MODEL 8
REMARK VINA RESULT:      -7.8      1.112      1.356
REMARK  Name = 
REMARK  11 active torsions:
REMARK  status: ('A' for Active; 'I' for Inactive)
REMARK    1  A    between atoms: C_1  and  O_2
REMARK    2  A    between atoms: O_2  and  C_3
REMARK    3  A    between atoms: C_3  and  C_4
REMARK    4  A    between atoms: C_7  and  C_8
REMARK    5  A    between atoms: C_9  and  C_10
REMARK    6  A    between atoms: C_10  and  C_11
REMARK    7  A    between atoms: C_11  and  C_12
REMARK    8  A    between atoms: C_12  and  C_13
REMARK    9  A    between atoms: N_21  and  C_22
REMARK   10  A    between atoms: C_25  and  O_26
REMARK   11  A    between atoms: O_26  and  C_27
REMARK                            x       y       z     vdW  Elec       q    Type
REMARK                         _______ _______ _______ _____ _____    ______ ____
ROOT
ATOM      1  C   UNL     1       5.971   6.354  16.869  0.00  0.00    +0.000 C 
ATOM      2  C   UNL     1       7.298   6.886  17.514  0.00  0.00    +0.000 C 
ATOM      3  C   UNL     1       6.898   6.045  18.727  0.00  0.00    +0.000 C 
ATOM      4  O   UNL     1       7.410   5.816  19.803  0.00  0.00    +0.000 OA
ATOM      5  N   UNL     1       5.757   5.631  18.125  0.00  0.00    +0.000 N 
ENDROOT
BRANCH   1   9
ATOM      6  C   UNL     1       6.475   3.953  13.187  0.00  0.00    +0.000 A 
ATOM      7  C   UNL     1       5.214   4.102  13.770  0.00  0.00    +0.000 A 
ATOM      8  C   UNL     1       5.058   4.874  14.917  0.00  0.00    +0.000 A 
ATOM      9  C   UNL     1       6.147   5.518  15.538  0.00  0.00    +0.000 A 
ATOM     10  C   UNL     1       7.404   5.361  14.925  0.00  0.00    +0.000 A 
ATOM     11  C   UNL     1       7.572   4.591  13.770  0.00  0.00    +0.000 A 
BRANCH   6  12
ATOM     12  C   UNL     1       6.630   3.130  11.939  0.00  0.00    +0.000 C 
BRANCH  12  14
ATOM     13  C   UNL     1       5.816   1.075  11.140  0.00  0.00    +0.000 C 
ATOM     14  O   UNL     1       5.506   2.262  11.848  0.00  0.00    +0.000 OA
ENDBRANCH  12  14
ENDBRANCH   6  12
ENDBRANCH   1   9
BRANCH   5  15
ATOM     15  C   UNL     1       4.783   4.728  18.546  0.00  0.00    +0.000 A 
ATOM     16  C   UNL     1       4.794   3.424  18.045  0.00  0.00    +0.000 A 
ATOM     17  C   UNL     1       3.792   2.517  18.386  0.00  0.00    +0.000 A 
ATOM     18  C   UNL     1       2.764   2.895  19.244  0.00  0.00    +0.000 A 
ATOM     19  C   UNL     1       2.743   4.191  19.756  0.00  0.00    +0.000 A 
ATOM     20  C   UNL     1       3.762   5.099  19.426  0.00  0.00    +0.000 A 
BRANCH  18  21
ATOM     21  O   UNL     1       1.820   1.932  19.468  0.00  0.00    +0.000 OA
ATOM     22  C   UNL     1       0.556   2.165  18.862  0.00  0.00    +0.000 C 
ENDBRANCH  18  21
ENDBRANCH   5  15
BRANCH   2  23
ATOM     23  C   UNL     1       7.405   8.378  17.778  0.00  0.00    +0.000 C 
BRANCH  23  24
ATOM     24  C   UNL     1       8.848   8.749  18.133  0.00  0.00    +0.000 C 
BRANCH  24  25
ATOM     25  C   UNL     1       8.874   9.950  19.076  0.00  0.00    +0.000 C 
BRANCH  25  26
ATOM     26  C   UNL     1       9.562  11.141  18.459  0.00  0.00    +0.000 A 
ATOM     27  C   UNL     1       8.812  12.235  18.009  0.00  0.00    +0.000 A 
ATOM     28  C   UNL     1       9.444  13.330  17.420  0.00  0.00    +0.000 A 
ATOM     29  C   UNL     1      10.829  13.341  17.276  0.00  0.00    +0.000 A 
ATOM     30  C   UNL     1      11.585  12.257  17.720  0.00  0.00    +0.000 A 
ATOM     31  C   UNL     1      10.954  11.159  18.306  0.00  0.00    +0.000 A 
ENDBRANCH  25  26
ENDBRANCH  24  25
ENDBRANCH  23  24
ENDBRANCH   2  23
TORSDOF 9
ENDMDL
MODEL 9
REMARK VINA RESULT:      -7.8      0.897      1.249
REMARK  Name = 
REMARK  11 active torsions:
REMARK  status: ('A' for Active; 'I' for Inactive)
REMARK    1  A    between atoms: C_1  and  O_2
REMARK    2  A    between atoms: O_2  and  C_3
REMARK    3  A    between atoms: C_3  and  C_4
REMARK    4  A    between atoms: C_7  and  C_8
REMARK    5  A    between atoms: C_9  and  C_10
REMARK    6  A    between atoms: C_10  and  C_11
REMARK    7  A    between atoms: C_11  and  C_12
REMARK    8  A    between atoms: C_12  and  C_13
REMARK    9  A    between atoms: N_21  and  C_22
REMARK   10  A    between atoms: C_25  and  O_26
REMARK   11  A    between atoms: O_26  and  C_27
REMARK                            x       y       z     vdW  Elec       q    Type
REMARK                         _______ _______ _______ _____ _____    ______ ____
ROOT
ATOM      1  C   UNL     1       6.387   6.184  17.550  0.00  0.00    +0.000 C 
ATOM      2  C   UNL     1       7.801   6.184  18.229  0.00  0.00    +0.000 C 
ATOM      3  C   UNL     1       7.089   5.549  19.425  0.00  0.00    +0.000 C 
ATOM      4  O   UNL     1       7.454   5.145  20.508  0.00  0.00    +0.000 OA
ATOM      5  N   UNL     1       5.891   5.590  18.794  0.00  0.00    +0.000 N 
ENDROOT
BRANCH   1   9
ATOM      6  C   UNL     1       6.023   3.891  13.784  0.00  0.00    +0.000 A 
ATOM      7  C   UNL     1       7.083   4.781  13.974  0.00  0.00    +0.000 A 
ATOM      8  C   UNL     1       7.204   5.485  15.168  0.00  0.00    +0.000 A 
ATOM      9  C   UNL     1       6.272   5.345  16.215  0.00  0.00    +0.000 A 
ATOM     10  C   UNL     1       5.219   4.434  16.004  0.00  0.00    +0.000 A 
ATOM     11  C   UNL     1       5.091   3.719  14.809  0.00  0.00    +0.000 A 
BRANCH   6  12
ATOM     12  C   UNL     1       5.911   3.123  12.497  0.00  0.00    +0.000 C 
BRANCH  12  14
ATOM     13  C   UNL     1       3.955   3.259  11.200  0.00  0.00    +0.000 C 
ATOM     14  O   UNL     1       5.152   3.911  11.585  0.00  0.00    +0.000 OA
ENDBRANCH  12  14
ENDBRANCH   6  12
ENDBRANCH   1   9
BRANCH   5  15
ATOM     15  C   UNL     1       4.641   5.113  19.185  0.00  0.00    +0.000 A 
ATOM     16  C   UNL     1       4.433   3.735  19.283  0.00  0.00    +0.000 A 
ATOM     17  C   UNL     1       3.177   3.221  19.599  0.00  0.00    +0.000 A 
ATOM     18  C   UNL     1       2.105   4.077  19.831  0.00  0.00    +0.000 A 
ATOM     19  C   UNL     1       2.299   5.455  19.741  0.00  0.00    +0.000 A 
ATOM     20  C   UNL     1       3.569   5.972  19.442  0.00  0.00    +0.000 A 
BRANCH  18  21
ATOM     21  O   UNL     1       0.917   3.453  20.088  0.00  0.00    +0.000 OA
ATOM     22  C   UNL     1       0.561   2.420  19.179  0.00  0.00    +0.000 C 
ENDBRANCH  18  21
ENDBRANCH   5  15
BRANCH   2  23
ATOM     23  C   UNL     1       8.449   7.528  18.511  0.00  0.00    +0.000 C 
BRANCH  23  24
ATOM     24  C   UNL     1       7.682   8.645  17.797  0.00  0.00    +0.000 C 
BRANCH  24  25
ATOM     25  C   UNL     1       8.647   9.708  17.277  0.00  0.00    +0.000 C 
BRANCH  25  26
ATOM     26  C   UNL     1       8.967  10.744  18.324  0.00  0.00    +0.000 A 
ATOM     27  C   UNL     1       9.387  10.350  19.601  0.00  0.00    +0.000 A 
ATOM     28  C   UNL     1       9.665  11.305  20.579  0.00  0.00    +0.000 A 
ATOM     29  C   UNL     1       9.525  12.660  20.290  0.00  0.00    +0.000 A 
ATOM     30  C   UNL     1       9.108  13.063  19.022  0.00  0.00    +0.000 A 
ATOM     31  C   UNL     1       8.825  12.108  18.044  0.00  0.00    +0.000 A 
ENDBRANCH  25  26
ENDBRANCH  24  25
ENDBRANCH  23  24
ENDBRANCH   2  23
TORSDOF 9
ENDMDL
