MODEL 1
REMARK VINA RESULT:      -7.7      0.000      0.000
REMARK  Name = 
REMARK  6 active torsions:
REMARK  status: ('A' for Active; 'I' for Inactive)
REMARK    1  A    between atoms: C_1  and  N_2
REMARK    2  A    between atoms: C_5  and  C_6
REMARK    3  A    between atoms: C_13  and  C_14
REMARK    4  A    between atoms: C_14  and  S_15
REMARK    5  A    between atoms: S_15  and  C_16
REMARK    6  A    between atoms: C_16  and  C_17
REMARK                            x       y       z     vdW  Elec       q    Type
REMARK                         _______ _______ _______ _____ _____    ______ ____
ROOT
ATOM      1  C   UNL     1       1.981   3.763  21.312  0.00  0.00    +0.000 C 
ATOM      2  N   UNL     1       2.860   4.167  20.217  0.00  0.00    +0.000 NA
ATOM      3  C   UNL     1       3.853   3.119  19.956  0.00  0.00    +0.000 C 
ATOM      4  C   UNL     1       4.833   3.564  18.878  0.00  0.00    +0.000 C 
ATOM      5  C   UNL     1       4.116   3.981  17.577  0.00  0.00    +0.000 C 
ATOM      6  C   UNL     1       3.006   5.036  17.873  0.00  0.00    +0.000 C 
ATOM      7  C   UNL     1       2.094   4.470  18.998  0.00  0.00    +0.000 C 
ENDROOT
BRANCH   5   8
ATOM      8  C   UNL     1       5.097   4.320  16.459  0.00  0.00    +0.000 A 
ATOM      9  C   UNL     1       6.412   4.709  16.769  0.00  0.00    +0.000 A 
ATOM     10  C   UNL     1       7.329   4.999  15.751  0.00  0.00    +0.000 A 
ATOM     11  C   UNL     1       6.951   4.875  14.415  0.00  0.00    +0.000 A 
ATOM     12 CL   UNL     1       8.071   5.238  13.162  0.00  0.00    +0.000 Cl
ATOM     13  C   UNL     1       5.670   4.452  14.086  0.00  0.00    +0.000 A 
ATOM     14  C   UNL     1       4.749   4.192  15.100  0.00  0.00    +0.000 A 
ENDBRANCH   5   8
BRANCH   6  15
ATOM     15  C   UNL     1       3.496   6.450  18.274  0.00  0.00    +0.000 C 
BRANCH  15  16
ATOM     16  S   UNL     1       2.222   7.724  17.970  0.00  0.00    +0.000 S 
BRANCH  16  17
ATOM     17  C   UNL     1       1.844   8.237  19.667  0.00  0.00    +0.000 C 
BRANCH  17  18
ATOM     18  C   UNL     1       0.993   9.493  19.628  0.00  0.00    +0.000 C 
ATOM     19  O   UNL     1       0.890  10.123  18.579  0.00  0.00    +0.000 OA
ATOM     20  N   UNL     1       0.411   9.918  20.827  0.00  0.00    +0.000 N 
ATOM     21  C   UNL     1      -0.281  11.196  20.756  0.00  0.00    +0.000 C 
ATOM     22  C   UNL     1      -0.510  11.833  22.122  0.00  0.00    +0.000 C 
ATOM     23  C   UNL     1      -1.183  10.846  23.067  0.00  0.00    +0.000 C 
ATOM     24  C   UNL     1      -0.302   9.612  23.215  0.00  0.00    +0.000 C 
ATOM     25  C   UNL     1      -0.028   8.967  21.859  0.00  0.00    +0.000 C 
ENDBRANCH  17  18
ENDBRANCH  16  17
ENDBRANCH  15  16
ENDBRANCH   6  15
TORSDOF 5
ENDMDL
MODEL 2
REMARK VINA RESULT:      -7.4      0.313      1.003
REMARK  Name = 
REMARK  6 active torsions:
REMARK  status: ('A' for Active; 'I' for Inactive)
REMARK    1  A    between atoms: C_1  and  N_2
REMARK    2  A    between atoms: C_5  and  C_6
REMARK    3  A    between atoms: C_13  and  C_14
REMARK    4  A    between atoms: C_14  and  S_15
REMARK    5  A    between atoms: S_15  and  C_16
REMARK    6  A    between atoms: C_16  and  C_17
REMARK                            x       y       z     vdW  Elec       q    Type
REMARK                         _______ _______ _______ _____ _____    ______ ____
ROOT
ATOM      1  C   UNL     1       1.570   4.082  20.954  0.00  0.00    +0.000 C 
ATOM      2  N   UNL     1       2.555   4.398  19.922  0.00  0.00    +0.000 NA
ATOM      3  C   UNL     1       3.416   3.236  19.675  0.00  0.00    +0.000 C 
ATOM      4  C   UNL     1       4.505   3.579  18.667  0.00  0.00    +0.000 C 
ATOM      5  C   UNL     1       3.923   4.127  17.347  0.00  0.00    +0.000 C 
ATOM      6  C   UNL     1       2.947   5.311  17.624  0.00  0.00    +0.000 C 
ATOM      7  C   UNL     1       1.906   4.838  18.677  0.00  0.00    +0.000 C 
ENDROOT
BRANCH   5   8
ATOM      8  C   UNL     1       5.002   4.366  16.295  0.00  0.00    +0.000 A 
ATOM      9  C   UNL     1       4.774   4.002  14.957  0.00  0.00    +0.000 A 
ATOM     10  C   UNL     1       5.747   4.237  13.978  0.00  0.00    +0.000 A 
ATOM     11  C   UNL     1       6.944   4.864  14.319  0.00  0.00    +0.000 A 
ATOM     12 CL   UNL     1       8.145   5.148  13.122  0.00  0.00    +0.000 Cl
ATOM     13  C   UNL     1       7.174   5.270  15.627  0.00  0.00    +0.000 A 
ATOM     14  C   UNL     1       6.217   5.008  16.608  0.00  0.00    +0.000 A 
ENDBRANCH   5   8
BRANCH   6  15
ATOM     15  C   UNL     1       3.594   6.634  18.103  0.00  0.00    +0.000 C 
BRANCH  15  16
ATOM     16  S   UNL     1       2.495   8.068  17.831  0.00  0.00    +0.000 S 
BRANCH  16  17
ATOM     17  C   UNL     1       1.864   8.333  19.509  0.00  0.00    +0.000 C 
BRANCH  17  18
ATOM     18  C   UNL     1       0.985   9.571  19.519  0.00  0.00    +0.000 C 
ATOM     19  O   UNL     1       0.851  10.228  18.491  0.00  0.00    +0.000 OA
ATOM     20  N   UNL     1       0.412   9.948  20.739  0.00  0.00    +0.000 N 
ATOM     21  C   UNL     1      -0.309  11.212  20.715  0.00  0.00    +0.000 C 
ATOM     22  C   UNL     1      -0.531  11.804  22.103  0.00  0.00    +0.000 C 
ATOM     23  C   UNL     1      -1.167  10.776  23.029  0.00  0.00    +0.000 C 
ATOM     24  C   UNL     1      -0.257   9.558  23.127  0.00  0.00    +0.000 C 
ATOM     25  C   UNL     1       0.010   8.958  21.749  0.00  0.00    +0.000 C 
ENDBRANCH  17  18
ENDBRANCH  16  17
ENDBRANCH  15  16
ENDBRANCH   6  15
TORSDOF 5
ENDMDL
MODEL 3
REMARK VINA RESULT:      -7.1      3.862      8.327
REMARK  Name = 
REMARK  6 active torsions:
REMARK  status: ('A' for Active; 'I' for Inactive)
REMARK    1  A    between atoms: C_1  and  N_2
REMARK    2  A    between atoms: C_5  and  C_6
REMARK    3  A    between atoms: C_13  and  C_14
REMARK    4  A    between atoms: C_14  and  S_15
REMARK    5  A    between atoms: S_15  and  C_16
REMARK    6  A    between atoms: C_16  and  C_17
REMARK                            x       y       z     vdW  Elec       q    Type
REMARK                         _______ _______ _______ _____ _____    ______ ____
ROOT
ATOM      1  C   UNL     1       3.636   1.442  18.309  0.00  0.00    +0.000 C 
ATOM      2  N   UNL     1       3.463   2.893  18.280  0.00  0.00    +0.000 NA
ATOM      3  C   UNL     1       2.057   3.228  18.033  0.00  0.00    +0.000 C 
ATOM      4  C   UNL     1       1.876   4.736  17.910  0.00  0.00    +0.000 C 
ATOM      5  C   UNL     1       2.416   5.488  19.144  0.00  0.00    +0.000 C 
ATOM      6  C   UNL     1       3.886   5.068  19.448  0.00  0.00    +0.000 C 
ATOM      7  C   UNL     1       3.934   3.515  19.527  0.00  0.00    +0.000 C 
ENDROOT
BRANCH   5   8
ATOM      8  C   UNL     1       2.137   6.987  19.075  0.00  0.00    +0.000 A 
ATOM      9  C   UNL     1       2.296   7.678  17.861  0.00  0.00    +0.000 A 
ATOM     10  C   UNL     1       2.020   9.048  17.779  0.00  0.00    +0.000 A 
ATOM     11  C   UNL     1       1.555   9.735  18.899  0.00  0.00    +0.000 A 
ATOM     12 CL   UNL     1       1.223  11.420  18.805  0.00  0.00    +0.000 Cl
ATOM     13  C   UNL     1       1.351   9.064  20.098  0.00  0.00    +0.000 A 
ATOM     14  C   UNL     1       1.655   7.706  20.186  0.00  0.00    +0.000 A 
ENDBRANCH   5   8
BRANCH   6  15
ATOM     15  C   UNL     1       4.960   5.562  18.447  0.00  0.00    +0.000 C 
BRANCH  15  16
ATOM     16  S   UNL     1       6.492   4.570  18.545  0.00  0.00    +0.000 S 
BRANCH  16  17
ATOM     17  C   UNL     1       7.219   4.908  16.920  0.00  0.00    +0.000 C 
BRANCH  17  18
ATOM     18  C   UNL     1       6.371   4.246  15.849  0.00  0.00    +0.000 C 
ATOM     19  O   UNL     1       5.400   3.571  16.177  0.00  0.00    +0.000 OA
ATOM     20  N   UNL     1       6.784   4.384  14.519  0.00  0.00    +0.000 N 
ATOM     21  C   UNL     1       6.011   3.619  13.553  0.00  0.00    +0.000 C 
ATOM     22  C   UNL     1       6.728   3.432  12.220  0.00  0.00    +0.000 C 
ATOM     23  C   UNL     1       7.201   4.773  11.674  0.00  0.00    +0.000 C 
ATOM     24  C   UNL     1       8.142   5.422  12.681  0.00  0.00    +0.000 C 
ATOM     25  C   UNL     1       7.464   5.595  14.037  0.00  0.00    +0.000 C 
ENDBRANCH  17  18
ENDBRANCH  16  17
ENDBRANCH  15  16
ENDBRANCH   6  15
TORSDOF 5
ENDMDL
MODEL 4
REMARK VINA RESULT:      -7.1      1.047      1.609
REMARK  Name = 
REMARK  6 active torsions:
REMARK  status: ('A' for Active; 'I' for Inactive)
REMARK    1  A    between atoms: C_1  and  N_2
REMARK    2  A    between atoms: C_5  and  C_6
REMARK    3  A    between atoms: C_13  and  C_14
REMARK    4  A    between atoms: C_14  and  S_15
REMARK    5  A    between atoms: S_15  and  C_16
REMARK    6  A    between atoms: C_16  and  C_17
REMARK                            x       y       z     vdW  Elec       q    Type
REMARK                         _______ _______ _______ _____ _____    ______ ____
ROOT
ATOM      1  C   UNL     1       1.678   3.046  21.656  0.00  0.00    +0.000 C 
ATOM      2  N   UNL     1       2.605   3.528  20.634  0.00  0.00    +0.000 NA
ATOM      3  C   UNL     1       3.536   2.460  20.255  0.00  0.00    +0.000 C 
ATOM      4  C   UNL     1       4.565   2.974  19.256  0.00  0.00    +0.000 C 
ATOM      5  C   UNL     1       3.904   3.600  18.011  0.00  0.00    +0.000 C 
ATOM      6  C   UNL     1       2.856   4.678  18.424  0.00  0.00    +0.000 C 
ATOM      7  C   UNL     1       1.886   4.033  19.454  0.00  0.00    +0.000 C 
ENDROOT
BRANCH   5   8
ATOM      8  C   UNL     1       4.929   4.014  16.959  0.00  0.00    +0.000 A 
ATOM      9  C   UNL     1       4.544   4.146  15.613  0.00  0.00    +0.000 A 
ATOM     10  C   UNL     1       5.469   4.548  14.642  0.00  0.00    +0.000 A 
ATOM     11  C   UNL     1       6.779   4.851  15.010  0.00  0.00    +0.000 A 
ATOM     12 CL   UNL     1       7.921   5.337  13.819  0.00  0.00    +0.000 Cl
ATOM     13  C   UNL     1       7.171   4.767  16.339  0.00  0.00    +0.000 A 
ATOM     14  C   UNL     1       6.257   4.337  17.301  0.00  0.00    +0.000 A 
ENDBRANCH   5   8
BRANCH   6  15
ATOM     15  C   UNL     1       3.425   5.994  19.010  0.00  0.00    +0.000 C 
BRANCH  15  16
ATOM     16  S   UNL     1       2.936   7.449  18.018  0.00  0.00    +0.000 S 
BRANCH  16  17
ATOM     17  C   UNL     1       1.854   8.310  19.189  0.00  0.00    +0.000 C 
BRANCH  17  18
ATOM     18  C   UNL     1       1.454   9.651  18.602  0.00  0.00    +0.000 C 
ATOM     19  O   UNL     1       1.824   9.952  17.471  0.00  0.00    +0.000 OA
ATOM     20  N   UNL     1       0.725  10.524  19.418  0.00  0.00    +0.000 N 
ATOM     21  C   UNL     1       0.487  11.841  18.849  0.00  0.00    +0.000 C 
ATOM     22  C   UNL     1       0.100  12.886  19.892  0.00  0.00    +0.000 C 
ATOM     23  C   UNL     1      -1.060  12.388  20.744  0.00  0.00    +0.000 C 
ATOM     24  C   UNL     1      -0.655  11.093  21.436  0.00  0.00    +0.000 C 
ATOM     25  C   UNL     1      -0.232  10.035  20.421  0.00  0.00    +0.000 C 
ENDBRANCH  17  18
ENDBRANCH  16  17
ENDBRANCH  15  16
ENDBRANCH   6  15
TORSDOF 5
ENDMDL
MODEL 5
REMARK VINA RESULT:      -7.1      2.060      2.384
REMARK  Name = 
REMARK  6 active torsions:
REMARK  status: ('A' for Active; 'I' for Inactive)
REMARK    1  A    between atoms: C_1  and  N_2
REMARK    2  A    between atoms: C_5  and  C_6
REMARK    3  A    between atoms: C_13  and  C_14
REMARK    4  A    between atoms: C_14  and  S_15
REMARK    5  A    between atoms: S_15  and  C_16
REMARK    6  A    between atoms: C_16  and  C_17
REMARK                            x       y       z     vdW  Elec       q    Type
REMARK                         _______ _______ _______ _____ _____    ______ ____
ROOT
ATOM      1  C   UNL     1       0.691   1.810  18.789  0.00  0.00    +0.000 C 
ATOM      2  N   UNL     1       1.750   2.816  18.825  0.00  0.00    +0.000 NA
ATOM      3  C   UNL     1       3.060   2.173  18.680  0.00  0.00    +0.000 C 
ATOM      4  C   UNL     1       4.180   3.199  18.806  0.00  0.00    +0.000 C 
ATOM      5  C   UNL     1       4.019   4.360  17.803  0.00  0.00    +0.000 C 
ATOM      6  C   UNL     1       2.595   4.987  17.907  0.00  0.00    +0.000 C 
ATOM      7  C   UNL     1       1.555   3.838  17.785  0.00  0.00    +0.000 C 
ENDROOT
BRANCH   5   8
ATOM      8  C   UNL     1       5.196   5.330  17.849  0.00  0.00    +0.000 A 
ATOM      9  C   UNL     1       5.190   6.483  17.045  0.00  0.00    +0.000 A 
ATOM     10  C   UNL     1       6.253   7.393  17.096  0.00  0.00    +0.000 A 
ATOM     11  C   UNL     1       7.317   7.177  17.970  0.00  0.00    +0.000 A 
ATOM     12 CL   UNL     1       8.628   8.287  18.029  0.00  0.00    +0.000 Cl
ATOM     13  C   UNL     1       7.324   6.066  18.802  0.00  0.00    +0.000 A 
ATOM     14  C   UNL     1       6.279   5.144  18.730  0.00  0.00    +0.000 A 
ENDBRANCH   5   8
BRANCH   6  15
ATOM     15  C   UNL     1       2.302   5.808  19.187  0.00  0.00    +0.000 C 
BRANCH  15  16
ATOM     16  S   UNL     1       2.410   7.607  18.883  0.00  0.00    +0.000 S 
BRANCH  16  17
ATOM     17  C   UNL     1       1.580   8.251  20.360  0.00  0.00    +0.000 C 
BRANCH  17  18
ATOM     18  C   UNL     1       0.856   9.536  20.002  0.00  0.00    +0.000 C 
ATOM     19  O   UNL     1       0.942   9.983  18.862  0.00  0.00    +0.000 OA
ATOM     20  N   UNL     1       0.168  10.198  21.025  0.00  0.00    +0.000 N 
ATOM     21  C   UNL     1      -0.392  11.489  20.654  0.00  0.00    +0.000 C 
ATOM     22  C   UNL     1      -0.733  12.364  21.856  0.00  0.00    +0.000 C 
ATOM     23  C   UNL     1      -1.605  11.601  22.844  0.00  0.00    +0.000 C 
ATOM     24  C   UNL     1      -0.864  10.354  23.308  0.00  0.00    +0.000 C 
ATOM     25  C   UNL     1      -0.480   9.469  22.125  0.00  0.00    +0.000 C 
ENDBRANCH  17  18
ENDBRANCH  16  17
ENDBRANCH  15  16
ENDBRANCH   6  15
TORSDOF 5
ENDMDL
MODEL 6
REMARK VINA RESULT:      -7.0      3.736      8.305
REMARK  Name = 
REMARK  6 active torsions:
REMARK  status: ('A' for Active; 'I' for Inactive)
REMARK    1  A    between atoms: C_1  and  N_2
REMARK    2  A    between atoms: C_5  and  C_6
REMARK    3  A    between atoms: C_13  and  C_14
REMARK    4  A    between atoms: C_14  and  S_15
REMARK    5  A    between atoms: S_15  and  C_16
REMARK    6  A    between atoms: C_16  and  C_17
REMARK                            x       y       z     vdW  Elec       q    Type
REMARK                         _______ _______ _______ _____ _____    ______ ____
ROOT
ATOM      1  C   UNL     1       3.953   1.720  19.091  0.00  0.00    +0.000 C 
ATOM      2  N   UNL     1       3.565   3.110  18.858  0.00  0.00    +0.000 NA
ATOM      3  C   UNL     1       2.176   3.322  19.277  0.00  0.00    +0.000 C 
ATOM      4  C   UNL     1       1.728   4.742  18.957  0.00  0.00    +0.000 C 
ATOM      5  C   UNL     1       2.662   5.800  19.580  0.00  0.00    +0.000 C 
ATOM      6  C   UNL     1       4.147   5.522  19.196  0.00  0.00    +0.000 C 
ATOM      7  C   UNL     1       4.465   4.043  19.553  0.00  0.00    +0.000 C 
ENDROOT
BRANCH   5   8
ATOM      8  C   UNL     1       2.155   7.222  19.356  0.00  0.00    +0.000 A 
ATOM      9  C   UNL     1       1.589   7.944  20.421  0.00  0.00    +0.000 A 
ATOM     10  C   UNL     1       1.142   9.258  20.235  0.00  0.00    +0.000 A 
ATOM     11  C   UNL     1       1.283   9.873  18.992  0.00  0.00    +0.000 A 
ATOM     12 CL   UNL     1       0.728  11.484  18.756  0.00  0.00    +0.000 Cl
ATOM     13  C   UNL     1       1.877   9.193  17.937  0.00  0.00    +0.000 A 
ATOM     14  C   UNL     1       2.294   7.875  18.115  0.00  0.00    +0.000 A 
ENDBRANCH   5   8
BRANCH   6  15
ATOM     15  C   UNL     1       4.532   5.785  17.718  0.00  0.00    +0.000 C 
BRANCH  15  16
ATOM     16  S   UNL     1       6.299   6.213  17.540  0.00  0.00    +0.000 S 
BRANCH  16  17
ATOM     17  C   UNL     1       6.978   4.626  16.988  0.00  0.00    +0.000 C 
BRANCH  17  18
ATOM     18  C   UNL     1       6.139   4.101  15.837  0.00  0.00    +0.000 C 
ATOM     19  O   UNL     1       5.099   3.493  16.072  0.00  0.00    +0.000 OA
ATOM     20  N   UNL     1       6.635   4.281  14.540  0.00  0.00    +0.000 N 
ATOM     21  C   UNL     1       5.857   3.642  13.491  0.00  0.00    +0.000 C 
ATOM     22  C   UNL     1       6.629   3.474  12.186  0.00  0.00    +0.000 C 
ATOM     23  C   UNL     1       7.239   4.800  11.750  0.00  0.00    +0.000 C 
ATOM     24  C   UNL     1       8.173   5.306  12.842  0.00  0.00    +0.000 C 
ATOM     25  C   UNL     1       7.437   5.456  14.170  0.00  0.00    +0.000 C 
ENDBRANCH  17  18
ENDBRANCH  16  17
ENDBRANCH  15  16
ENDBRANCH   6  15
TORSDOF 5
ENDMDL
MODEL 7
REMARK VINA RESULT:      -6.9      3.815      8.597
REMARK  Name = 
REMARK  6 active torsions:
REMARK  status: ('A' for Active; 'I' for Inactive)
REMARK    1  A    between atoms: C_1  and  N_2
REMARK    2  A    between atoms: C_5  and  C_6
REMARK    3  A    between atoms: C_13  and  C_14
REMARK    4  A    between atoms: C_14  and  S_15
REMARK    5  A    between atoms: S_15  and  C_16
REMARK    6  A    between atoms: C_16  and  C_17
REMARK                            x       y       z     vdW  Elec       q    Type
REMARK                         _______ _______ _______ _____ _____    ______ ____
ROOT
ATOM      1  C   UNL     1       3.502   1.709  18.124  0.00  0.00    +0.000 C 
ATOM      2  N   UNL     1       3.235   3.135  18.294  0.00  0.00    +0.000 NA
ATOM      3  C   UNL     1       1.789   3.371  18.373  0.00  0.00    +0.000 C 
ATOM      4  C   UNL     1       1.491   4.862  18.461  0.00  0.00    +0.000 C 
ATOM      5  C   UNL     1       2.226   5.533  19.639  0.00  0.00    +0.000 C 
ATOM      6  C   UNL     1       3.751   5.212  19.595  0.00  0.00    +0.000 C 
ATOM      7  C   UNL     1       3.913   3.669  19.485  0.00  0.00    +0.000 C 
ENDROOT
BRANCH   5   8
ATOM      8  C   UNL     1       1.844   7.001  19.799  0.00  0.00    +0.000 A 
ATOM      9  C   UNL     1       1.905   7.869  18.694  0.00  0.00    +0.000 A 
ATOM     10  C   UNL     1       1.534   9.214  18.822  0.00  0.00    +0.000 A 
ATOM     11  C   UNL     1       1.070   9.697  20.044  0.00  0.00    +0.000 A 
ATOM     12 CL   UNL     1       0.621  11.349  20.207  0.00  0.00    +0.000 Cl
ATOM     13  C   UNL     1       0.962   8.848  21.138  0.00  0.00    +0.000 A 
ATOM     14  C   UNL     1       1.360   7.516  21.018  0.00  0.00    +0.000 A 
ENDBRANCH   5   8
BRANCH   6  15
ATOM     15  C   UNL     1       4.561   5.893  18.463  0.00  0.00    +0.000 C 
BRANCH  15  16
ATOM     16  S   UNL     1       6.109   4.994  18.097  0.00  0.00    +0.000 S 
BRANCH  16  17
ATOM     17  C   UNL     1       5.782   4.432  16.406  0.00  0.00    +0.000 C 
BRANCH  17  18
ATOM     18  C   UNL     1       6.850   4.988  15.482  0.00  0.00    +0.000 C 
ATOM     19  O   UNL     1       7.691   5.764  15.926  0.00  0.00    +0.000 OA
ATOM     20  N   UNL     1       6.784   4.635  14.129  0.00  0.00    +0.000 N 
ATOM     21  C   UNL     1       7.752   5.303  13.272  0.00  0.00    +0.000 C 
ATOM     22  C   UNL     1       7.383   5.250  11.793  0.00  0.00    +0.000 C 
ATOM     23  C   UNL     1       7.099   3.818  11.363  0.00  0.00    +0.000 C 
ATOM     24  C   UNL     1       5.954   3.260  12.200  0.00  0.00    +0.000 C 
ATOM     25  C   UNL     1       6.280   3.326  13.690  0.00  0.00    +0.000 C 
ENDBRANCH  17  18
ENDBRANCH  16  17
ENDBRANCH  15  16
ENDBRANCH   6  15
TORSDOF 5
ENDMDL
MODEL 8
REMARK VINA RESULT:      -6.9      3.566      8.423
REMARK  Name = 
REMARK  6 active torsions:
REMARK  status: ('A' for Active; 'I' for Inactive)
REMARK    1  A    between atoms: C_1  and  N_2
REMARK    2  A    between atoms: C_5  and  C_6
REMARK    3  A    between atoms: C_13  and  C_14
REMARK    4  A    between atoms: C_14  and  S_15
REMARK    5  A    between atoms: S_15  and  C_16
REMARK    6  A    between atoms: C_16  and  C_17
REMARK                            x       y       z     vdW  Elec       q    Type
REMARK                         _______ _______ _______ _____ _____    ______ ____
ROOT
ATOM      1  C   UNL     1       3.158   2.171  20.246  0.00  0.00    +0.000 C 
ATOM      2  N   UNL     1       2.740   3.521  19.873  0.00  0.00    +0.000 NA
ATOM      3  C   UNL     1       1.693   3.994  20.786  0.00  0.00    +0.000 C 
ATOM      4  C   UNL     1       1.184   5.364  20.357  0.00  0.00    +0.000 C 
ATOM      5  C   UNL     1       2.323   6.397  20.239  0.00  0.00    +0.000 C 
ATOM      6  C   UNL     1       3.469   5.855  19.331  0.00  0.00    +0.000 C 
ATOM      7  C   UNL     1       3.879   4.452  19.863  0.00  0.00    +0.000 C 
ENDROOT
BRANCH   5   8
ATOM      8  C   UNL     1       1.804   7.795  19.918  0.00  0.00    +0.000 A 
ATOM      9  C   UNL     1       1.195   8.568  20.922  0.00  0.00    +0.000 A 
ATOM     10  C   UNL     1       0.736   9.862  20.647  0.00  0.00    +0.000 A 
ATOM     11  C   UNL     1       0.908  10.408  19.376  0.00  0.00    +0.000 A 
ATOM     12 CL   UNL     1       0.338  11.993  19.031  0.00  0.00    +0.000 Cl
ATOM     13  C   UNL     1       1.543   9.678  18.380  0.00  0.00    +0.000 A 
ATOM     14  C   UNL     1       1.973   8.378  18.647  0.00  0.00    +0.000 A 
ENDBRANCH   5   8
BRANCH   6  15
ATOM     15  C   UNL     1       3.154   5.756  17.818  0.00  0.00    +0.000 C 
BRANCH  15  16
ATOM     16  S   UNL     1       4.510   6.426  16.793  0.00  0.00    +0.000 S 
BRANCH  16  17
ATOM     17  C   UNL     1       5.597   4.981  16.683  0.00  0.00    +0.000 C 
BRANCH  17  18
ATOM     18  C   UNL     1       6.770   5.309  15.776  0.00  0.00    +0.000 C 
ATOM     19  O   UNL     1       7.685   6.009  16.199  0.00  0.00    +0.000 OA
ATOM     20  N   UNL     1       6.717   4.846  14.456  0.00  0.00    +0.000 N 
ATOM     21  C   UNL     1       7.801   5.304  13.601  0.00  0.00    +0.000 C 
ATOM     22  C   UNL     1       7.493   5.164  12.113  0.00  0.00    +0.000 C 
ATOM     23  C   UNL     1       7.041   3.746  11.791  0.00  0.00    +0.000 C 
ATOM     24  C   UNL     1       5.797   3.417  12.608  0.00  0.00    +0.000 C 
ATOM     25  C   UNL     1       6.063   3.578  14.102  0.00  0.00    +0.000 C 
ENDBRANCH  17  18
ENDBRANCH  16  17
ENDBRANCH  15  16
ENDBRANCH   6  15
TORSDOF 5
ENDMDL
MODEL 9
REMARK VINA RESULT:      -6.9      1.830      2.242
REMARK  Name = 
REMARK  6 active torsions:
REMARK  status: ('A' for Active; 'I' for Inactive)
REMARK    1  A    between atoms: C_1  and  N_2
REMARK    2  A    between atoms: C_5  and  C_6
REMARK    3  A    between atoms: C_13  and  C_14
REMARK    4  A    between atoms: C_14  and  S_15
REMARK    5  A    between atoms: S_15  and  C_16
REMARK    6  A    between atoms: C_16  and  C_17
REMARK                            x       y       z     vdW  Elec       q    Type
REMARK                         _______ _______ _______ _____ _____    ______ ____
ROOT
ATOM      1  C   UNL     1       1.574   3.492  21.240  0.00  0.00    +0.000 C 
ATOM      2  N   UNL     1       2.540   3.911  20.226  0.00  0.00    +0.000 NA
ATOM      3  C   UNL     1       3.416   2.789  19.872  0.00  0.00    +0.000 C 
ATOM      4  C   UNL     1       4.486   3.233  18.883  0.00  0.00    +0.000 C 
ATOM      5  C   UNL     1       3.878   3.879  17.621  0.00  0.00    +0.000 C 
ATOM      6  C   UNL     1       2.886   5.019  18.007  0.00  0.00    +0.000 C 
ATOM      7  C   UNL     1       1.867   4.441  19.030  0.00  0.00    +0.000 C 
ENDROOT
BRANCH   5   8
ATOM      8  C   UNL     1       4.938   4.224  16.580  0.00  0.00    +0.000 A 
ATOM      9  C   UNL     1       4.616   4.200  15.212  0.00  0.00    +0.000 A 
ATOM     10  C   UNL     1       5.574   4.537  14.247  0.00  0.00    +0.000 A 
ATOM     11  C   UNL     1       6.853   4.929  14.640  0.00  0.00    +0.000 A 
ATOM     12 CL   UNL     1       8.034   5.335  13.459  0.00  0.00    +0.000 Cl
ATOM     13  C   UNL     1       7.181   4.999  15.988  0.00  0.00    +0.000 A 
ATOM     14  C   UNL     1       6.235   4.634  16.946  0.00  0.00    +0.000 A 
ENDBRANCH   5   8
BRANCH   6  15
ATOM     15  C   UNL     1       3.518   6.308  18.588  0.00  0.00    +0.000 C 
BRANCH  15  16
ATOM     16  S   UNL     1       2.254   7.449  19.251  0.00  0.00    +0.000 S 
BRANCH  16  17
ATOM     17  C   UNL     1       1.759   8.321  17.741  0.00  0.00    +0.000 C 
BRANCH  17  18
ATOM     18  C   UNL     1       1.606   9.799  18.050  0.00  0.00    +0.000 C 
ATOM     19  O   UNL     1       2.605  10.507  18.134  0.00  0.00    +0.000 OA
ATOM     20  N   UNL     1       0.314  10.279  18.293  0.00  0.00    +0.000 N 
ATOM     21  C   UNL     1       0.245  11.670  18.713  0.00  0.00    +0.000 C 
ATOM     22  C   UNL     1      -1.077  12.031  19.384  0.00  0.00    +0.000 C 
ATOM     23  C   UNL     1      -2.252  11.616  18.510  0.00  0.00    +0.000 C 
ATOM     24  C   UNL     1      -2.191  10.113  18.266  0.00  0.00    +0.000 C 
ATOM     25  C   UNL     1      -0.865   9.714  17.622  0.00  0.00    +0.000 C 
ENDBRANCH  17  18
ENDBRANCH  16  17
ENDBRANCH  15  16
ENDBRANCH   6  15
TORSDOF 5
ENDMDL
