MODEL 1
REMARK VINA RESULT:      -7.7      0.000      0.000
REMARK  Name = 
REMARK  15 active torsions:
REMARK  status: ('A' for Active; 'I' for Inactive)
REMARK    1  A    between atoms: C_1  and  C_2
REMARK    2  A    between atoms: C_2  and  C_3
REMARK    3  A    between atoms: C_3  and  C_4
REMARK    4  A    between atoms: C_4  and  C_5
REMARK    5  A    between atoms: C_5  and  N_6
REMARK    6  A    between atoms: N_9  and  C_10
REMARK    7  A    between atoms: C_11  and  O_12
REMARK    8  A    between atoms: O_12  and  C_13
REMARK    9  A    between atoms: C_13  and  C_14
REMARK   10  A    between atoms: C_14  and  C_15
REMARK   11  A    between atoms: C_15  and  N_16
REMARK   12  A    between atoms: C_19  and  C_20
REMARK   13  A    between atoms: C_30  and  N_31
REMARK   14  A    between atoms: N_31  and  C_32
REMARK   15  A    between atoms: N_31  and  C_33
REMARK                            x       y       z     vdW  Elec       q    Type
REMARK                         _______ _______ _______ _____ _____    ______ ____
ROOT
ATOM      1  C   UNL     1       3.616   4.595  19.083  0.00  0.00    +0.000 A 
ATOM      2  C   UNL     1       3.001   5.294  18.010  0.00  0.00    +0.000 A 
ATOM      3  C   UNL     1       1.745   4.886  17.549  0.00  0.00    +0.000 A 
ATOM      4  C   UNL     1       1.116   3.780  18.103  0.00  0.00    +0.000 A 
ATOM      5  C   UNL     1       1.741   3.073  19.130  0.00  0.00    +0.000 A 
ATOM      6  C   UNL     1       2.995   3.450  19.660  0.00  0.00    +0.000 A 
ENDROOT
BRANCH   1  10
ATOM      7  N   UNL     1       6.170   4.546  17.945  0.00  0.00    +0.000 N 
ATOM      8  C   UNL     1       6.044   5.074  19.196  0.00  0.00    +0.000 C 
ATOM      9  O   UNL     1       6.981   5.506  19.861  0.00  0.00    +0.000 OA
ATOM     10  N   UNL     1       4.772   5.118  19.691  0.00  0.00    +0.000 N 
ATOM     11  H   UNL     1       5.332   4.569  17.384  0.00  0.00    +0.000 HD
ATOM     12  H   UNL     1       4.669   5.721  20.489  0.00  0.00    +0.000 HD
BRANCH   7  13
ATOM     13  C   UNL     1       7.426   4.505  17.252  0.00  0.00    +0.000 C 
BRANCH  13  14
ATOM     14  C   UNL     1       7.194   4.529  15.747  0.00  0.00    +0.000 C 
BRANCH  14  15
ATOM     15  C   UNL     1       5.855   3.882  15.417  0.00  0.00    +0.000 C 
BRANCH  15  17
ATOM     16  C   UNL     1       6.584   3.868  13.024  0.00  0.00    +0.000 C 
ATOM     17  C   UNL     1       5.436   4.155  13.976  0.00  0.00    +0.000 C 
ENDBRANCH  15  17
ENDBRANCH  14  15
ENDBRANCH  13  14
ENDBRANCH   7  13
ENDBRANCH   1  10
BRANCH   6  18
ATOM     18  N   UNL     1       3.455   2.705  20.763  0.00  0.00    +0.000 N 
ATOM     19  C   UNL     1       2.562   2.282  21.833  0.00  0.00    +0.000 C 
ATOM     20  C   UNL     1       4.496   1.719  20.439  0.00  0.00    +0.000 C 
ENDBRANCH   6  18
BRANCH   2  21
ATOM     21  O   UNL     1       3.435   6.440  17.392  0.00  0.00    +0.000 OA
BRANCH  21  22
ATOM     22  C   UNL     1       3.299   7.707  18.036  0.00  0.00    +0.000 C 
BRANCH  22  23
ATOM     23  C   UNL     1       1.891   8.265  17.914  0.00  0.00    +0.000 C 
BRANCH  23  24
ATOM     24  C   UNL     1       1.890   9.786  17.971  0.00  0.00    +0.000 C 
BRANCH  24  25
ATOM     25  N   UNL     1       0.649  10.297  18.521  0.00  0.00    +0.000 N 
ATOM     26  N   UNL     1       0.567  10.671  19.809  0.00  0.00    +0.000 NA
ATOM     27  C   UNL     1      -0.704  11.074  19.877  0.00  0.00    +0.000 A 
ATOM     28  C   UNL     1      -1.350  10.923  18.623  0.00  0.00    +0.000 A 
ATOM     29  N   UNL     1      -0.456  10.406  17.761  0.00  0.00    +0.000 NA
BRANCH  28  30
ATOM     30  C   UNL     1      -2.725  11.253  18.244  0.00  0.00    +0.000 A 
ATOM     31  C   UNL     1      -3.216  10.946  16.967  0.00  0.00    +0.000 A 
ATOM     32  C   UNL     1      -4.535  11.252  16.619  0.00  0.00    +0.000 A 
ATOM     33  C   UNL     1      -5.381  11.865  17.538  0.00  0.00    +0.000 A 
ATOM     34  C   UNL     1      -4.908  12.177  18.810  0.00  0.00    +0.000 A 
ATOM     35  C   UNL     1      -3.589  11.874  19.160  0.00  0.00    +0.000 A 
ENDBRANCH  28  30
ENDBRANCH  24  25
ENDBRANCH  23  24
ENDBRANCH  22  23
ENDBRANCH  21  22
ENDBRANCH   2  21
TORSDOF 12
ENDMDL
MODEL 2
REMARK VINA RESULT:      -7.7      1.771      4.329
REMARK  Name = 
REMARK  15 active torsions:
REMARK  status: ('A' for Active; 'I' for Inactive)
REMARK    1  A    between atoms: C_1  and  C_2
REMARK    2  A    between atoms: C_2  and  C_3
REMARK    3  A    between atoms: C_3  and  C_4
REMARK    4  A    between atoms: C_4  and  C_5
REMARK    5  A    between atoms: C_5  and  N_6
REMARK    6  A    between atoms: N_9  and  C_10
REMARK    7  A    between atoms: C_11  and  O_12
REMARK    8  A    between atoms: O_12  and  C_13
REMARK    9  A    between atoms: C_13  and  C_14
REMARK   10  A    between atoms: C_14  and  C_15
REMARK   11  A    between atoms: C_15  and  N_16
REMARK   12  A    between atoms: C_19  and  C_20
REMARK   13  A    between atoms: C_30  and  N_31
REMARK   14  A    between atoms: N_31  and  C_32
REMARK   15  A    between atoms: N_31  and  C_33
REMARK                            x       y       z     vdW  Elec       q    Type
REMARK                         _______ _______ _______ _____ _____    ______ ____
ROOT
ATOM      1  C   UNL     1       4.864   5.406  18.473  0.00  0.00    +0.000 A 
ATOM      2  C   UNL     1       3.750   6.197  18.861  0.00  0.00    +0.000 A 
ATOM      3  C   UNL     1       3.276   7.193  18.001  0.00  0.00    +0.000 A 
ATOM      4  C   UNL     1       3.909   7.439  16.791  0.00  0.00    +0.000 A 
ATOM      5  C   UNL     1       5.025   6.686  16.430  0.00  0.00    +0.000 A 
ATOM      6  C   UNL     1       5.537   5.649  17.241  0.00  0.00    +0.000 A 
ENDROOT
BRANCH   1  10
ATOM      7  N   UNL     1       3.367   3.048  18.600  0.00  0.00    +0.000 N 
ATOM      8  C   UNL     1       4.497   3.122  19.358  0.00  0.00    +0.000 C 
ATOM      9  O   UNL     1       4.886   2.231  20.108  0.00  0.00    +0.000 OA
ATOM     10  N   UNL     1       5.219   4.273  19.228  0.00  0.00    +0.000 N 
ATOM     11  H   UNL     1       3.354   3.650  17.790  0.00  0.00    +0.000 HD
ATOM     12  H   UNL     1       6.153   4.209  19.595  0.00  0.00    +0.000 HD
BRANCH   7  13
ATOM     13  C   UNL     1       2.544   1.872  18.559  0.00  0.00    +0.000 C 
BRANCH  13  14
ATOM     14  C   UNL     1       1.075   2.258  18.677  0.00  0.00    +0.000 C 
BRANCH  14  15
ATOM     15  C   UNL     1       0.886   3.245  19.821  0.00  0.00    +0.000 C 
BRANCH  15  17
ATOM     16  C   UNL     1       2.174   3.423  21.958  0.00  0.00    +0.000 C 
ATOM     17  C   UNL     1       1.164   2.601  21.175  0.00  0.00    +0.000 C 
ENDBRANCH  15  17
ENDBRANCH  14  15
ENDBRANCH  13  14
ENDBRANCH   7  13
ENDBRANCH   1  10
BRANCH   6  18
ATOM     18  N   UNL     1       6.606   4.906  16.701  0.00  0.00    +0.000 N 
ATOM     19  C   UNL     1       7.766   4.534  17.501  0.00  0.00    +0.000 C 
ATOM     20  C   UNL     1       6.205   3.878  15.731  0.00  0.00    +0.000 C 
ENDBRANCH   6  18
BRANCH   2  21
ATOM     21  O   UNL     1       2.962   6.053  19.976  0.00  0.00    +0.000 OA
BRANCH  21  22
ATOM     22  C   UNL     1       1.791   6.853  20.144  0.00  0.00    +0.000 C 
BRANCH  22  23
ATOM     23  C   UNL     1       1.983   7.937  21.192  0.00  0.00    +0.000 C 
BRANCH  23  24
ATOM     24  C   UNL     1       0.692   8.702  21.441  0.00  0.00    +0.000 C 
BRANCH  24  25
ATOM     25  N   UNL     1       0.303   9.483  20.283  0.00  0.00    +0.000 N 
ATOM     26  N   UNL     1       1.192  10.265  19.647  0.00  0.00    +0.000 NA
ATOM     27  C   UNL     1       0.436  10.768  18.669  0.00  0.00    +0.000 A 
ATOM     28  C   UNL     1      -0.891  10.274  18.751  0.00  0.00    +0.000 A 
ATOM     29  N   UNL     1      -0.958   9.451  19.813  0.00  0.00    +0.000 NA
BRANCH  28  30
ATOM     30  C   UNL     1      -2.036  10.547  17.881  0.00  0.00    +0.000 A 
ATOM     31  C   UNL     1      -3.079  11.385  18.300  0.00  0.00    +0.000 A 
ATOM     32  C   UNL     1      -4.163  11.650  17.456  0.00  0.00    +0.000 A 
ATOM     33  C   UNL     1      -4.218  11.087  16.185  0.00  0.00    +0.000 A 
ATOM     34  C   UNL     1      -3.191  10.252  15.754  0.00  0.00    +0.000 A 
ATOM     35  C   UNL     1      -2.108   9.983  16.597  0.00  0.00    +0.000 A 
ENDBRANCH  28  30
ENDBRANCH  24  25
ENDBRANCH  23  24
ENDBRANCH  22  23
ENDBRANCH  21  22
ENDBRANCH   2  21
TORSDOF 12
ENDMDL
MODEL 3
REMARK VINA RESULT:      -7.4      0.997      1.428
REMARK  Name = 
REMARK  15 active torsions:
REMARK  status: ('A' for Active; 'I' for Inactive)
REMARK    1  A    between atoms: C_1  and  C_2
REMARK    2  A    between atoms: C_2  and  C_3
REMARK    3  A    between atoms: C_3  and  C_4
REMARK    4  A    between atoms: C_4  and  C_5
REMARK    5  A    between atoms: C_5  and  N_6
REMARK    6  A    between atoms: N_9  and  C_10
REMARK    7  A    between atoms: C_11  and  O_12
REMARK    8  A    between atoms: O_12  and  C_13
REMARK    9  A    between atoms: C_13  and  C_14
REMARK   10  A    between atoms: C_14  and  C_15
REMARK   11  A    between atoms: C_15  and  N_16
REMARK   12  A    between atoms: C_19  and  C_20
REMARK   13  A    between atoms: C_30  and  N_31
REMARK   14  A    between atoms: N_31  and  C_32
REMARK   15  A    between atoms: N_31  and  C_33
REMARK                            x       y       z     vdW  Elec       q    Type
REMARK                         _______ _______ _______ _____ _____    ______ ____
ROOT
ATOM      1  C   UNL     1       3.894   4.638  18.609  0.00  0.00    +0.000 A 
ATOM      2  C   UNL     1       2.998   5.668  18.216  0.00  0.00    +0.000 A 
ATOM      3  C   UNL     1       1.641   5.375  18.044  0.00  0.00    +0.000 A 
ATOM      4  C   UNL     1       1.173   4.080  18.215  0.00  0.00    +0.000 A 
ATOM      5  C   UNL     1       2.062   3.065  18.564  0.00  0.00    +0.000 A 
ATOM      6  C   UNL     1       3.438   3.299  18.780  0.00  0.00    +0.000 A 
ENDROOT
BRANCH   1  10
ATOM      7  N   UNL     1       6.135   4.342  16.962  0.00  0.00    +0.000 N 
ATOM      8  C   UNL     1       6.338   4.787  18.235  0.00  0.00    +0.000 C 
ATOM      9  O   UNL     1       7.441   5.043  18.709  0.00  0.00    +0.000 OA
ATOM     10  N   UNL     1       5.211   4.959  18.985  0.00  0.00    +0.000 N 
ATOM     11  H   UNL     1       5.213   4.517  16.590  0.00  0.00    +0.000 HD
ATOM     12  H   UNL     1       5.358   5.508  19.815  0.00  0.00    +0.000 HD
BRANCH   7  13
ATOM     13  C   UNL     1       7.208   4.191  16.021  0.00  0.00    +0.000 C 
BRANCH  13  14
ATOM     14  C   UNL     1       6.891   4.953  14.740  0.00  0.00    +0.000 C 
BRANCH  14  15
ATOM     15  C   UNL     1       5.704   4.313  14.033  0.00  0.00    +0.000 C 
BRANCH  15  17
ATOM     16  C   UNL     1       4.994   3.285  11.866  0.00  0.00    +0.000 C 
ATOM     17  C   UNL     1       6.143   3.467  12.843  0.00  0.00    +0.000 C 
ENDBRANCH  15  17
ENDBRANCH  14  15
ENDBRANCH  13  14
ENDBRANCH   7  13
ENDBRANCH   1  10
BRANCH   6  18
ATOM     18  N   UNL     1       4.196   2.199  19.227  0.00  0.00    +0.000 N 
ATOM     19  C   UNL     1       4.464   1.973  20.641  0.00  0.00    +0.000 C 
ATOM     20  C   UNL     1       3.984   0.962  18.462  0.00  0.00    +0.000 C 
ENDBRANCH   6  18
BRANCH   2  21
ATOM     21  O   UNL     1       3.264   7.006  18.070  0.00  0.00    +0.000 OA
BRANCH  21  22
ATOM     22  C   UNL     1       2.258   7.896  17.584  0.00  0.00    +0.000 C 
BRANCH  22  23
ATOM     23  C   UNL     1       1.731   8.815  18.674  0.00  0.00    +0.000 C 
BRANCH  23  24
ATOM     24  C   UNL     1       2.004  10.276  18.348  0.00  0.00    +0.000 C 
BRANCH  24  25
ATOM     25  N   UNL     1       0.809  11.085  18.491  0.00  0.00    +0.000 N 
ATOM     26  N   UNL     1       0.877  12.339  18.971  0.00  0.00    +0.000 NA
ATOM     27  C   UNL     1      -0.406  12.701  18.921  0.00  0.00    +0.000 A 
ATOM     28  C   UNL     1      -1.210  11.647  18.414  0.00  0.00    +0.000 A 
ATOM     29  N   UNL     1      -0.402  10.604  18.154  0.00  0.00    +0.000 NA
BRANCH  28  30
ATOM     30  C   UNL     1      -2.653  11.616  18.177  0.00  0.00    +0.000 A 
ATOM     31  C   UNL     1      -3.559  11.997  19.177  0.00  0.00    +0.000 A 
ATOM     32  C   UNL     1      -4.937  11.977  18.936  0.00  0.00    +0.000 A 
ATOM     33  C   UNL     1      -5.427  11.581  17.696  0.00  0.00    +0.000 A 
ATOM     34  C   UNL     1      -4.541  11.198  16.692  0.00  0.00    +0.000 A 
ATOM     35  C   UNL     1      -3.164  11.215  16.932  0.00  0.00    +0.000 A 
ENDBRANCH  28  30
ENDBRANCH  24  25
ENDBRANCH  23  24
ENDBRANCH  22  23
ENDBRANCH  21  22
ENDBRANCH   2  21
TORSDOF 12
ENDMDL
MODEL 4
REMARK VINA RESULT:      -7.4      1.335      1.762
REMARK  Name = 
REMARK  15 active torsions:
REMARK  status: ('A' for Active; 'I' for Inactive)
REMARK    1  A    between atoms: C_1  and  C_2
REMARK    2  A    between atoms: C_2  and  C_3
REMARK    3  A    between atoms: C_3  and  C_4
REMARK    4  A    between atoms: C_4  and  C_5
REMARK    5  A    between atoms: C_5  and  N_6
REMARK    6  A    between atoms: N_9  and  C_10
REMARK    7  A    between atoms: C_11  and  O_12
REMARK    8  A    between atoms: O_12  and  C_13
REMARK    9  A    between atoms: C_13  and  C_14
REMARK   10  A    between atoms: C_14  and  C_15
REMARK   11  A    between atoms: C_15  and  N_16
REMARK   12  A    between atoms: C_19  and  C_20
REMARK   13  A    between atoms: C_30  and  N_31
REMARK   14  A    between atoms: N_31  and  C_32
REMARK   15  A    between atoms: N_31  and  C_33
REMARK                            x       y       z     vdW  Elec       q    Type
REMARK                         _______ _______ _______ _____ _____    ______ ____
ROOT
ATOM      1  C   UNL     1       3.383   4.856  19.712  0.00  0.00    +0.000 A 
ATOM      2  C   UNL     1       2.327   5.778  19.942  0.00  0.00    +0.000 A 
ATOM      3  C   UNL     1       1.052   5.302  20.266  0.00  0.00    +0.000 A 
ATOM      4  C   UNL     1       0.803   3.938  20.325  0.00  0.00    +0.000 A 
ATOM      5  C   UNL     1       1.833   3.036  20.062  0.00  0.00    +0.000 A 
ATOM      6  C   UNL     1       3.148   3.451  19.756  0.00  0.00    +0.000 A 
ENDROOT
BRANCH   1  10
ATOM      7  N   UNL     1       4.689   5.325  17.284  0.00  0.00    +0.000 N 
ATOM      8  C   UNL     1       5.398   5.516  18.432  0.00  0.00    +0.000 C 
ATOM      9  O   UNL     1       6.577   5.858  18.467  0.00  0.00    +0.000 OA
ATOM     10  N   UNL     1       4.706   5.319  19.592  0.00  0.00    +0.000 N 
ATOM     11  H   UNL     1       3.687   5.407  17.381  0.00  0.00    +0.000 HD
ATOM     12  H   UNL     1       5.163   5.695  20.405  0.00  0.00    +0.000 HD
BRANCH   7  13
ATOM     13  C   UNL     1       5.247   5.573  15.985  0.00  0.00    +0.000 C 
BRANCH  13  14
ATOM     14  C   UNL     1       6.015   4.349  15.504  0.00  0.00    +0.000 C 
BRANCH  14  15
ATOM     15  C   UNL     1       5.522   3.935  14.123  0.00  0.00    +0.000 C 
BRANCH  15  17
ATOM     16  C   UNL     1       6.369   3.164  11.899  0.00  0.00    +0.000 C 
ATOM     17  C   UNL     1       6.599   4.117  13.060  0.00  0.00    +0.000 C 
ENDBRANCH  15  17
ENDBRANCH  14  15
ENDBRANCH  13  14
ENDBRANCH   7  13
ENDBRANCH   1  10
BRANCH   6  18
ATOM     18  N   UNL     1       4.108   2.430  19.614  0.00  0.00    +0.000 N 
ATOM     19  C   UNL     1       4.748   1.810  20.766  0.00  0.00    +0.000 C 
ATOM     20  C   UNL     1       3.842   1.493  18.513  0.00  0.00    +0.000 C 
ENDBRANCH   6  18
BRANCH   2  21
ATOM     21  O   UNL     1       2.400   7.147  19.996  0.00  0.00    +0.000 OA
BRANCH  21  22
ATOM     22  C   UNL     1       2.425   7.920  18.795  0.00  0.00    +0.000 C 
BRANCH  22  23
ATOM     23  C   UNL     1       1.247   8.876  18.704  0.00  0.00    +0.000 C 
BRANCH  23  24
ATOM     24  C   UNL     1       1.053   9.643  20.004  0.00  0.00    +0.000 C 
BRANCH  24  25
ATOM     25  N   UNL     1      -0.061  10.567  19.915  0.00  0.00    +0.000 N 
ATOM     26  N   UNL     1      -0.088  11.689  20.654  0.00  0.00    +0.000 NA
ATOM     27  C   UNL     1      -1.244  12.227  20.259  0.00  0.00    +0.000 A 
ATOM     28  C   UNL     1      -1.881  11.404  19.295  0.00  0.00    +0.000 A 
ATOM     29  N   UNL     1      -1.101  10.326  19.095  0.00  0.00    +0.000 NA
BRANCH  28  30
ATOM     30  C   UNL     1      -3.145  11.615  18.588  0.00  0.00    +0.000 A 
ATOM     31  C   UNL     1      -4.246  12.196  19.234  0.00  0.00    +0.000 A 
ATOM     32  C   UNL     1      -5.446  12.406  18.546  0.00  0.00    +0.000 A 
ATOM     33  C   UNL     1      -5.561  12.044  17.208  0.00  0.00    +0.000 A 
ATOM     34  C   UNL     1      -4.478  11.465  16.553  0.00  0.00    +0.000 A 
ATOM     35  C   UNL     1      -3.279  11.251  17.239  0.00  0.00    +0.000 A 
ENDBRANCH  28  30
ENDBRANCH  24  25
ENDBRANCH  23  24
ENDBRANCH  22  23
ENDBRANCH  21  22
ENDBRANCH   2  21
TORSDOF 12
ENDMDL
MODEL 5
REMARK VINA RESULT:      -7.3      1.830      2.726
REMARK  Name = 
REMARK  15 active torsions:
REMARK  status: ('A' for Active; 'I' for Inactive)
REMARK    1  A    between atoms: C_1  and  C_2
REMARK    2  A    between atoms: C_2  and  C_3
REMARK    3  A    between atoms: C_3  and  C_4
REMARK    4  A    between atoms: C_4  and  C_5
REMARK    5  A    between atoms: C_5  and  N_6
REMARK    6  A    between atoms: N_9  and  C_10
REMARK    7  A    between atoms: C_11  and  O_12
REMARK    8  A    between atoms: O_12  and  C_13
REMARK    9  A    between atoms: C_13  and  C_14
REMARK   10  A    between atoms: C_14  and  C_15
REMARK   11  A    between atoms: C_15  and  N_16
REMARK   12  A    between atoms: C_19  and  C_20
REMARK   13  A    between atoms: C_30  and  N_31
REMARK   14  A    between atoms: N_31  and  C_32
REMARK   15  A    between atoms: N_31  and  C_33
REMARK                            x       y       z     vdW  Elec       q    Type
REMARK                         _______ _______ _______ _____ _____    ______ ____
ROOT
ATOM      1  C   UNL     1       3.513   4.400  19.557  0.00  0.00    +0.000 A 
ATOM      2  C   UNL     1       2.667   5.520  19.778  0.00  0.00    +0.000 A 
ATOM      3  C   UNL     1       1.342   5.317  20.178  0.00  0.00    +0.000 A 
ATOM      4  C   UNL     1       0.838   4.032  20.320  0.00  0.00    +0.000 A 
ATOM      5  C   UNL     1       1.661   2.935  20.066  0.00  0.00    +0.000 A 
ATOM      6  C   UNL     1       3.014   3.072  19.686  0.00  0.00    +0.000 A 
ENDROOT
BRANCH   1  10
ATOM      7  N   UNL     1       4.703   4.974  17.092  0.00  0.00    +0.000 N 
ATOM      8  C   UNL     1       5.522   4.824  18.172  0.00  0.00    +0.000 C 
ATOM      9  O   UNL     1       6.746   4.902  18.125  0.00  0.00    +0.000 OA
ATOM     10  N   UNL     1       4.893   4.591  19.360  0.00  0.00    +0.000 N 
ATOM     11  H   UNL     1       3.755   5.246  17.308  0.00  0.00    +0.000 HD
ATOM     12  H   UNL     1       5.482   4.727  20.163  0.00  0.00    +0.000 HD
BRANCH   7  13
ATOM     13  C   UNL     1       5.202   5.306  15.788  0.00  0.00    +0.000 C 
BRANCH  13  14
ATOM     14  C   UNL     1       5.584   4.039  15.035  0.00  0.00    +0.000 C 
BRANCH  14  15
ATOM     15  C   UNL     1       6.228   4.399  13.703  0.00  0.00    +0.000 C 
BRANCH  15  17
ATOM     16  C   UNL     1       4.798   3.451  11.882  0.00  0.00    +0.000 C 
ATOM     17  C   UNL     1       6.079   3.277  12.681  0.00  0.00    +0.000 C 
ENDBRANCH  15  17
ENDBRANCH  14  15
ENDBRANCH  13  14
ENDBRANCH   7  13
ENDBRANCH   1  10
BRANCH   6  18
ATOM     18  N   UNL     1       3.751   1.877  19.562  0.00  0.00    +0.000 N 
ATOM     19  C   UNL     1       4.028   1.275  18.265  0.00  0.00    +0.000 C 
ATOM     20  C   UNL     1       4.854   1.740  20.524  0.00  0.00    +0.000 C 
ENDBRANCH   6  18
BRANCH   2  21
ATOM     21  O   UNL     1       3.005   6.850  19.755  0.00  0.00    +0.000 OA
BRANCH  21  22
ATOM     22  C   UNL     1       2.034   7.839  19.411  0.00  0.00    +0.000 C 
BRANCH  22  23
ATOM     23  C   UNL     1       2.194   8.326  17.980  0.00  0.00    +0.000 C 
BRANCH  23  24
ATOM     24  C   UNL     1       1.985   9.830  17.880  0.00  0.00    +0.000 C 
BRANCH  24  25
ATOM     25  N   UNL     1       0.703  10.227  18.427  0.00  0.00    +0.000 N 
ATOM     26  N   UNL     1      -0.445   9.884  17.817  0.00  0.00    +0.000 NA
ATOM     27  C   UNL     1      -1.344  10.426  18.642  0.00  0.00    +0.000 A 
ATOM     28  C   UNL     1      -0.705  11.085  19.724  0.00  0.00    +0.000 A 
ATOM     29  N   UNL     1       0.624  10.954  19.558  0.00  0.00    +0.000 NA
BRANCH  28  30
ATOM     30  C   UNL     1      -1.300  11.792  20.858  0.00  0.00    +0.000 A 
ATOM     31  C   UNL     1      -1.126  11.329  22.170  0.00  0.00    +0.000 A 
ATOM     32  C   UNL     1      -1.688  12.019  23.250  0.00  0.00    +0.000 A 
ATOM     33  C   UNL     1      -2.426  13.179  23.035  0.00  0.00    +0.000 A 
ATOM     34  C   UNL     1      -2.609  13.651  21.738  0.00  0.00    +0.000 A 
ATOM     35  C   UNL     1      -2.051  12.962  20.657  0.00  0.00    +0.000 A 
ENDBRANCH  28  30
ENDBRANCH  24  25
ENDBRANCH  23  24
ENDBRANCH  22  23
ENDBRANCH  21  22
ENDBRANCH   2  21
TORSDOF 12
ENDMDL
MODEL 6
REMARK VINA RESULT:      -7.3      1.708      4.170
REMARK  Name = 
REMARK  15 active torsions:
REMARK  status: ('A' for Active; 'I' for Inactive)
REMARK    1  A    between atoms: C_1  and  C_2
REMARK    2  A    between atoms: C_2  and  C_3
REMARK    3  A    between atoms: C_3  and  C_4
REMARK    4  A    between atoms: C_4  and  C_5
REMARK    5  A    between atoms: C_5  and  N_6
REMARK    6  A    between atoms: N_9  and  C_10
REMARK    7  A    between atoms: C_11  and  O_12
REMARK    8  A    between atoms: O_12  and  C_13
REMARK    9  A    between atoms: C_13  and  C_14
REMARK   10  A    between atoms: C_14  and  C_15
REMARK   11  A    between atoms: C_15  and  N_16
REMARK   12  A    between atoms: C_19  and  C_20
REMARK   13  A    between atoms: C_30  and  N_31
REMARK   14  A    between atoms: N_31  and  C_32
REMARK   15  A    between atoms: N_31  and  C_33
REMARK                            x       y       z     vdW  Elec       q    Type
REMARK                         _______ _______ _______ _____ _____    ______ ____
ROOT
ATOM      1  C   UNL     1       5.031   5.545  18.460  0.00  0.00    +0.000 A 
ATOM      2  C   UNL     1       3.922   6.373  18.780  0.00  0.00    +0.000 A 
ATOM      3  C   UNL     1       3.489   7.335  17.862  0.00  0.00    +0.000 A 
ATOM      4  C   UNL     1       4.159   7.513  16.660  0.00  0.00    +0.000 A 
ATOM      5  C   UNL     1       5.270   6.724  16.365  0.00  0.00    +0.000 A 
ATOM      6  C   UNL     1       5.741   5.718  17.236  0.00  0.00    +0.000 A 
ENDROOT
BRANCH   1  10
ATOM      7  N   UNL     1       3.614   3.134  18.488  0.00  0.00    +0.000 N 
ATOM      8  C   UNL     1       4.655   3.268  19.359  0.00  0.00    +0.000 C 
ATOM      9  O   UNL     1       4.993   2.408  20.167  0.00  0.00    +0.000 OA
ATOM     10  N   UNL     1       5.344   4.443  19.276  0.00  0.00    +0.000 N 
ATOM     11  H   UNL     1       3.665   3.718  17.666  0.00  0.00    +0.000 HD
ATOM     12  H   UNL     1       6.236   4.422  19.741  0.00  0.00    +0.000 HD
BRANCH   7  13
ATOM     13  C   UNL     1       2.843   1.927  18.391  0.00  0.00    +0.000 C 
BRANCH  13  14
ATOM     14  C   UNL     1       1.357   2.258  18.345  0.00  0.00    +0.000 C 
BRANCH  14  15
ATOM     15  C   UNL     1       0.763   2.179  19.745  0.00  0.00    +0.000 C 
BRANCH  15  17
ATOM     16  C   UNL     1       1.853   3.228  21.738  0.00  0.00    +0.000 C 
ATOM     17  C   UNL     1       0.975   3.474  20.522  0.00  0.00    +0.000 C 
ENDBRANCH  15  17
ENDBRANCH  14  15
ENDBRANCH  13  14
ENDBRANCH   7  13
ENDBRANCH   1  10
BRANCH   6  18
ATOM     18  N   UNL     1       6.810   4.932  16.762  0.00  0.00    +0.000 N 
ATOM     19  C   UNL     1       7.902   4.513  17.630  0.00  0.00    +0.000 C 
ATOM     20  C   UNL     1       6.427   3.921  15.767  0.00  0.00    +0.000 C 
ENDBRANCH   6  18
BRANCH   2  21
ATOM     21  O   UNL     1       3.102   6.295  19.878  0.00  0.00    +0.000 OA
BRANCH  21  22
ATOM     22  C   UNL     1       1.762   6.784  19.818  0.00  0.00    +0.000 C 
BRANCH  22  23
ATOM     23  C   UNL     1       1.447   7.736  20.960  0.00  0.00    +0.000 C 
BRANCH  23  24
ATOM     24  C   UNL     1       1.762   9.177  20.584  0.00  0.00    +0.000 C 
BRANCH  24  25
ATOM     25  N   UNL     1       0.561   9.910  20.234  0.00  0.00    +0.000 N 
ATOM     26  N   UNL     1       0.074  10.865  21.044  0.00  0.00    +0.000 NA
ATOM     27  C   UNL     1      -0.992  11.270  20.349  0.00  0.00    +0.000 A 
ATOM     28  C   UNL     1      -1.115  10.538  19.140  0.00  0.00    +0.000 A 
ATOM     29  N   UNL     1      -0.103   9.652  19.092  0.00  0.00    +0.000 NA
BRANCH  28  30
ATOM     30  C   UNL     1      -2.116  10.664  18.081  0.00  0.00    +0.000 A 
ATOM     31  C   UNL     1      -1.952  10.010  16.851  0.00  0.00    +0.000 A 
ATOM     32  C   UNL     1      -2.921  10.125  15.849  0.00  0.00    +0.000 A 
ATOM     33  C   UNL     1      -4.065  10.888  16.061  0.00  0.00    +0.000 A 
ATOM     34  C   UNL     1      -4.242  11.545  17.276  0.00  0.00    +0.000 A 
ATOM     35  C   UNL     1      -3.273  11.434  18.278  0.00  0.00    +0.000 A 
ENDBRANCH  28  30
ENDBRANCH  24  25
ENDBRANCH  23  24
ENDBRANCH  22  23
ENDBRANCH  21  22
ENDBRANCH   2  21
TORSDOF 12
ENDMDL
MODEL 7
REMARK VINA RESULT:      -7.3      1.162      1.439
REMARK  Name = 
REMARK  15 active torsions:
REMARK  status: ('A' for Active; 'I' for Inactive)
REMARK    1  A    between atoms: C_1  and  C_2
REMARK    2  A    between atoms: C_2  and  C_3
REMARK    3  A    between atoms: C_3  and  C_4
REMARK    4  A    between atoms: C_4  and  C_5
REMARK    5  A    between atoms: C_5  and  N_6
REMARK    6  A    between atoms: N_9  and  C_10
REMARK    7  A    between atoms: C_11  and  O_12
REMARK    8  A    between atoms: O_12  and  C_13
REMARK    9  A    between atoms: C_13  and  C_14
REMARK   10  A    between atoms: C_14  and  C_15
REMARK   11  A    between atoms: C_15  and  N_16
REMARK   12  A    between atoms: C_19  and  C_20
REMARK   13  A    between atoms: C_30  and  N_31
REMARK   14  A    between atoms: N_31  and  C_32
REMARK   15  A    between atoms: N_31  and  C_33
REMARK                            x       y       z     vdW  Elec       q    Type
REMARK                         _______ _______ _______ _____ _____    ______ ____
ROOT
ATOM      1  C   UNL     1       3.892   4.547  18.899  0.00  0.00    +0.000 A 
ATOM      2  C   UNL     1       2.923   5.582  18.812  0.00  0.00    +0.000 A 
ATOM      3  C   UNL     1       1.578   5.293  19.066  0.00  0.00    +0.000 A 
ATOM      4  C   UNL     1       1.179   3.998  19.363  0.00  0.00    +0.000 A 
ATOM      5  C   UNL     1       2.128   2.977  19.410  0.00  0.00    +0.000 A 
ATOM      6  C   UNL     1       3.504   3.207  19.191  0.00  0.00    +0.000 A 
ENDROOT
BRANCH   1  10
ATOM      7  N   UNL     1       5.363   4.896  16.547  0.00  0.00    +0.000 N 
ATOM      8  C   UNL     1       6.030   4.993  17.732  0.00  0.00    +0.000 C 
ATOM      9  O   UNL     1       7.236   5.201  17.830  0.00  0.00    +0.000 OA
ATOM     10  N   UNL     1       5.262   4.861  18.853  0.00  0.00    +0.000 N 
ATOM     11  H   UNL     1       4.373   5.088  16.596  0.00  0.00    +0.000 HD
ATOM     12  H   UNL     1       5.716   5.174  19.693  0.00  0.00    +0.000 HD
BRANCH   7  13
ATOM     13  C   UNL     1       6.010   5.095  15.282  0.00  0.00    +0.000 C 
BRANCH  13  14
ATOM     14  C   UNL     1       6.049   3.787  14.502  0.00  0.00    +0.000 C 
BRANCH  14  15
ATOM     15  C   UNL     1       6.295   4.067  13.026  0.00  0.00    +0.000 C 
BRANCH  15  17
ATOM     16  C   UNL     1       4.465   3.291  11.507  0.00  0.00    +0.000 C 
ATOM     17  C   UNL     1       5.796   2.928  12.143  0.00  0.00    +0.000 C 
ENDBRANCH  15  17
ENDBRANCH  14  15
ENDBRANCH  13  14
ENDBRANCH   7  13
ENDBRANCH   1  10
BRANCH   6  18
ATOM     18  N   UNL     1       4.357   2.101  19.372  0.00  0.00    +0.000 N 
ATOM     19  C   UNL     1       4.848   1.714  20.688  0.00  0.00    +0.000 C 
ATOM     20  C   UNL     1       4.070   0.960  18.491  0.00  0.00    +0.000 C 
ENDBRANCH   6  18
BRANCH   2  21
ATOM     21  O   UNL     1       3.138   6.921  18.603  0.00  0.00    +0.000 OA
BRANCH  21  22
ATOM     22  C   UNL     1       2.178   7.886  19.038  0.00  0.00    +0.000 C 
BRANCH  22  23
ATOM     23  C   UNL     1       1.749   8.815  17.914  0.00  0.00    +0.000 C 
BRANCH  23  24
ATOM     24  C   UNL     1       2.026  10.270  18.262  0.00  0.00    +0.000 C 
BRANCH  24  25
ATOM     25  N   UNL     1       0.802  10.988  18.562  0.00  0.00    +0.000 N 
ATOM     26  N   UNL     1       0.804  12.035  19.403  0.00  0.00    +0.000 NA
ATOM     27  C   UNL     1      -0.483  12.386  19.377  0.00  0.00    +0.000 A 
ATOM     28  C   UNL     1      -1.223  11.530  18.521  0.00  0.00    +0.000 A 
ATOM     29  N   UNL     1      -0.371  10.622  18.012  0.00  0.00    +0.000 NA
BRANCH  28  30
ATOM     30  C   UNL     1      -2.648  11.561  18.187  0.00  0.00    +0.000 A 
ATOM     31  C   UNL     1      -3.103  11.149  16.927  0.00  0.00    +0.000 A 
ATOM     32  C   UNL     1      -4.468  11.169  16.621  0.00  0.00    +0.000 A 
ATOM     33  C   UNL     1      -5.394  11.598  17.567  0.00  0.00    +0.000 A 
ATOM     34  C   UNL     1      -4.957  12.013  18.822  0.00  0.00    +0.000 A 
ATOM     35  C   UNL     1      -3.593  11.996  19.129  0.00  0.00    +0.000 A 
ENDBRANCH  28  30
ENDBRANCH  24  25
ENDBRANCH  23  24
ENDBRANCH  22  23
ENDBRANCH  21  22
ENDBRANCH   2  21
TORSDOF 12
ENDMDL
MODEL 8
REMARK VINA RESULT:      -7.3      3.252      4.290
REMARK  Name = 
REMARK  15 active torsions:
REMARK  status: ('A' for Active; 'I' for Inactive)
REMARK    1  A    between atoms: C_1  and  C_2
REMARK    2  A    between atoms: C_2  and  C_3
REMARK    3  A    between atoms: C_3  and  C_4
REMARK    4  A    between atoms: C_4  and  C_5
REMARK    5  A    between atoms: C_5  and  N_6
REMARK    6  A    between atoms: N_9  and  C_10
REMARK    7  A    between atoms: C_11  and  O_12
REMARK    8  A    between atoms: O_12  and  C_13
REMARK    9  A    between atoms: C_13  and  C_14
REMARK   10  A    between atoms: C_14  and  C_15
REMARK   11  A    between atoms: C_15  and  N_16
REMARK   12  A    between atoms: C_19  and  C_20
REMARK   13  A    between atoms: C_30  and  N_31
REMARK   14  A    between atoms: N_31  and  C_32
REMARK   15  A    between atoms: N_31  and  C_33
REMARK                            x       y       z     vdW  Elec       q    Type
REMARK                         _______ _______ _______ _____ _____    ______ ____
ROOT
ATOM      1  C   UNL     1       3.173   4.837  18.232  0.00  0.00    +0.000 A 
ATOM      2  C   UNL     1       2.542   6.084  18.489  0.00  0.00    +0.000 A 
ATOM      3  C   UNL     1       2.037   6.353  19.766  0.00  0.00    +0.000 A 
ATOM      4  C   UNL     1       2.112   5.397  20.769  0.00  0.00    +0.000 A 
ATOM      5  C   UNL     1       2.698   4.161  20.502  0.00  0.00    +0.000 A 
ATOM      6  C   UNL     1       3.251   3.837  19.243  0.00  0.00    +0.000 A 
ENDROOT
BRANCH   1  10
ATOM      7  N   UNL     1       5.796   5.675  17.745  0.00  0.00    +0.000 N 
ATOM      8  C   UNL     1       5.125   5.069  16.725  0.00  0.00    +0.000 C 
ATOM      9  O   UNL     1       5.590   4.888  15.603  0.00  0.00    +0.000 OA
ATOM     10  N   UNL     1       3.865   4.636  17.024  0.00  0.00    +0.000 N 
ATOM     11  H   UNL     1       5.470   5.442  18.671  0.00  0.00    +0.000 HD
ATOM     12  H   UNL     1       3.490   3.989  16.353  0.00  0.00    +0.000 HD
BRANCH   7  13
ATOM     13  C   UNL     1       7.158   6.110  17.617  0.00  0.00    +0.000 C 
BRANCH  13  14
ATOM     14  C   UNL     1       7.213   7.626  17.483  0.00  0.00    +0.000 C 
BRANCH  14  15
ATOM     15  C   UNL     1       8.416   8.173  18.239  0.00  0.00    +0.000 C 
BRANCH  15  17
ATOM     16  C   UNL     1       9.195  10.257  19.383  0.00  0.00    +0.000 C 
ATOM     17  C   UNL     1       8.490   9.694  18.160  0.00  0.00    +0.000 C 
ENDBRANCH  15  17
ENDBRANCH  14  15
ENDBRANCH  13  14
ENDBRANCH   7  13
ENDBRANCH   1  10
BRANCH   6  18
ATOM     18  N   UNL     1       3.901   2.590  19.150  0.00  0.00    +0.000 N 
ATOM     19  C   UNL     1       4.626   2.014  20.273  0.00  0.00    +0.000 C 
ATOM     20  C   UNL     1       3.192   1.595  18.333  0.00  0.00    +0.000 C 
ENDBRANCH   6  18
BRANCH   2  21
ATOM     21  O   UNL     1       2.440   7.166  17.650  0.00  0.00    +0.000 OA
BRANCH  21  22
ATOM     22  C   UNL     1       2.591   8.492  18.156  0.00  0.00    +0.000 C 
BRANCH  22  23
ATOM     23  C   UNL     1       1.357   9.345  17.909  0.00  0.00    +0.000 C 
BRANCH  23  24
ATOM     24  C   UNL     1       0.765   9.856  19.215  0.00  0.00    +0.000 C 
BRANCH  24  25
ATOM     25  N   UNL     1       0.263  11.209  19.077  0.00  0.00    +0.000 N 
ATOM     26  N   UNL     1      -1.058  11.458  19.073  0.00  0.00    +0.000 NA
ATOM     27  C   UNL     1      -1.067  12.786  18.944  0.00  0.00    +0.000 A 
ATOM     28  C   UNL     1       0.255  13.295  18.868  0.00  0.00    +0.000 A 
ATOM     29  N   UNL     1       1.102  12.253  18.944  0.00  0.00    +0.000 NA
BRANCH  28  30
ATOM     30  C   UNL     1       0.708  14.681  18.740  0.00  0.00    +0.000 A 
ATOM     31  C   UNL     1       2.069  14.987  18.597  0.00  0.00    +0.000 A 
ATOM     32  C   UNL     1       2.490  16.314  18.463  0.00  0.00    +0.000 A 
ATOM     33  C   UNL     1       1.562  17.350  18.465  0.00  0.00    +0.000 A 
ATOM     34  C   UNL     1       0.207  17.063  18.608  0.00  0.00    +0.000 A 
ATOM     35  C   UNL     1      -0.217  15.738  18.745  0.00  0.00    +0.000 A 
ENDBRANCH  28  30
ENDBRANCH  24  25
ENDBRANCH  23  24
ENDBRANCH  22  23
ENDBRANCH  21  22
ENDBRANCH   2  21
TORSDOF 12
ENDMDL
MODEL 9
REMARK VINA RESULT:      -7.2      2.864      3.522
REMARK  Name = 
REMARK  15 active torsions:
REMARK  status: ('A' for Active; 'I' for Inactive)
REMARK    1  A    between atoms: C_1  and  C_2
REMARK    2  A    between atoms: C_2  and  C_3
REMARK    3  A    between atoms: C_3  and  C_4
REMARK    4  A    between atoms: C_4  and  C_5
REMARK    5  A    between atoms: C_5  and  N_6
REMARK    6  A    between atoms: N_9  and  C_10
REMARK    7  A    between atoms: C_11  and  O_12
REMARK    8  A    between atoms: O_12  and  C_13
REMARK    9  A    between atoms: C_13  and  C_14
REMARK   10  A    between atoms: C_14  and  C_15
REMARK   11  A    between atoms: C_15  and  N_16
REMARK   12  A    between atoms: C_19  and  C_20
REMARK   13  A    between atoms: C_30  and  N_31
REMARK   14  A    between atoms: N_31  and  C_32
REMARK   15  A    between atoms: N_31  and  C_33
REMARK                            x       y       z     vdW  Elec       q    Type
REMARK                         _______ _______ _______ _____ _____    ______ ____
ROOT
ATOM      1  C   UNL     1       3.323   4.943  19.664  0.00  0.00    +0.000 A 
ATOM      2  C   UNL     1       2.248   5.827  19.950  0.00  0.00    +0.000 A 
ATOM      3  C   UNL     1       0.999   5.305  20.303  0.00  0.00    +0.000 A 
ATOM      4  C   UNL     1       0.792   3.934  20.336  0.00  0.00    +0.000 A 
ATOM      5  C   UNL     1       1.838   3.070  20.018  0.00  0.00    +0.000 A 
ATOM      6  C   UNL     1       3.130   3.531  19.681  0.00  0.00    +0.000 A 
ENDROOT
BRANCH   1  10
ATOM      7  N   UNL     1       4.616   5.298  17.210  0.00  0.00    +0.000 N 
ATOM      8  C   UNL     1       5.315   5.593  18.344  0.00  0.00    +0.000 C 
ATOM      9  O   UNL     1       6.479   5.982  18.356  0.00  0.00    +0.000 OA
ATOM     10  N   UNL     1       4.627   5.448  19.514  0.00  0.00    +0.000 N 
ATOM     11  H   UNL     1       3.612   5.347  17.301  0.00  0.00    +0.000 HD
ATOM     12  H   UNL     1       5.066   5.895  20.299  0.00  0.00    +0.000 HD
BRANCH   7  13
ATOM     13  C   UNL     1       5.169   5.479  15.898  0.00  0.00    +0.000 C 
BRANCH  13  14
ATOM     14  C   UNL     1       5.399   4.127  15.236  0.00  0.00    +0.000 C 
BRANCH  14  15
ATOM     15  C   UNL     1       6.409   4.266  14.105  0.00  0.00    +0.000 C 
BRANCH  15  17
ATOM     16  C   UNL     1       7.008   3.595  11.771  0.00  0.00    +0.000 C 
ATOM     17  C   UNL     1       5.905   3.627  12.815  0.00  0.00    +0.000 C 
ENDBRANCH  15  17
ENDBRANCH  14  15
ENDBRANCH  13  14
ENDBRANCH   7  13
ENDBRANCH   1  10
BRANCH   6  18
ATOM     18  N   UNL     1       4.114   2.542  19.483  0.00  0.00    +0.000 N 
ATOM     19  C   UNL     1       4.844   1.950  20.596  0.00  0.00    +0.000 C 
ATOM     20  C   UNL     1       3.814   1.592  18.403  0.00  0.00    +0.000 C 
ENDBRANCH   6  18
BRANCH   2  21
ATOM     21  O   UNL     1       2.283   7.196  20.035  0.00  0.00    +0.000 OA
BRANCH  21  22
ATOM     22  C   UNL     1       1.648   7.871  21.121  0.00  0.00    +0.000 C 
BRANCH  22  23
ATOM     23  C   UNL     1       0.598   8.862  20.646  0.00  0.00    +0.000 C 
BRANCH  23  24
ATOM     24  C   UNL     1       1.148   9.777  19.561  0.00  0.00    +0.000 C 
BRANCH  24  25
ATOM     25  N   UNL     1       1.032  11.173  19.934  0.00  0.00    +0.000 N 
ATOM     26  N   UNL     1       0.926  11.538  21.223  0.00  0.00    +0.000 NA
ATOM     27  C   UNL     1       0.859  12.866  21.108  0.00  0.00    +0.000 A 
ATOM     28  C   UNL     1       0.921  13.259  19.746  0.00  0.00    +0.000 A 
ATOM     29  N   UNL     1       1.021  12.143  19.001  0.00  0.00    +0.000 NA
BRANCH  28  30
ATOM     30  C   UNL     1       0.898  14.603  19.169  0.00  0.00    +0.000 A 
ATOM     31  C   UNL     1      -0.311  15.288  18.978  0.00  0.00    +0.000 A 
ATOM     32  C   UNL     1      -0.322  16.578  18.439  0.00  0.00    +0.000 A 
ATOM     33  C   UNL     1       0.870  17.202  18.086  0.00  0.00    +0.000 A 
ATOM     34  C   UNL     1       2.079  16.536  18.267  0.00  0.00    +0.000 A 
ATOM     35  C   UNL     1       2.092  15.245  18.804  0.00  0.00    +0.000 A 
ENDBRANCH  28  30
ENDBRANCH  24  25
ENDBRANCH  23  24
ENDBRANCH  22  23
ENDBRANCH  21  22
ENDBRANCH   2  21
TORSDOF 12
ENDMDL
