MODEL 1
REMARK VINA RESULT:      -8.0      0.000      0.000
REMARK  Name = 
REMARK  10 active torsions:
REMARK  status: ('A' for Active; 'I' for Inactive)
REMARK    1  A    between atoms: C_2  and  C_3
REMARK    2  A    between atoms: C_3  and  N_4
REMARK    3  A    between atoms: N_4  and  C_5
REMARK    4  A    between atoms: N_4  and  C_13
REMARK    5  A    between atoms: C_5  and  C_6
REMARK    6  A    between atoms: C_10  and  N_11
REMARK    7  A    between atoms: C_13  and  C_14
REMARK    8  A    between atoms: C_16  and  N_17
REMARK    9  A    between atoms: C_27  and  O_28
REMARK   10  A    between atoms: C_29  and  O_30
REMARK                            x       y       z     vdW  Elec       q    Type
REMARK                         _______ _______ _______ _____ _____    ______ ____
ROOT
ATOM      1  C   UNL     1       4.119   4.273  18.625  0.00  0.00    +0.000 C 
ATOM      2  O   UNL     1       4.070   5.612  19.162  0.00  0.00    +0.000 OA
ATOM      3  C   UNL     1       2.709   5.922  19.586  0.00  0.00    +0.000 C 
ATOM      4  C   UNL     1       1.840   4.722  19.189  0.00  0.00    +0.000 C 
ATOM      5  C   UNL     1       2.861   3.594  19.161  0.00  0.00    +0.000 C 
ENDROOT
BRANCH   3   6
ATOM      6  N   UNL     1       2.312   7.200  19.022  0.00  0.00    +0.000 N 
ATOM      7  C   UNL     1       2.602   7.655  17.759  0.00  0.00    +0.000 A 
ATOM      8  N   UNL     1       2.204   8.899  17.572  0.00  0.00    +0.000 NA
ATOM      9  C   UNL     1       1.626   9.263  18.770  0.00  0.00    +0.000 A 
ATOM     10  C   UNL     1       1.034  10.460  19.203  0.00  0.00    +0.000 A 
ATOM     11  N   UNL     1       0.920  11.587  18.395  0.00  0.00    +0.000 N 
ATOM     12  N   UNL     1       0.573  10.533  20.473  0.00  0.00    +0.000 NA
ATOM     13  C   UNL     1       0.696   9.442  21.258  0.00  0.00    +0.000 A 
ATOM     14  N   UNL     1       1.258   8.251  20.956  0.00  0.00    +0.000 NA
ATOM     15  C   UNL     1       1.697   8.226  19.689  0.00  0.00    +0.000 A 
ATOM     16  H   UNL     1       1.586  11.586  17.630  0.00  0.00    +0.000 HD
ATOM     17  H   UNL     1       0.842  12.433  18.943  0.00  0.00    +0.000 HD
ENDBRANCH   3   6
BRANCH   4  18
ATOM     18  O   UNL     1       0.806   4.409  20.123  0.00  0.00    +0.000 OA
ATOM     19  H   UNL     1       1.228   4.377  21.006  0.00  0.00    +0.000 HD
ENDBRANCH   4  18
BRANCH   5  20
ATOM     20  O   UNL     1       3.060   3.133  20.514  0.00  0.00    +0.000 OA
ATOM     21  H   UNL     1       2.668   3.782  21.129  0.00  0.00    +0.000 HD
ENDBRANCH   5  20
BRANCH   1  22
ATOM     22  C   UNL     1       4.156   4.260  17.073  0.00  0.00    +0.000 C 
BRANCH  22  23
ATOM     23  N   UNL     1       5.489   4.235  16.406  0.00  0.00    +0.000 NA
BRANCH  23  24
ATOM     24  C   UNL     1       5.443   3.419  15.178  0.00  0.00    +0.000 C 
BRANCH  24  26
ATOM     25  C   UNL     1       6.111   3.562  12.757  0.00  0.00    +0.000 C 
ATOM     26  C   UNL     1       6.240   3.969  14.028  0.00  0.00    +0.000 C 
ENDBRANCH  24  26
ENDBRANCH  23  24
BRANCH  23  27
ATOM     27  C   UNL     1       5.918   5.625  16.075  0.00  0.00    +0.000 C 
BRANCH  27  28
ATOM     28  C   UNL     1       6.775   6.271  17.147  0.00  0.00    +0.000 A 
ATOM     29  C   UNL     1       7.182   7.605  17.027  0.00  0.00    +0.000 A 
ATOM     30  C   UNL     1       8.027   8.168  17.982  0.00  0.00    +0.000 A 
ATOM     31  C   UNL     1       8.498   7.392  19.043  0.00  0.00    +0.000 A 
ATOM     32  C   UNL     1       8.146   6.045  19.152  0.00  0.00    +0.000 A 
ATOM     33  C   UNL     1       7.221   5.519  18.248  0.00  0.00    +0.000 A 
BRANCH  32  34
ATOM     34  N   UNL     1       8.555   5.294  20.261  0.00  0.00    +0.000 N 
ATOM     35  H   UNL     1       9.396   4.753  20.083  0.00  0.00    +0.000 HD
ATOM     36  H   UNL     1       7.817   4.725  20.663  0.00  0.00    +0.000 HD
ENDBRANCH  32  34
ENDBRANCH  27  28
ENDBRANCH  23  27
ENDBRANCH  22  23
ENDBRANCH   1  22
TORSDOF 10
ENDMDL
MODEL 2
REMARK VINA RESULT:      -7.9      1.225      3.482
REMARK  Name = 
REMARK  10 active torsions:
REMARK  status: ('A' for Active; 'I' for Inactive)
REMARK    1  A    between atoms: C_2  and  C_3
REMARK    2  A    between atoms: C_3  and  N_4
REMARK    3  A    between atoms: N_4  and  C_5
REMARK    4  A    between atoms: N_4  and  C_13
REMARK    5  A    between atoms: C_5  and  C_6
REMARK    6  A    between atoms: C_10  and  N_11
REMARK    7  A    between atoms: C_13  and  C_14
REMARK    8  A    between atoms: C_16  and  N_17
REMARK    9  A    between atoms: C_27  and  O_28
REMARK   10  A    between atoms: C_29  and  O_30
REMARK                            x       y       z     vdW  Elec       q    Type
REMARK                         _______ _______ _______ _____ _____    ______ ____
ROOT
ATOM      1  C   UNL     1       4.180   4.596  18.838  0.00  0.00    +0.000 C 
ATOM      2  O   UNL     1       4.069   5.943  19.346  0.00  0.00    +0.000 OA
ATOM      3  C   UNL     1       2.692   6.203  19.751  0.00  0.00    +0.000 C 
ATOM      4  C   UNL     1       1.879   4.960  19.372  0.00  0.00    +0.000 C 
ATOM      5  C   UNL     1       2.947   3.875  19.378  0.00  0.00    +0.000 C 
ENDROOT
BRANCH   3   6
ATOM      6  N   UNL     1       2.247   7.451  19.156  0.00  0.00    +0.000 N 
ATOM      7  C   UNL     1       2.578   7.919  17.908  0.00  0.00    +0.000 A 
ATOM      8  N   UNL     1       2.112   9.134  17.690  0.00  0.00    +0.000 NA
ATOM      9  C   UNL     1       1.446   9.465  18.851  0.00  0.00    +0.000 A 
ATOM     10  C   UNL     1       0.756  10.624  19.241  0.00  0.00    +0.000 A 
ATOM     11  N   UNL     1       0.616  11.738  18.420  0.00  0.00    +0.000 N 
ATOM     12  N   UNL     1       0.220  10.672  20.484  0.00  0.00    +0.000 NA
ATOM     13  C   UNL     1       0.369   9.595  21.282  0.00  0.00    +0.000 A 
ATOM     14  N   UNL     1       1.021   8.440  21.021  0.00  0.00    +0.000 NA
ATOM     15  C   UNL     1       1.531   8.439  19.781  0.00  0.00    +0.000 A 
ATOM     16  H   UNL     1       1.322  11.776  17.693  0.00  0.00    +0.000 HD
ATOM     17  H   UNL     1       0.454  12.579  18.956  0.00  0.00    +0.000 HD
ENDBRANCH   3   6
BRANCH   4  18
ATOM     18  O   UNL     1       0.850   4.622  20.303  0.00  0.00    +0.000 OA
ATOM     19  H   UNL     1       1.124   4.993  21.168  0.00  0.00    +0.000 HD
ENDBRANCH   4  18
BRANCH   5  20
ATOM     20  O   UNL     1       3.152   3.452  20.742  0.00  0.00    +0.000 OA
ATOM     21  H   UNL     1       2.576   2.685  20.924  0.00  0.00    +0.000 HD
ENDBRANCH   5  20
BRANCH   1  22
ATOM     22  C   UNL     1       4.233   4.552  17.287  0.00  0.00    +0.000 C 
BRANCH  22  23
ATOM     23  N   UNL     1       5.573   4.539  16.633  0.00  0.00    +0.000 NA
BRANCH  23  24
ATOM     24  C   UNL     1       6.639   4.347  17.633  0.00  0.00    +0.000 C 
BRANCH  24  26
ATOM     25  C   UNL     1       7.781   6.041  19.102  0.00  0.00    +0.000 C 
ATOM     26  C   UNL     1       7.490   5.561  17.884  0.00  0.00    +0.000 C 
ENDBRANCH  24  26
ENDBRANCH  23  24
BRANCH  23  27
ATOM     27  C   UNL     1       5.631   3.451  15.614  0.00  0.00    +0.000 C 
BRANCH  27  28
ATOM     28  C   UNL     1       6.200   3.894  14.280  0.00  0.00    +0.000 A 
ATOM     29  C   UNL     1       5.761   3.307  13.087  0.00  0.00    +0.000 A 
ATOM     30  C   UNL     1       6.341   3.671  11.873  0.00  0.00    +0.000 A 
ATOM     31  C   UNL     1       7.386   4.597  11.847  0.00  0.00    +0.000 A 
ATOM     32  C   UNL     1       7.873   5.153  13.030  0.00  0.00    +0.000 A 
ATOM     33  C   UNL     1       7.221   4.859  14.229  0.00  0.00    +0.000 A 
BRANCH  32  34
ATOM     34  N   UNL     1       8.866   6.141  12.991  0.00  0.00    +0.000 N 
ATOM     35  H   UNL     1       8.577   7.009  13.434  0.00  0.00    +0.000 HD
ATOM     36  H   UNL     1       9.248   6.299  12.064  0.00  0.00    +0.000 HD
ENDBRANCH  32  34
ENDBRANCH  27  28
ENDBRANCH  23  27
ENDBRANCH  22  23
ENDBRANCH   1  22
TORSDOF 10
ENDMDL
MODEL 3
REMARK VINA RESULT:      -7.9      2.370      7.395
REMARK  Name = 
REMARK  10 active torsions:
REMARK  status: ('A' for Active; 'I' for Inactive)
REMARK    1  A    between atoms: C_2  and  C_3
REMARK    2  A    between atoms: C_3  and  N_4
REMARK    3  A    between atoms: N_4  and  C_5
REMARK    4  A    between atoms: N_4  and  C_13
REMARK    5  A    between atoms: C_5  and  C_6
REMARK    6  A    between atoms: C_10  and  N_11
REMARK    7  A    between atoms: C_13  and  C_14
REMARK    8  A    between atoms: C_16  and  N_17
REMARK    9  A    between atoms: C_27  and  O_28
REMARK   10  A    between atoms: C_29  and  O_30
REMARK                            x       y       z     vdW  Elec       q    Type
REMARK                         _______ _______ _______ _____ _____    ______ ____
ROOT
ATOM      1  C   UNL     1       6.480   5.362  19.248  0.00  0.00    +0.000 C 
ATOM      2  O   UNL     1       6.914   4.407  18.255  0.00  0.00    +0.000 OA
ATOM      3  C   UNL     1       7.318   5.110  17.042  0.00  0.00    +0.000 C 
ATOM      4  C   UNL     1       7.016   6.596  17.272  0.00  0.00    +0.000 C 
ATOM      5  C   UNL     1       7.070   6.693  18.790  0.00  0.00    +0.000 C 
ENDROOT
BRANCH   3   6
ATOM      6  N   UNL     1       6.659   4.504  15.898  0.00  0.00    +0.000 N 
ATOM      7  C   UNL     1       5.652   3.572  15.941  0.00  0.00    +0.000 A 
ATOM      8  N   UNL     1       5.332   3.126  14.741  0.00  0.00    +0.000 NA
ATOM      9  C   UNL     1       6.171   3.805  13.883  0.00  0.00    +0.000 A 
ATOM     10  C   UNL     1       6.327   3.758  12.488  0.00  0.00    +0.000 A 
ATOM     11  N   UNL     1       5.568   2.931  11.666  0.00  0.00    +0.000 N 
ATOM     12  N   UNL     1       7.277   4.534  11.916  0.00  0.00    +0.000 NA
ATOM     13  C   UNL     1       8.020   5.325  12.718  0.00  0.00    +0.000 A 
ATOM     14  N   UNL     1       7.969   5.440  14.063  0.00  0.00    +0.000 NA
ATOM     15  C   UNL     1       7.014   4.655  14.583  0.00  0.00    +0.000 A 
ATOM     16  H   UNL     1       5.164   2.148  12.168  0.00  0.00    +0.000 HD
ATOM     17  H   UNL     1       6.043   2.732  10.796  0.00  0.00    +0.000 HD
ENDBRANCH   3   6
BRANCH   4  18
ATOM     18  O   UNL     1       7.975   7.486  16.701  0.00  0.00    +0.000 OA
ATOM     19  H   UNL     1       8.100   7.203  15.772  0.00  0.00    +0.000 HD
ENDBRANCH   4  18
BRANCH   5  20
ATOM     20  O   UNL     1       8.454   6.808  19.184  0.00  0.00    +0.000 OA
ATOM     21  H   UNL     1       9.009   6.837  18.382  0.00  0.00    +0.000 HD
ENDBRANCH   5  20
BRANCH   1  22
ATOM     22  C   UNL     1       4.933   5.434  19.362  0.00  0.00    +0.000 C 
BRANCH  22  23
ATOM     23  N   UNL     1       4.142   4.263  18.888  0.00  0.00    +0.000 NA
BRANCH  23  24
ATOM     24  C   UNL     1       4.072   3.224  19.932  0.00  0.00    +0.000 C 
BRANCH  24  26
ATOM     25  C   UNL     1       2.138   2.746  21.468  0.00  0.00    +0.000 C 
ATOM     26  C   UNL     1       2.683   2.739  20.243  0.00  0.00    +0.000 C 
ENDBRANCH  24  26
ENDBRANCH  23  24
BRANCH  23  27
ATOM     27  C   UNL     1       2.766   4.697  18.511  0.00  0.00    +0.000 C 
BRANCH  27  28
ATOM     28  C   UNL     1       2.406   6.085  19.005  0.00  0.00    +0.000 A 
ATOM     29  C   UNL     1       1.969   6.284  20.320  0.00  0.00    +0.000 A 
ATOM     30  C   UNL     1       1.573   7.551  20.742  0.00  0.00    +0.000 A 
ATOM     31  C   UNL     1       1.578   8.621  19.844  0.00  0.00    +0.000 A 
ATOM     32  C   UNL     1       1.960   8.433  18.515  0.00  0.00    +0.000 A 
ATOM     33  C   UNL     1       2.449   7.183  18.129  0.00  0.00    +0.000 A 
BRANCH  32  34
ATOM     34  N   UNL     1       2.041   9.524  17.641  0.00  0.00    +0.000 N 
ATOM     35  H   UNL     1       1.238  10.144  17.708  0.00  0.00    +0.000 HD
ATOM     36  H   UNL     1       2.237   9.264  16.680  0.00  0.00    +0.000 HD
ENDBRANCH  32  34
ENDBRANCH  27  28
ENDBRANCH  23  27
ENDBRANCH  22  23
ENDBRANCH   1  22
TORSDOF 10
ENDMDL
MODEL 4
REMARK VINA RESULT:      -7.8      2.517      7.257
REMARK  Name = 
REMARK  10 active torsions:
REMARK  status: ('A' for Active; 'I' for Inactive)
REMARK    1  A    between atoms: C_2  and  C_3
REMARK    2  A    between atoms: C_3  and  N_4
REMARK    3  A    between atoms: N_4  and  C_5
REMARK    4  A    between atoms: N_4  and  C_13
REMARK    5  A    between atoms: C_5  and  C_6
REMARK    6  A    between atoms: C_10  and  N_11
REMARK    7  A    between atoms: C_13  and  C_14
REMARK    8  A    between atoms: C_16  and  N_17
REMARK    9  A    between atoms: C_27  and  O_28
REMARK   10  A    between atoms: C_29  and  O_30
REMARK                            x       y       z     vdW  Elec       q    Type
REMARK                         _______ _______ _______ _____ _____    ______ ____
ROOT
ATOM      1  C   UNL     1       6.598   5.234  19.265  0.00  0.00    +0.000 C 
ATOM      2  O   UNL     1       7.075   4.374  18.207  0.00  0.00    +0.000 OA
ATOM      3  C   UNL     1       7.339   5.167  17.011  0.00  0.00    +0.000 C 
ATOM      4  C   UNL     1       6.898   6.601  17.327  0.00  0.00    +0.000 C 
ATOM      5  C   UNL     1       7.022   6.638  18.844  0.00  0.00    +0.000 C 
ENDROOT
BRANCH   3   6
ATOM      6  N   UNL     1       6.688   4.545  15.873  0.00  0.00    +0.000 N 
ATOM      7  C   UNL     1       5.694   3.599  15.923  0.00  0.00    +0.000 A 
ATOM      8  N   UNL     1       5.379   3.140  14.727  0.00  0.00    +0.000 NA
ATOM      9  C   UNL     1       6.206   3.826  13.862  0.00  0.00    +0.000 A 
ATOM     10  C   UNL     1       6.360   3.773  12.468  0.00  0.00    +0.000 A 
ATOM     11  N   UNL     1       5.612   2.930  11.652  0.00  0.00    +0.000 N 
ATOM     12  N   UNL     1       7.298   4.559  11.889  0.00  0.00    +0.000 NA
ATOM     13  C   UNL     1       8.031   5.365  12.684  0.00  0.00    +0.000 A 
ATOM     14  N   UNL     1       7.981   5.487  14.029  0.00  0.00    +0.000 NA
ATOM     15  C   UNL     1       7.038   4.693  14.556  0.00  0.00    +0.000 A 
ATOM     16  H   UNL     1       5.220   2.145  12.160  0.00  0.00    +0.000 HD
ATOM     17  H   UNL     1       6.089   2.732  10.783  0.00  0.00    +0.000 HD
ENDBRANCH   3   6
BRANCH   4  18
ATOM     18  O   UNL     1       7.727   7.613  16.755  0.00  0.00    +0.000 OA
ATOM     19  H   UNL     1       7.277   8.467  16.915  0.00  0.00    +0.000 HD
ENDBRANCH   4  18
BRANCH   5  20
ATOM     20  O   UNL     1       8.405   6.882  19.176  0.00  0.00    +0.000 OA
ATOM     21  H   UNL     1       8.514   7.825  19.406  0.00  0.00    +0.000 HD
ENDBRANCH   5  20
BRANCH   1  22
ATOM     22  C   UNL     1       5.060   5.136  19.457  0.00  0.00    +0.000 C 
BRANCH  22  23
ATOM     23  N   UNL     1       4.365   3.929  18.926  0.00  0.00    +0.000 NA
BRANCH  23  24
ATOM     24  C   UNL     1       4.245   2.895  19.971  0.00  0.00    +0.000 C 
BRANCH  24  26
ATOM     25  C   UNL     1       2.296   2.840  21.562  0.00  0.00    +0.000 C 
ATOM     26  C   UNL     1       2.833   2.562  20.364  0.00  0.00    +0.000 C 
ENDBRANCH  24  26
ENDBRANCH  23  24
BRANCH  23  27
ATOM     27  C   UNL     1       3.012   4.301  18.422  0.00  0.00    +0.000 C 
BRANCH  27  28
ATOM     28  C   UNL     1       2.664   5.763  18.628  0.00  0.00    +0.000 A 
ATOM     29  C   UNL     1       2.914   6.704  17.622  0.00  0.00    +0.000 A 
ATOM     30  C   UNL     1       2.656   8.055  17.848  0.00  0.00    +0.000 A 
ATOM     31  C   UNL     1       2.180   8.478  19.090  0.00  0.00    +0.000 A 
ATOM     32  C   UNL     1       1.973   7.562  20.123  0.00  0.00    +0.000 A 
ATOM     33  C   UNL     1       2.139   6.202  19.856  0.00  0.00    +0.000 A 
BRANCH  32  34
ATOM     34  N   UNL     1       1.419   7.980  21.339  0.00  0.00    +0.000 N 
ATOM     35  H   UNL     1       0.885   8.841  21.255  0.00  0.00    +0.000 HD
ATOM     36  H   UNL     1       2.089   8.024  22.100  0.00  0.00    +0.000 HD
ENDBRANCH  32  34
ENDBRANCH  27  28
ENDBRANCH  23  27
ENDBRANCH  22  23
ENDBRANCH   1  22
TORSDOF 10
ENDMDL
MODEL 5
REMARK VINA RESULT:      -7.7      0.932      1.283
REMARK  Name = 
REMARK  10 active torsions:
REMARK  status: ('A' for Active; 'I' for Inactive)
REMARK    1  A    between atoms: C_2  and  C_3
REMARK    2  A    between atoms: C_3  and  N_4
REMARK    3  A    between atoms: N_4  and  C_5
REMARK    4  A    between atoms: N_4  and  C_13
REMARK    5  A    between atoms: C_5  and  C_6
REMARK    6  A    between atoms: C_10  and  N_11
REMARK    7  A    between atoms: C_13  and  C_14
REMARK    8  A    between atoms: C_16  and  N_17
REMARK    9  A    between atoms: C_27  and  O_28
REMARK   10  A    between atoms: C_29  and  O_30
REMARK                            x       y       z     vdW  Elec       q    Type
REMARK                         _______ _______ _______ _____ _____    ______ ____
ROOT
ATOM      1  C   UNL     1       4.233   4.210  18.631  0.00  0.00    +0.000 C 
ATOM      2  O   UNL     1       4.148   5.547  19.171  0.00  0.00    +0.000 OA
ATOM      3  C   UNL     1       2.776   5.825  19.581  0.00  0.00    +0.000 C 
ATOM      4  C   UNL     1       1.939   4.608  19.171  0.00  0.00    +0.000 C 
ATOM      5  C   UNL     1       2.985   3.502  19.151  0.00  0.00    +0.000 C 
ENDROOT
BRANCH   3   6
ATOM      6  N   UNL     1       2.357   7.095  19.016  0.00  0.00    +0.000 N 
ATOM      7  C   UNL     1       2.624   7.548  17.747  0.00  0.00    +0.000 A 
ATOM      8  N   UNL     1       2.210   8.786  17.559  0.00  0.00    +0.000 NA
ATOM      9  C   UNL     1       1.645   9.150  18.764  0.00  0.00    +0.000 A 
ATOM     10  C   UNL     1       1.046  10.343  19.199  0.00  0.00    +0.000 A 
ATOM     11  N   UNL     1       0.909  11.464  18.388  0.00  0.00    +0.000 N 
ATOM     12  N   UNL     1       0.602  10.417  20.476  0.00  0.00    +0.000 NA
ATOM     13  C   UNL     1       0.749   9.332  21.264  0.00  0.00    +0.000 A 
ATOM     14  N   UNL     1       1.319   8.145  20.960  0.00  0.00    +0.000 NA
ATOM     15  C   UNL     1       1.740   8.119  19.687  0.00  0.00    +0.000 A 
ATOM     16  H   UNL     1       1.563  11.466  17.613  0.00  0.00    +0.000 HD
ATOM     17  H   UNL     1       0.829  12.312  18.933  0.00  0.00    +0.000 HD
ENDBRANCH   3   6
BRANCH   4  18
ATOM     18  O   UNL     1       0.902   4.269  20.092  0.00  0.00    +0.000 OA
ATOM     19  H   UNL     1       1.102   4.744  20.925  0.00  0.00    +0.000 HD
ENDBRANCH   4  18
BRANCH   5  20
ATOM     20  O   UNL     1       3.179   3.042  20.504  0.00  0.00    +0.000 OA
ATOM     21  H   UNL     1       3.993   3.445  20.862  0.00  0.00    +0.000 HD
ENDBRANCH   5  20
BRANCH   1  22
ATOM     22  C   UNL     1       4.287   4.203  17.079  0.00  0.00    +0.000 C 
BRANCH  22  23
ATOM     23  N   UNL     1       5.628   4.211  16.426  0.00  0.00    +0.000 NA
BRANCH  23  24
ATOM     24  C   UNL     1       5.627   3.359  15.222  0.00  0.00    +0.000 C 
BRANCH  24  26
ATOM     25  C   UNL     1       6.289   3.630  12.810  0.00  0.00    +0.000 C 
ATOM     26  C   UNL     1       5.712   4.109  13.922  0.00  0.00    +0.000 C 
ENDBRANCH  24  26
ENDBRANCH  23  24
BRANCH  23  27
ATOM     27  C   UNL     1       6.008   5.606  16.060  0.00  0.00    +0.000 C 
BRANCH  27  28
ATOM     28  C   UNL     1       6.929   6.272  17.064  0.00  0.00    +0.000 A 
ATOM     29  C   UNL     1       7.471   5.543  18.129  0.00  0.00    +0.000 A 
ATOM     30  C   UNL     1       8.258   6.181  19.086  0.00  0.00    +0.000 A 
ATOM     31  C   UNL     1       8.480   7.558  19.004  0.00  0.00    +0.000 A 
ATOM     32  C   UNL     1       7.905   8.312  17.979  0.00  0.00    +0.000 A 
ATOM     33  C   UNL     1       7.202   7.648  16.972  0.00  0.00    +0.000 A 
BRANCH  32  34
ATOM     34  N   UNL     1       8.197   9.676  17.855  0.00  0.00    +0.000 N 
ATOM     35  H   UNL     1       7.505  10.180  17.308  0.00  0.00    +0.000 HD
ATOM     36  H   UNL     1       9.142   9.864  17.535  0.00  0.00    +0.000 HD
ENDBRANCH  32  34
ENDBRANCH  27  28
ENDBRANCH  23  27
ENDBRANCH  22  23
ENDBRANCH   1  22
TORSDOF 10
ENDMDL
MODEL 6
REMARK VINA RESULT:      -7.6      1.391      2.410
REMARK  Name = 
REMARK  10 active torsions:
REMARK  status: ('A' for Active; 'I' for Inactive)
REMARK    1  A    between atoms: C_2  and  C_3
REMARK    2  A    between atoms: C_3  and  N_4
REMARK    3  A    between atoms: N_4  and  C_5
REMARK    4  A    between atoms: N_4  and  C_13
REMARK    5  A    between atoms: C_5  and  C_6
REMARK    6  A    between atoms: C_10  and  N_11
REMARK    7  A    between atoms: C_13  and  C_14
REMARK    8  A    between atoms: C_16  and  N_17
REMARK    9  A    between atoms: C_27  and  O_28
REMARK   10  A    between atoms: C_29  and  O_30
REMARK                            x       y       z     vdW  Elec       q    Type
REMARK                         _______ _______ _______ _____ _____    ______ ____
ROOT
ATOM      1  C   UNL     1       4.711   2.932  17.802  0.00  0.00    +0.000 C 
ATOM      2  O   UNL     1       4.546   3.616  19.064  0.00  0.00    +0.000 OA
ATOM      3  C   UNL     1       3.172   3.464  19.529  0.00  0.00    +0.000 C 
ATOM      4  C   UNL     1       2.413   2.717  18.426  0.00  0.00    +0.000 C 
ATOM      5  C   UNL     1       3.537   1.959  17.733  0.00  0.00    +0.000 C 
ENDROOT
BRANCH   3   6
ATOM      6  N   UNL     1       2.642   4.768  19.885  0.00  0.00    +0.000 N 
ATOM      7  C   UNL     1       1.816   5.047  20.946  0.00  0.00    +0.000 A 
ATOM      8  N   UNL     1       1.410   6.302  20.948  0.00  0.00    +0.000 NA
ATOM      9  C   UNL     1       2.004   6.861  19.836  0.00  0.00    +0.000 A 
ATOM     10  C   UNL     1       1.947   8.153  19.290  0.00  0.00    +0.000 A 
ATOM     11  N   UNL     1       1.206   9.186  19.855  0.00  0.00    +0.000 N 
ATOM     12  N   UNL     1       2.626   8.403  18.145  0.00  0.00    +0.000 NA
ATOM     13  C   UNL     1       3.333   7.396  17.592  0.00  0.00    +0.000 A 
ATOM     14  N   UNL     1       3.446   6.119  18.018  0.00  0.00    +0.000 NA
ATOM     15  C   UNL     1       2.761   5.921  19.153  0.00  0.00    +0.000 A 
ATOM     16  H   UNL     1       0.466   8.847  20.461  0.00  0.00    +0.000 HD
ATOM     17  H   UNL     1       0.963   9.889  19.171  0.00  0.00    +0.000 HD
ENDBRANCH   3   6
BRANCH   4  18
ATOM     18  O   UNL     1       1.437   1.792  18.905  0.00  0.00    +0.000 OA
ATOM     19  H   UNL     1       0.597   2.012  18.449  0.00  0.00    +0.000 HD
ENDBRANCH   4  18
BRANCH   5  20
ATOM     20  O   UNL     1       3.810   0.764  18.496  0.00  0.00    +0.000 OA
ATOM     21  H   UNL     1       3.575   0.926  19.429  0.00  0.00    +0.000 HD
ENDBRANCH   5  20
BRANCH   1  22
ATOM     22  C   UNL     1       4.713   3.910  16.596  0.00  0.00    +0.000 C 
BRANCH  22  23
ATOM     23  N   UNL     1       5.992   4.105  15.856  0.00  0.00    +0.000 NA
BRANCH  23  24
ATOM     24  C   UNL     1       5.946   3.428  14.546  0.00  0.00    +0.000 C 
BRANCH  24  26
ATOM     25  C   UNL     1       6.920   3.768  12.252  0.00  0.00    +0.000 C 
ATOM     26  C   UNL     1       6.416   4.266  13.390  0.00  0.00    +0.000 C 
ENDBRANCH  24  26
ENDBRANCH  23  24
BRANCH  23  27
ATOM     27  C   UNL     1       6.254   5.560  15.667  0.00  0.00    +0.000 C 
BRANCH  27  28
ATOM     28  C   UNL     1       6.942   6.217  16.849  0.00  0.00    +0.000 A 
ATOM     29  C   UNL     1       7.286   7.573  16.811  0.00  0.00    +0.000 A 
ATOM     30  C   UNL     1       7.981   8.149  17.873  0.00  0.00    +0.000 A 
ATOM     31  C   UNL     1       8.367   7.365  18.963  0.00  0.00    +0.000 A 
ATOM     32  C   UNL     1       8.080   6.000  18.995  0.00  0.00    +0.000 A 
ATOM     33  C   UNL     1       7.298   5.455  17.975  0.00  0.00    +0.000 A 
BRANCH  32  34
ATOM     34  N   UNL     1       8.398   5.237  20.126  0.00  0.00    +0.000 N 
ATOM     35  H   UNL     1       7.732   5.359  20.884  0.00  0.00    +0.000 HD
ATOM     36  H   UNL     1       9.355   5.354  20.441  0.00  0.00    +0.000 HD
ENDBRANCH  32  34
ENDBRANCH  27  28
ENDBRANCH  23  27
ENDBRANCH  22  23
ENDBRANCH   1  22
TORSDOF 10
ENDMDL
MODEL 7
REMARK VINA RESULT:      -7.6      1.934      7.807
REMARK  Name = 
REMARK  10 active torsions:
REMARK  status: ('A' for Active; 'I' for Inactive)
REMARK    1  A    between atoms: C_2  and  C_3
REMARK    2  A    between atoms: C_3  and  N_4
REMARK    3  A    between atoms: N_4  and  C_5
REMARK    4  A    between atoms: N_4  and  C_13
REMARK    5  A    between atoms: C_5  and  C_6
REMARK    6  A    between atoms: C_10  and  N_11
REMARK    7  A    between atoms: C_13  and  C_14
REMARK    8  A    between atoms: C_16  and  N_17
REMARK    9  A    between atoms: C_27  and  O_28
REMARK   10  A    between atoms: C_29  and  O_30
REMARK                            x       y       z     vdW  Elec       q    Type
REMARK                         _______ _______ _______ _____ _____    ______ ____
ROOT
ATOM      1  C   UNL     1       2.788   5.410  18.325  0.00  0.00    +0.000 C 
ATOM      2  O   UNL     1       3.419   4.949  17.111  0.00  0.00    +0.000 OA
ATOM      3  C   UNL     1       4.608   4.171  17.440  0.00  0.00    +0.000 C 
ATOM      4  C   UNL     1       4.775   4.244  18.963  0.00  0.00    +0.000 C 
ATOM      5  C   UNL     1       3.346   4.505  19.420  0.00  0.00    +0.000 C 
ENDROOT
BRANCH   3   6
ATOM      6  N   UNL     1       5.731   4.662  16.661  0.00  0.00    +0.000 N 
ATOM      7  C   UNL     1       6.679   5.562  17.081  0.00  0.00    +0.000 A 
ATOM      8  N   UNL     1       7.510   5.901  16.114  0.00  0.00    +0.000 NA
ATOM      9  C   UNL     1       7.080   5.183  15.018  0.00  0.00    +0.000 A 
ATOM     10  C   UNL     1       7.540   5.124  13.693  0.00  0.00    +0.000 A 
ATOM     11  N   UNL     1       8.629   5.858  13.233  0.00  0.00    +0.000 N 
ATOM     12  N   UNL     1       6.880   4.336  12.812  0.00  0.00    +0.000 NA
ATOM     13  C   UNL     1       5.816   3.636  13.258  0.00  0.00    +0.000 A 
ATOM     14  N   UNL     1       5.278   3.627  14.497  0.00  0.00    +0.000 NA
ATOM     15  C   UNL     1       5.966   4.419  15.333  0.00  0.00    +0.000 A 
ATOM     16  H   UNL     1       8.828   6.665  13.815  0.00  0.00    +0.000 HD
ATOM     17  H   UNL     1       8.586   6.003  12.234  0.00  0.00    +0.000 HD
ENDBRANCH   3   6
BRANCH   4  18
ATOM     18  O   UNL     1       5.256   3.040  19.561  0.00  0.00    +0.000 OA
ATOM     19  H   UNL     1       6.224   3.021  19.411  0.00  0.00    +0.000 HD
ENDBRANCH   4  18
BRANCH   5  20
ATOM     20  O   UNL     1       2.647   3.243  19.454  0.00  0.00    +0.000 OA
ATOM     21  H   UNL     1       1.997   3.262  20.182  0.00  0.00    +0.000 HD
ENDBRANCH   5  20
BRANCH   1  22
ATOM     22  C   UNL     1       3.087   6.906  18.615  0.00  0.00    +0.000 C 
BRANCH  22  23
ATOM     23  N   UNL     1       1.936   7.801  18.928  0.00  0.00    +0.000 NA
BRANCH  23  24
ATOM     24  C   UNL     1       1.911   8.134  20.365  0.00  0.00    +0.000 C 
BRANCH  24  26
ATOM     25  C   UNL     1      -0.128   8.820  21.670  0.00  0.00    +0.000 C 
ATOM     26  C   UNL     1       0.595   7.878  21.045  0.00  0.00    +0.000 C 
ENDBRANCH  24  26
ENDBRANCH  23  24
BRANCH  23  27
ATOM     27  C   UNL     1       2.028   9.050  18.119  0.00  0.00    +0.000 C 
BRANCH  27  28
ATOM     28  C   UNL     1       0.823   9.959  18.260  0.00  0.00    +0.000 A 
ATOM     29  C   UNL     1      -0.434   9.556  17.794  0.00  0.00    +0.000 A 
ATOM     30  C   UNL     1      -1.520  10.427  17.863  0.00  0.00    +0.000 A 
ATOM     31  C   UNL     1      -1.349  11.718  18.367  0.00  0.00    +0.000 A 
ATOM     32  C   UNL     1      -0.092  12.158  18.787  0.00  0.00    +0.000 A 
ATOM     33  C   UNL     1       0.965  11.246  18.806  0.00  0.00    +0.000 A 
BRANCH  32  34
ATOM     34  N   UNL     1       0.056  13.425  19.366  0.00  0.00    +0.000 N 
ATOM     35  H   UNL     1       0.195  13.385  20.372  0.00  0.00    +0.000 HD
ATOM     36  H   UNL     1      -0.677  14.078  19.111  0.00  0.00    +0.000 HD
ENDBRANCH  32  34
ENDBRANCH  27  28
ENDBRANCH  23  27
ENDBRANCH  22  23
ENDBRANCH   1  22
TORSDOF 10
ENDMDL
MODEL 8
REMARK VINA RESULT:      -7.6      1.953      7.757
REMARK  Name = 
REMARK  10 active torsions:
REMARK  status: ('A' for Active; 'I' for Inactive)
REMARK    1  A    between atoms: C_2  and  C_3
REMARK    2  A    between atoms: C_3  and  N_4
REMARK    3  A    between atoms: N_4  and  C_5
REMARK    4  A    between atoms: N_4  and  C_13
REMARK    5  A    between atoms: C_5  and  C_6
REMARK    6  A    between atoms: C_10  and  N_11
REMARK    7  A    between atoms: C_13  and  C_14
REMARK    8  A    between atoms: C_16  and  N_17
REMARK    9  A    between atoms: C_27  and  O_28
REMARK   10  A    between atoms: C_29  and  O_30
REMARK                            x       y       z     vdW  Elec       q    Type
REMARK                         _______ _______ _______ _____ _____    ______ ____
ROOT
ATOM      1  C   UNL     1       2.791   5.263  18.427  0.00  0.00    +0.000 C 
ATOM      2  O   UNL     1       3.404   4.863  17.182  0.00  0.00    +0.000 OA
ATOM      3  C   UNL     1       4.580   4.044  17.455  0.00  0.00    +0.000 C 
ATOM      4  C   UNL     1       4.760   4.023  18.978  0.00  0.00    +0.000 C 
ATOM      5  C   UNL     1       3.340   4.284  19.462  0.00  0.00    +0.000 C 
ENDROOT
BRANCH   3   6
ATOM      6  N   UNL     1       5.706   4.559  16.696  0.00  0.00    +0.000 N 
ATOM      7  C   UNL     1       6.653   5.444  17.148  0.00  0.00    +0.000 A 
ATOM      8  N   UNL     1       7.489   5.814  16.196  0.00  0.00    +0.000 NA
ATOM      9  C   UNL     1       7.062   5.132  15.076  0.00  0.00    +0.000 A 
ATOM     10  C   UNL     1       7.528   5.114  13.752  0.00  0.00    +0.000 A 
ATOM     11  N   UNL     1       8.619   5.862  13.320  0.00  0.00    +0.000 N 
ATOM     12  N   UNL     1       6.872   4.355  12.843  0.00  0.00    +0.000 NA
ATOM     13  C   UNL     1       5.806   3.641  13.262  0.00  0.00    +0.000 A 
ATOM     14  N   UNL     1       5.262   3.594  14.499  0.00  0.00    +0.000 NA
ATOM     15  C   UNL     1       5.947   4.358  15.362  0.00  0.00    +0.000 A 
ATOM     16  H   UNL     1       8.816   6.649  13.928  0.00  0.00    +0.000 HD
ATOM     17  H   UNL     1       8.581   6.038  12.326  0.00  0.00    +0.000 HD
ENDBRANCH   3   6
BRANCH   4  18
ATOM     18  O   UNL     1       5.222   2.777  19.499  0.00  0.00    +0.000 OA
ATOM     19  H   UNL     1       4.668   2.580  20.283  0.00  0.00    +0.000 HD
ENDBRANCH   4  18
BRANCH   5  20
ATOM     20  O   UNL     1       2.617   3.036  19.427  0.00  0.00    +0.000 OA
ATOM     21  H   UNL     1       1.739   3.168  19.834  0.00  0.00    +0.000 HD
ENDBRANCH   5  20
BRANCH   1  22
ATOM     22  C   UNL     1       3.122   6.733  18.802  0.00  0.00    +0.000 C 
BRANCH  22  23
ATOM     23  N   UNL     1       1.985   7.682  18.980  0.00  0.00    +0.000 NA
BRANCH  23  24
ATOM     24  C   UNL     1       1.952   8.203  20.359  0.00  0.00    +0.000 C 
BRANCH  24  26
ATOM     25  C   UNL     1       0.115   9.010  21.877  0.00  0.00    +0.000 C 
ATOM     26  C   UNL     1       0.618   8.089  21.042  0.00  0.00    +0.000 C 
ENDBRANCH  24  26
ENDBRANCH  23  24
BRANCH  23  27
ATOM     27  C   UNL     1       2.108   8.810  18.013  0.00  0.00    +0.000 C 
BRANCH  27  28
ATOM     28  C   UNL     1       1.042   9.876  18.179  0.00  0.00    +0.000 A 
ATOM     29  C   UNL     1       1.357  11.119  18.742  0.00  0.00    +0.000 A 
ATOM     30  C   UNL     1       0.356  12.065  18.955  0.00  0.00    +0.000 A 
ATOM     31  C   UNL     1      -0.970  11.763  18.639  0.00  0.00    +0.000 A 
ATOM     32  C   UNL     1      -1.312  10.510  18.126  0.00  0.00    +0.000 A 
ATOM     33  C   UNL     1      -0.291   9.608  17.824  0.00  0.00    +0.000 A 
BRANCH  32  34
ATOM     34  N   UNL     1      -2.631  10.242  17.736  0.00  0.00    +0.000 N 
ATOM     35  H   UNL     1      -3.316  10.772  18.267  0.00  0.00    +0.000 HD
ATOM     36  H   UNL     1      -2.855   9.253  17.710  0.00  0.00    +0.000 HD
ENDBRANCH  32  34
ENDBRANCH  27  28
ENDBRANCH  23  27
ENDBRANCH  22  23
ENDBRANCH   1  22
TORSDOF 10
ENDMDL
MODEL 9
REMARK VINA RESULT:      -7.6      1.412      3.697
REMARK  Name = 
REMARK  10 active torsions:
REMARK  status: ('A' for Active; 'I' for Inactive)
REMARK    1  A    between atoms: C_2  and  C_3
REMARK    2  A    between atoms: C_3  and  N_4
REMARK    3  A    between atoms: N_4  and  C_5
REMARK    4  A    between atoms: N_4  and  C_13
REMARK    5  A    between atoms: C_5  and  C_6
REMARK    6  A    between atoms: C_10  and  N_11
REMARK    7  A    between atoms: C_13  and  C_14
REMARK    8  A    between atoms: C_16  and  N_17
REMARK    9  A    between atoms: C_27  and  O_28
REMARK   10  A    between atoms: C_29  and  O_30
REMARK                            x       y       z     vdW  Elec       q    Type
REMARK                         _______ _______ _______ _____ _____    ______ ____
ROOT
ATOM      1  C   UNL     1       4.475   5.055  18.145  0.00  0.00    +0.000 C 
ATOM      2  O   UNL     1       4.158   6.173  19.002  0.00  0.00    +0.000 OA
ATOM      3  C   UNL     1       2.754   6.110  19.393  0.00  0.00    +0.000 C 
ATOM      4  C   UNL     1       2.140   4.922  18.642  0.00  0.00    +0.000 C 
ATOM      5  C   UNL     1       3.360   4.044  18.399  0.00  0.00    +0.000 C 
ENDROOT
BRANCH   3   6
ATOM      6  N   UNL     1       2.131   7.398  19.148  0.00  0.00    +0.000 N 
ATOM      7  C   UNL     1       2.118   8.081  17.957  0.00  0.00    +0.000 A 
ATOM      8  N   UNL     1       1.572   9.276  18.070  0.00  0.00    +0.000 NA
ATOM      9  C   UNL     1       1.212   9.369  19.398  0.00  0.00    +0.000 A 
ATOM     10  C   UNL     1       0.605  10.397  20.138  0.00  0.00    +0.000 A 
ATOM     11  N   UNL     1       0.225  11.613  19.579  0.00  0.00    +0.000 N 
ATOM     12  N   UNL     1       0.401  10.208  21.463  0.00  0.00    +0.000 NA
ATOM     13  C   UNL     1       0.784   9.032  22.004  0.00  0.00    +0.000 A 
ATOM     14  N   UNL     1       1.386   7.986  21.397  0.00  0.00    +0.000 NA
ATOM     15  C   UNL     1       1.564   8.219  20.088  0.00  0.00    +0.000 A 
ATOM     16  H   UNL     1       0.722  11.818  18.719  0.00  0.00    +0.000 HD
ATOM     17  H   UNL     1       0.176  12.344  20.275  0.00  0.00    +0.000 HD
ENDBRANCH   3   6
BRANCH   4  18
ATOM     18  O   UNL     1       1.167   4.192  19.388  0.00  0.00    +0.000 OA
ATOM     19  H   UNL     1       0.334   4.229  18.873  0.00  0.00    +0.000 HD
ENDBRANCH   4  18
BRANCH   5  20
ATOM     20  O   UNL     1       3.614   3.285  19.599  0.00  0.00    +0.000 OA
ATOM     21  H   UNL     1       2.792   3.240  20.124  0.00  0.00    +0.000 HD
ENDBRANCH   5  20
BRANCH   1  22
ATOM     22  C   UNL     1       4.547   5.460  16.648  0.00  0.00    +0.000 C 
BRANCH  22  23
ATOM     23  N   UNL     1       5.802   6.097  16.156  0.00  0.00    +0.000 NA
BRANCH  23  24
ATOM     24  C   UNL     1       6.321   7.061  17.144  0.00  0.00    +0.000 C 
BRANCH  24  26
ATOM     25  C   UNL     1       7.927   6.389  18.960  0.00  0.00    +0.000 C 
ATOM     26  C   UNL     1       7.683   6.731  17.687  0.00  0.00    +0.000 C 
ENDBRANCH  24  26
ENDBRANCH  23  24
BRANCH  23  27
ATOM     27  C   UNL     1       6.829   5.051  15.879  0.00  0.00    +0.000 C 
BRANCH  27  28
ATOM     28  C   UNL     1       6.989   4.726  14.406  0.00  0.00    +0.000 A 
ATOM     29  C   UNL     1       7.791   5.524  13.582  0.00  0.00    +0.000 A 
ATOM     30  C   UNL     1       7.875   5.258  12.217  0.00  0.00    +0.000 A 
ATOM     31  C   UNL     1       7.131   4.215  11.661  0.00  0.00    +0.000 A 
ATOM     32  C   UNL     1       6.284   3.441  12.456  0.00  0.00    +0.000 A 
ATOM     33  C   UNL     1       6.284   3.652  13.837  0.00  0.00    +0.000 A 
BRANCH  32  34
ATOM     34  N   UNL     1       5.604   2.347  11.908  0.00  0.00    +0.000 N 
ATOM     35  H   UNL     1       6.034   2.001  11.055  0.00  0.00    +0.000 HD
ATOM     36  H   UNL     1       4.607   2.502  11.793  0.00  0.00    +0.000 HD
ENDBRANCH  32  34
ENDBRANCH  27  28
ENDBRANCH  23  27
ENDBRANCH  22  23
ENDBRANCH   1  22
TORSDOF 10
ENDMDL
