MODEL 1
REMARK VINA RESULT:      -6.7      0.000      0.000
REMARK  Name = 
REMARK  9 active torsions:
REMARK  status: ('A' for Active; 'I' for Inactive)
REMARK    1  A    between atoms: N_4  and  C_5
REMARK    2  A    between atoms: C_5  and  C_6
REMARK    3  A    between atoms: C_6  and  C_7
REMARK    4  A    between atoms: C_7  and  C_8
REMARK    5  A    between atoms: C_16  and  C_17
REMARK    6  A    between atoms: C_17  and  C_18
REMARK    7  A    between atoms: C_18  and  O_20
REMARK    8  A    between atoms: C_24  and  C_25
REMARK    9  A    between atoms: C_25  and  C_26
REMARK                            x       y       z     vdW  Elec       q    Type
REMARK                         _______ _______ _______ _____ _____    ______ ____
ROOT
ATOM      1  C   UNL     1      -0.169  10.479  20.468  0.00  0.00    +0.000 C 
ATOM      2  N   UNL     1       1.052  11.273  20.330  0.00  0.00    +0.000 N 
ATOM      3  C   UNL     1       1.694  11.609  19.182  0.00  0.00    +0.000 C 
ATOM      4  O   UNL     1       1.778  10.878  18.197  0.00  0.00    +0.000 OA
ATOM      5  C   UNL     1       2.190  13.042  19.157  0.00  0.00    +0.000 C 
ATOM      6  C   UNL     1       1.634  13.911  20.279  0.00  0.00    +0.000 C 
ATOM      7  O   UNL     1       1.817  13.656  21.471  0.00  0.00    +0.000 OA
ATOM      8  N   UNL     1       0.817  14.947  19.885  0.00  0.00    +0.000 N 
ATOM      9  C   UNL     1       0.357  15.976  20.840  0.00  0.00    +0.000 C 
ATOM     10  C   UNL     1      -1.038  15.567  21.420  0.00  0.00    +0.000 C 
ATOM     11  O   UNL     1      -2.090  15.971  20.926  0.00  0.00    +0.000 OA
ATOM     12  N   UNL     1      -1.014  14.631  22.443  0.00  0.00    +0.000 N 
ATOM     13  C   UNL     1      -2.063  13.594  22.569  0.00  0.00    +0.000 C 
ATOM     14  C   UNL     1      -1.540  12.333  23.324  0.00  0.00    +0.000 C 
ATOM     15  N   UNL     1      -1.568  11.162  22.441  0.00  0.00    +0.000 N 
ATOM     16  C   UNL     1      -0.385  10.602  22.017  0.00  0.00    +0.000 C 
ATOM     17  O   UNL     1       0.540  10.415  22.808  0.00  0.00    +0.000 OA
ATOM     18  H   UNL     1       1.386  11.727  21.188  0.00  0.00    +0.000 HD
ATOM     19  H   UNL     1       0.888  15.221  18.911  0.00  0.00    +0.000 HD
ATOM     20  H   UNL     1      -0.080  14.355  22.743  0.00  0.00    +0.000 HD
ATOM     21  H   UNL     1      -2.413  11.028  21.904  0.00  0.00    +0.000 HD
ENDROOT
BRANCH   1  22
ATOM     22  C   UNL     1      -1.328  11.097  19.649  0.00  0.00    +0.000 C 
BRANCH  22  23
ATOM     23  C   UNL     1      -1.742  10.441  18.329  0.00  0.00    +0.000 C 
BRANCH  23  24
ATOM     24  C   UNL     1      -2.106  11.439  17.235  0.00  0.00    +0.000 C 
BRANCH  24  28
ATOM     25  N   UNL     1      -4.265  10.585  15.535  0.00  0.00    +0.000 NA
ATOM     26  C   UNL     1      -4.464  11.351  16.544  0.00  0.00    +0.000 C 
ATOM     27  N   UNL     1      -5.683  11.798  16.902  0.00  0.00    +0.000 N 
ATOM     28  N   UNL     1      -3.498  11.837  17.351  0.00  0.00    +0.000 N 
ATOM     29  H   UNL     1      -5.158  10.360  15.097  0.00  0.00    +0.000 HD
ATOM     30  H   UNL     1      -6.393  11.703  16.188  0.00  0.00    +0.000 HD
ATOM     31  H   UNL     1      -5.657  12.747  17.255  0.00  0.00    +0.000 HD
ATOM     32  H   UNL     1      -3.778  12.005  18.312  0.00  0.00    +0.000 HD
ENDBRANCH  24  28
ENDBRANCH  23  24
ENDBRANCH  22  23
ENDBRANCH   1  22
BRANCH   9  33
ATOM     33  C   UNL     1       0.230  17.335  20.134  0.00  0.00    +0.000 C 
BRANCH  33  34
ATOM     34  C   UNL     1       0.244  17.210  18.631  0.00  0.00    +0.000 C 
ATOM     35  O   UNL     1       1.231  17.358  17.928  0.00  0.00    +0.000 OA
BRANCH  34  36
ATOM     36  O   UNL     1      -0.941  16.808  18.120  0.00  0.00    +0.000 OA
ATOM     37  H   UNL     1      -0.988  15.864  17.882  0.00  0.00    +0.000 HD
ENDBRANCH  34  36
ENDBRANCH  33  34
ENDBRANCH   9  33
BRANCH  13  38
ATOM     38  C   UNL     1      -3.488  13.990  23.050  0.00  0.00    +0.000 C 
BRANCH  38  39
ATOM     39  C   UNL     1      -4.656  13.334  22.357  0.00  0.00    +0.000 A 
ATOM     40  C   UNL     1      -5.891  13.267  23.008  0.00  0.00    +0.000 A 
ATOM     41  C   UNL     1      -6.980  12.645  22.399  0.00  0.00    +0.000 A 
ATOM     42  C   UNL     1      -6.854  12.101  21.123  0.00  0.00    +0.000 A 
ATOM     43  C   UNL     1      -5.643  12.205  20.441  0.00  0.00    +0.000 A 
ATOM     44  C   UNL     1      -4.549  12.824  21.052  0.00  0.00    +0.000 A 
ENDBRANCH  38  39
ENDBRANCH  13  38
TORSDOF 9
ENDMDL
MODEL 2
REMARK VINA RESULT:      -6.4      0.948      1.427
REMARK  Name = 
REMARK  9 active torsions:
REMARK  status: ('A' for Active; 'I' for Inactive)
REMARK    1  A    between atoms: N_4  and  C_5
REMARK    2  A    between atoms: C_5  and  C_6
REMARK    3  A    between atoms: C_6  and  C_7
REMARK    4  A    between atoms: C_7  and  C_8
REMARK    5  A    between atoms: C_16  and  C_17
REMARK    6  A    between atoms: C_17  and  C_18
REMARK    7  A    between atoms: C_18  and  O_20
REMARK    8  A    between atoms: C_24  and  C_25
REMARK    9  A    between atoms: C_25  and  C_26
REMARK                            x       y       z     vdW  Elec       q    Type
REMARK                         _______ _______ _______ _____ _____    ______ ____
ROOT
ATOM      1  C   UNL     1      -0.165  10.178  20.201  0.00  0.00    +0.000 C 
ATOM      2  N   UNL     1       1.116  10.782  19.835  0.00  0.00    +0.000 N 
ATOM      3  C   UNL     1       1.666  10.867  18.596  0.00  0.00    +0.000 C 
ATOM      4  O   UNL     1       1.560  10.000  17.732  0.00  0.00    +0.000 OA
ATOM      5  C   UNL     1       2.315  12.207  18.308  0.00  0.00    +0.000 C 
ATOM      6  C   UNL     1       1.984  13.290  19.328  0.00  0.00    +0.000 C 
ATOM      7  O   UNL     1       2.264  13.185  20.524  0.00  0.00    +0.000 OA
ATOM      8  N   UNL     1       1.253  14.356  18.854  0.00  0.00    +0.000 N 
ATOM      9  C   UNL     1       1.017  15.560  19.677  0.00  0.00    +0.000 C 
ATOM     10  C   UNL     1      -0.345  15.419  20.434  0.00  0.00    +0.000 C 
ATOM     11  O   UNL     1      -1.391  15.881  19.980  0.00  0.00    +0.000 OA
ATOM     12  N   UNL     1      -0.318  14.642  21.584  0.00  0.00    +0.000 N 
ATOM     13  C   UNL     1      -1.459  13.776  21.959  0.00  0.00    +0.000 C 
ATOM     14  C   UNL     1      -1.004  12.578  22.850  0.00  0.00    +0.000 C 
ATOM     15  N   UNL     1      -1.259  11.307  22.163  0.00  0.00    +0.000 N 
ATOM     16  C   UNL     1      -0.199  10.546  21.727  0.00  0.00    +0.000 C 
ATOM     17  O   UNL     1       0.778  10.356  22.451  0.00  0.00    +0.000 OA
ATOM     18  H   UNL     1       1.589  11.306  20.580  0.00  0.00    +0.000 HD
ATOM     19  H   UNL     1       1.250  14.478  17.847  0.00  0.00    +0.000 HD
ATOM     20  H   UNL     1       0.605  14.294  21.837  0.00  0.00    +0.000 HD
ATOM     21  H   UNL     1      -2.166  11.208  21.730  0.00  0.00    +0.000 HD
ENDROOT
BRANCH   1  22
ATOM     22  C   UNL     1      -1.328  10.817  19.404  0.00  0.00    +0.000 C 
BRANCH  22  23
ATOM     23  C   UNL     1      -1.731  10.211  18.057  0.00  0.00    +0.000 C 
BRANCH  23  24
ATOM     24  C   UNL     1      -2.063  11.249  16.991  0.00  0.00    +0.000 C 
BRANCH  24  28
ATOM     25  N   UNL     1      -4.423  10.556  15.497  0.00  0.00    +0.000 NA
ATOM     26  C   UNL     1      -4.467  11.369  16.487  0.00  0.00    +0.000 C 
ATOM     27  N   UNL     1      -5.605  11.945  16.920  0.00  0.00    +0.000 N 
ATOM     28  N   UNL     1      -3.397  11.785  17.197  0.00  0.00    +0.000 N 
ATOM     29  H   UNL     1      -5.366  10.406  15.139  0.00  0.00    +0.000 HD
ATOM     30  H   UNL     1      -6.376  11.897  16.267  0.00  0.00    +0.000 HD
ATOM     31  H   UNL     1      -5.460  12.898  17.232  0.00  0.00    +0.000 HD
ATOM     32  H   UNL     1      -3.581  12.009  18.170  0.00  0.00    +0.000 HD
ENDBRANCH  24  28
ENDBRANCH  23  24
ENDBRANCH  22  23
ENDBRANCH   1  22
BRANCH   9  33
ATOM     33  C   UNL     1       0.971  16.810  18.785  0.00  0.00    +0.000 C 
BRANCH  33  34
ATOM     34  C   UNL     1       2.266  17.043  18.048  0.00  0.00    +0.000 C 
ATOM     35  O   UNL     1       2.378  17.700  17.026  0.00  0.00    +0.000 OA
BRANCH  34  36
ATOM     36  O   UNL     1       3.342  16.534  18.688  0.00  0.00    +0.000 OA
ATOM     37  H   UNL     1       3.501  16.897  19.579  0.00  0.00    +0.000 HD
ENDBRANCH  34  36
ENDBRANCH  33  34
ENDBRANCH   9  33
BRANCH  13  38
ATOM     38  C   UNL     1      -2.769  14.416  22.499  0.00  0.00    +0.000 C 
BRANCH  38  39
ATOM     39  C   UNL     1      -4.065  13.721  22.160  0.00  0.00    +0.000 A 
ATOM     40  C   UNL     1      -4.222  13.139  20.900  0.00  0.00    +0.000 A 
ATOM     41  C   UNL     1      -5.418  12.512  20.553  0.00  0.00    +0.000 A 
ATOM     42  C   UNL     1      -6.464  12.440  21.470  0.00  0.00    +0.000 A 
ATOM     43  C   UNL     1      -6.304  12.972  22.748  0.00  0.00    +0.000 A 
ATOM     44  C   UNL     1      -5.107  13.606  23.096  0.00  0.00    +0.000 A 
ENDBRANCH  38  39
ENDBRANCH  13  38
TORSDOF 9
ENDMDL
MODEL 3
REMARK VINA RESULT:      -6.4      1.142      1.634
REMARK  Name = 
REMARK  9 active torsions:
REMARK  status: ('A' for Active; 'I' for Inactive)
REMARK    1  A    between atoms: N_4  and  C_5
REMARK    2  A    between atoms: C_5  and  C_6
REMARK    3  A    between atoms: C_6  and  C_7
REMARK    4  A    between atoms: C_7  and  C_8
REMARK    5  A    between atoms: C_16  and  C_17
REMARK    6  A    between atoms: C_17  and  C_18
REMARK    7  A    between atoms: C_18  and  O_20
REMARK    8  A    between atoms: C_24  and  C_25
REMARK    9  A    between atoms: C_25  and  C_26
REMARK                            x       y       z     vdW  Elec       q    Type
REMARK                         _______ _______ _______ _____ _____    ______ ____
ROOT
ATOM      1  C   UNL     1       0.140  10.920  20.416  0.00  0.00    +0.000 C 
ATOM      2  N   UNL     1       1.150  11.960  20.611  0.00  0.00    +0.000 N 
ATOM      3  C   UNL     1       1.886  12.587  19.657  0.00  0.00    +0.000 C 
ATOM      4  O   UNL     1       2.303  12.043  18.637  0.00  0.00    +0.000 OA
ATOM      5  C   UNL     1       2.035  14.079  19.885  0.00  0.00    +0.000 C 
ATOM      6  C   UNL     1       1.109  14.639  20.959  0.00  0.00    +0.000 C 
ATOM      7  O   UNL     1       1.139  14.253  22.129  0.00  0.00    +0.000 OA
ATOM      8  N   UNL     1       0.157  15.531  20.523  0.00  0.00    +0.000 N 
ATOM      9  C   UNL     1      -0.686  16.290  21.470  0.00  0.00    +0.000 C 
ATOM     10  C   UNL     1      -2.027  15.521  21.712  0.00  0.00    +0.000 C 
ATOM     11  O   UNL     1      -3.043  15.769  21.064  0.00  0.00    +0.000 OA
ATOM     12  N   UNL     1      -1.964  14.469  22.614  0.00  0.00    +0.000 N 
ATOM     13  C   UNL     1      -2.752  13.231  22.415  0.00  0.00    +0.000 C 
ATOM     14  C   UNL     1      -2.091  12.008  23.121  0.00  0.00    +0.000 C 
ATOM     15  N   UNL     1      -1.697  11.000  22.130  0.00  0.00    +0.000 N 
ATOM     16  C   UNL     1      -0.362  10.764  21.895  0.00  0.00    +0.000 C 
ATOM     17  O   UNL     1       0.431  10.657  22.830  0.00  0.00    +0.000 OA
ATOM     18  H   UNL     1       1.218  12.340  21.561  0.00  0.00    +0.000 HD
ATOM     19  H   UNL     1       0.328  15.955  19.618  0.00  0.00    +0.000 HD
ATOM     20  H   UNL     1      -1.058  14.350  23.063  0.00  0.00    +0.000 HD
ATOM     21  H   UNL     1      -2.382  10.776  21.424  0.00  0.00    +0.000 HD
ENDROOT
BRANCH   1  22
ATOM     22  C   UNL     1      -0.972  11.400  19.452  0.00  0.00    +0.000 C 
BRANCH  22  23
ATOM     23  C   UNL     1      -1.053  10.798  18.047  0.00  0.00    +0.000 C 
BRANCH  23  24
ATOM     24  C   UNL     1      -2.375  10.094  17.757  0.00  0.00    +0.000 C 
BRANCH  24  28
ATOM     25  N   UNL     1      -3.516  11.668  15.635  0.00  0.00    +0.000 NA
ATOM     26  C   UNL     1      -2.961  10.535  15.410  0.00  0.00    +0.000 C 
ATOM     27  N   UNL     1      -2.847  10.000  14.180  0.00  0.00    +0.000 N 
ATOM     28  N   UNL     1      -2.456   9.716  16.357  0.00  0.00    +0.000 N 
ATOM     29  H   UNL     1      -3.809  12.084  14.752  0.00  0.00    +0.000 HD
ATOM     30  H   UNL     1      -3.444  10.421  13.480  0.00  0.00    +0.000 HD
ATOM     31  H   UNL     1      -2.958   8.993  14.184  0.00  0.00    +0.000 HD
ATOM     32  H   UNL     1      -1.674   9.141  16.063  0.00  0.00    +0.000 HD
ENDBRANCH  24  28
ENDBRANCH  23  24
ENDBRANCH  22  23
ENDBRANCH   1  22
BRANCH   9  33
ATOM     33  C   UNL     1      -0.998  17.683  20.903  0.00  0.00    +0.000 C 
BRANCH  33  34
ATOM     34  C   UNL     1      -0.725  17.780  19.422  0.00  0.00    +0.000 C 
ATOM     35  O   UNL     1       0.314  18.190  18.930  0.00  0.00    +0.000 OA
BRANCH  34  36
ATOM     36  O   UNL     1      -1.717  17.263  18.663  0.00  0.00    +0.000 OA
ATOM     37  H   UNL     1      -1.421  16.809  17.852  0.00  0.00    +0.000 HD
ENDBRANCH  34  36
ENDBRANCH  33  34
ENDBRANCH   9  33
BRANCH  13  38
ATOM     38  C   UNL     1      -4.291  13.251  22.641  0.00  0.00    +0.000 C 
BRANCH  38  39
ATOM     39  C   UNL     1      -5.161  12.801  21.493  0.00  0.00    +0.000 A 
ATOM     40  C   UNL     1      -4.594  12.630  20.228  0.00  0.00    +0.000 A 
ATOM     41  C   UNL     1      -5.380  12.238  19.145  0.00  0.00    +0.000 A 
ATOM     42  C   UNL     1      -6.740  11.992  19.319  0.00  0.00    +0.000 A 
ATOM     43  C   UNL     1      -7.310  12.110  20.585  0.00  0.00    +0.000 A 
ATOM     44  C   UNL     1      -6.524  12.508  21.671  0.00  0.00    +0.000 A 
ENDBRANCH  38  39
ENDBRANCH  13  38
TORSDOF 9
ENDMDL
MODEL 4
REMARK VINA RESULT:      -6.3      2.572      5.369
REMARK  Name = 
REMARK  9 active torsions:
REMARK  status: ('A' for Active; 'I' for Inactive)
REMARK    1  A    between atoms: N_4  and  C_5
REMARK    2  A    between atoms: C_5  and  C_6
REMARK    3  A    between atoms: C_6  and  C_7
REMARK    4  A    between atoms: C_7  and  C_8
REMARK    5  A    between atoms: C_16  and  C_17
REMARK    6  A    between atoms: C_17  and  C_18
REMARK    7  A    between atoms: C_18  and  O_20
REMARK    8  A    between atoms: C_24  and  C_25
REMARK    9  A    between atoms: C_25  and  C_26
REMARK                            x       y       z     vdW  Elec       q    Type
REMARK                         _______ _______ _______ _____ _____    ______ ____
ROOT
ATOM      1  C   UNL     1       0.242  16.130  20.275  0.00  0.00    +0.000 C 
ATOM      2  N   UNL     1      -0.813  17.141  20.216  0.00  0.00    +0.000 N 
ATOM      3  C   UNL     1      -1.380  17.680  19.106  0.00  0.00    +0.000 C 
ATOM      4  O   UNL     1      -0.774  17.913  18.063  0.00  0.00    +0.000 OA
ATOM      5  C   UNL     1      -2.884  17.843  19.208  0.00  0.00    +0.000 C 
ATOM      6  C   UNL     1      -3.509  17.120  20.396  0.00  0.00    +0.000 C 
ATOM      7  O   UNL     1      -3.200  17.369  21.563  0.00  0.00    +0.000 OA
ATOM      8  N   UNL     1      -4.366  16.089  20.087  0.00  0.00    +0.000 N 
ATOM      9  C   UNL     1      -5.181  15.421  21.122  0.00  0.00    +0.000 C 
ATOM     10  C   UNL     1      -4.423  14.160  21.653  0.00  0.00    +0.000 C 
ATOM     11  O   UNL     1      -4.623  13.038  21.188  0.00  0.00    +0.000 OA
ATOM     12  N   UNL     1      -3.432  14.403  22.593  0.00  0.00    +0.000 N 
ATOM     13  C   UNL     1      -2.180  13.613  22.620  0.00  0.00    +0.000 C 
ATOM     14  C   UNL     1      -1.008  14.412  23.269  0.00  0.00    +0.000 C 
ATOM     15  N   UNL     1       0.060  14.636  22.289  0.00  0.00    +0.000 N 
ATOM     16  C   UNL     1       0.304  15.909  21.828  0.00  0.00    +0.000 C 
ATOM     17  O   UNL     1       0.346  16.861  22.607  0.00  0.00    +0.000 OA
ATOM     18  H   UNL     1      -1.255  17.375  21.112  0.00  0.00    +0.000 HD
ATOM     19  H   UNL     1      -4.731  16.086  19.140  0.00  0.00    +0.000 HD
ATOM     20  H   UNL     1      -3.347  15.378  22.875  0.00  0.00    +0.000 HD
ATOM     21  H   UNL     1       0.333  13.837  21.735  0.00  0.00    +0.000 HD
ENDROOT
BRANCH   1  22
ATOM     22  C   UNL     1      -0.169  14.853  19.503  0.00  0.00    +0.000 C 
BRANCH  22  23
ATOM     23  C   UNL     1       0.863  14.151  18.618  0.00  0.00    +0.000 C 
BRANCH  23  24
ATOM     24  C   UNL     1       0.401  12.796  18.092  0.00  0.00    +0.000 C 
BRANCH  24  28
ATOM     25  N   UNL     1      -1.239  10.517  17.462  0.00  0.00    +0.000 NA
ATOM     26  C   UNL     1      -1.735  11.693  17.577  0.00  0.00    +0.000 C 
ATOM     27  N   UNL     1      -3.048  11.957  17.436  0.00  0.00    +0.000 N 
ATOM     28  N   UNL     1      -1.024  12.816  17.814  0.00  0.00    +0.000 N 
ATOM     29  H   UNL     1      -1.988   9.847  17.288  0.00  0.00    +0.000 HD
ATOM     30  H   UNL     1      -3.580  11.223  16.988  0.00  0.00    +0.000 HD
ATOM     31  H   UNL     1      -3.216  12.847  16.982  0.00  0.00    +0.000 HD
ATOM     32  H   UNL     1      -1.513  13.539  18.332  0.00  0.00    +0.000 HD
ENDBRANCH  24  28
ENDBRANCH  23  24
ENDBRANCH  22  23
ENDBRANCH   1  22
BRANCH   9  33
ATOM     33  C   UNL     1      -6.532  14.988  20.535  0.00  0.00    +0.000 C 
BRANCH  33  34
ATOM     34  C   UNL     1      -6.516  14.927  19.028  0.00  0.00    +0.000 C 
ATOM     35  O   UNL     1      -6.922  15.810  18.289  0.00  0.00    +0.000 OA
BRANCH  34  36
ATOM     36  O   UNL     1      -5.903  13.822  18.546  0.00  0.00    +0.000 OA
ATOM     37  H   UNL     1      -6.424  13.311  17.899  0.00  0.00    +0.000 HD
ENDBRANCH  34  36
ENDBRANCH  33  34
ENDBRANCH   9  33
BRANCH  13  38
ATOM     38  C   UNL     1      -2.207  12.141  23.122  0.00  0.00    +0.000 C 
BRANCH  38  39
ATOM     39  C   UNL     1      -1.182  11.198  22.544  0.00  0.00    +0.000 A 
ATOM     40  C   UNL     1      -0.687  10.155  23.331  0.00  0.00    +0.000 A 
ATOM     41  C   UNL     1       0.278   9.283  22.828  0.00  0.00    +0.000 A 
ATOM     42  C   UNL     1       0.745   9.432  21.524  0.00  0.00    +0.000 A 
ATOM     43  C   UNL     1       0.226  10.437  20.711  0.00  0.00    +0.000 A 
ATOM     44  C   UNL     1      -0.738  11.314  21.215  0.00  0.00    +0.000 A 
ENDBRANCH  38  39
ENDBRANCH  13  38
TORSDOF 9
ENDMDL
MODEL 5
REMARK VINA RESULT:      -6.2      1.200      1.520
REMARK  Name = 
REMARK  9 active torsions:
REMARK  status: ('A' for Active; 'I' for Inactive)
REMARK    1  A    between atoms: N_4  and  C_5
REMARK    2  A    between atoms: C_5  and  C_6
REMARK    3  A    between atoms: C_6  and  C_7
REMARK    4  A    between atoms: C_7  and  C_8
REMARK    5  A    between atoms: C_16  and  C_17
REMARK    6  A    between atoms: C_17  and  C_18
REMARK    7  A    between atoms: C_18  and  O_20
REMARK    8  A    between atoms: C_24  and  C_25
REMARK    9  A    between atoms: C_25  and  C_26
REMARK                            x       y       z     vdW  Elec       q    Type
REMARK                         _______ _______ _______ _____ _____    ______ ____
ROOT
ATOM      1  C   UNL     1       0.228   9.786  19.973  0.00  0.00    +0.000 C 
ATOM      2  N   UNL     1       1.428  10.526  19.586  0.00  0.00    +0.000 N 
ATOM      3  C   UNL     1       1.934  10.686  18.336  0.00  0.00    +0.000 C 
ATOM      4  O   UNL     1       1.898   9.824  17.460  0.00  0.00    +0.000 OA
ATOM      5  C   UNL     1       2.431  12.091  18.054  0.00  0.00    +0.000 C 
ATOM      6  C   UNL     1       2.015  13.119  19.100  0.00  0.00    +0.000 C 
ATOM      7  O   UNL     1       2.335  13.027  20.287  0.00  0.00    +0.000 OA
ATOM      8  N   UNL     1       1.164  14.108  18.662  0.00  0.00    +0.000 N 
ATOM      9  C   UNL     1       0.824  15.269  19.510  0.00  0.00    +0.000 C 
ATOM     10  C   UNL     1      -0.496  14.974  20.298  0.00  0.00    +0.000 C 
ATOM     11  O   UNL     1      -1.596  15.329  19.877  0.00  0.00    +0.000 OA
ATOM     12  N   UNL     1      -0.357  14.188  21.433  0.00  0.00    +0.000 N 
ATOM     13  C   UNL     1      -1.391  13.202  21.821  0.00  0.00    +0.000 C 
ATOM     14  C   UNL     1      -0.790  12.046  22.681  0.00  0.00    +0.000 C 
ATOM     15  N   UNL     1      -0.928  10.765  21.979  0.00  0.00    +0.000 N 
ATOM     16  C   UNL     1       0.195  10.126  21.505  0.00  0.00    +0.000 C 
ATOM     17  O   UNL     1       1.204  10.030  22.202  0.00  0.00    +0.000 OA
ATOM     18  H   UNL     1       1.863  11.087  20.328  0.00  0.00    +0.000 HD
ATOM     19  H   UNL     1       1.122  14.243  17.658  0.00  0.00    +0.000 HD
ATOM     20  H   UNL     1       0.603  13.936  21.658  0.00  0.00    +0.000 HD
ATOM     21  H   UNL     1      -1.830  10.577  21.567  0.00  0.00    +0.000 HD
ENDROOT
BRANCH   1  22
ATOM     22  C   UNL     1      -1.016  10.310  19.214  0.00  0.00    +0.000 C 
BRANCH  22  23
ATOM     23  C   UNL     1      -0.955  11.683  18.540  0.00  0.00    +0.000 C 
BRANCH  23  24
ATOM     24  C   UNL     1      -2.158  11.985  17.653  0.00  0.00    +0.000 C 
BRANCH  24  28
ATOM     25  N   UNL     1      -4.410  11.013  16.148  0.00  0.00    +0.000 NA
ATOM     26  C   UNL     1      -3.205  10.828  15.753  0.00  0.00    +0.000 C 
ATOM     27  N   UNL     1      -2.893  10.192  14.607  0.00  0.00    +0.000 N 
ATOM     28  N   UNL     1      -2.100  11.204  16.430  0.00  0.00    +0.000 N 
ATOM     29  H   UNL     1      -5.057  10.639  15.454  0.00  0.00    +0.000 HD
ATOM     30  H   UNL     1      -3.648   9.651  14.207  0.00  0.00    +0.000 HD
ATOM     31  H   UNL     1      -2.057   9.628  14.695  0.00  0.00    +0.000 HD
ATOM     32  H   UNL     1      -1.296  11.437  15.856  0.00  0.00    +0.000 HD
ENDBRANCH  24  28
ENDBRANCH  23  24
ENDBRANCH  22  23
ENDBRANCH   1  22
BRANCH   9  33
ATOM     33  C   UNL     1       0.624  16.519  18.641  0.00  0.00    +0.000 C 
BRANCH  33  34
ATOM     34  C   UNL     1       1.927  17.088  18.135  0.00  0.00    +0.000 C 
ATOM     35  O   UNL     1       2.024  17.999  17.329  0.00  0.00    +0.000 OA
BRANCH  34  36
ATOM     36  O   UNL     1       3.010  16.557  18.745  0.00  0.00    +0.000 OA
ATOM     37  H   UNL     1       2.871  16.287  19.671  0.00  0.00    +0.000 HD
ENDBRANCH  34  36
ENDBRANCH  33  34
ENDBRANCH   9  33
BRANCH  13  38
ATOM     38  C   UNL     1      -2.747  13.692  22.403  0.00  0.00    +0.000 C 
BRANCH  38  39
ATOM     39  C   UNL     1      -4.004  13.162  21.760  0.00  0.00    +0.000 A 
ATOM     40  C   UNL     1      -5.175  13.068  22.516  0.00  0.00    +0.000 A 
ATOM     41  C   UNL     1      -6.344  12.559  21.952  0.00  0.00    +0.000 A 
ATOM     42  C   UNL     1      -6.363  12.157  20.619  0.00  0.00    +0.000 A 
ATOM     43  C   UNL     1      -5.216  12.291  19.838  0.00  0.00    +0.000 A 
ATOM     44  C   UNL     1      -4.042  12.796  20.403  0.00  0.00    +0.000 A 
ENDBRANCH  38  39
ENDBRANCH  13  38
TORSDOF 9
ENDMDL
MODEL 6
REMARK VINA RESULT:      -6.2      1.237      1.724
REMARK  Name = 
REMARK  9 active torsions:
REMARK  status: ('A' for Active; 'I' for Inactive)
REMARK    1  A    between atoms: N_4  and  C_5
REMARK    2  A    between atoms: C_5  and  C_6
REMARK    3  A    between atoms: C_6  and  C_7
REMARK    4  A    between atoms: C_7  and  C_8
REMARK    5  A    between atoms: C_16  and  C_17
REMARK    6  A    between atoms: C_17  and  C_18
REMARK    7  A    between atoms: C_18  and  O_20
REMARK    8  A    between atoms: C_24  and  C_25
REMARK    9  A    between atoms: C_25  and  C_26
REMARK                            x       y       z     vdW  Elec       q    Type
REMARK                         _______ _______ _______ _____ _____    ______ ____
ROOT
ATOM      1  C   UNL     1       0.281   9.963  20.069  0.00  0.00    +0.000 C 
ATOM      2  N   UNL     1       1.448  10.757  19.684  0.00  0.00    +0.000 N 
ATOM      3  C   UNL     1       1.949  10.937  18.435  0.00  0.00    +0.000 C 
ATOM      4  O   UNL     1       1.953  10.074  17.560  0.00  0.00    +0.000 OA
ATOM      5  C   UNL     1       2.383  12.363  18.152  0.00  0.00    +0.000 C 
ATOM      6  C   UNL     1       1.918  13.372  19.196  0.00  0.00    +0.000 C 
ATOM      7  O   UNL     1       2.240  13.297  20.383  0.00  0.00    +0.000 OA
ATOM      8  N   UNL     1       1.025  14.321  18.754  0.00  0.00    +0.000 N 
ATOM      9  C   UNL     1       0.630  15.467  19.600  0.00  0.00    +0.000 C 
ATOM     10  C   UNL     1      -0.676  15.114  20.385  0.00  0.00    +0.000 C 
ATOM     11  O   UNL     1      -1.791  15.419  19.962  0.00  0.00    +0.000 OA
ATOM     12  N   UNL     1      -0.505  14.337  21.522  0.00  0.00    +0.000 N 
ATOM     13  C   UNL     1      -1.494  13.305  21.910  0.00  0.00    +0.000 C 
ATOM     14  C   UNL     1      -0.843  12.179  22.772  0.00  0.00    +0.000 C 
ATOM     15  N   UNL     1      -0.921  10.892  22.072  0.00  0.00    +0.000 N 
ATOM     16  C   UNL     1       0.230  10.304  21.601  0.00  0.00    +0.000 C 
ATOM     17  O   UNL     1       1.241  10.255  22.300  0.00  0.00    +0.000 OA
ATOM     18  H   UNL     1       1.855  11.337  20.426  0.00  0.00    +0.000 HD
ATOM     19  H   UNL     1       0.978  14.453  17.750  0.00  0.00    +0.000 HD
ATOM     20  H   UNL     1       0.465  14.129  21.750  0.00  0.00    +0.000 HD
ATOM     21  H   UNL     1      -1.813  10.663  21.658  0.00  0.00    +0.000 HD
ENDROOT
BRANCH   1  22
ATOM     22  C   UNL     1      -0.983  10.430  19.308  0.00  0.00    +0.000 C 
BRANCH  22  23
ATOM     23  C   UNL     1      -1.486   9.603  18.122  0.00  0.00    +0.000 C 
BRANCH  23  24
ATOM     24  C   UNL     1      -2.615  10.272  17.343  0.00  0.00    +0.000 C 
BRANCH  24  28
ATOM     25  N   UNL     1      -3.842  11.646  15.132  0.00  0.00    +0.000 NA
ATOM     26  C   UNL     1      -3.153  10.578  14.963  0.00  0.00    +0.000 C 
ATOM     27  N   UNL     1      -2.931  10.026  13.755  0.00  0.00    +0.000 N 
ATOM     28  N   UNL     1      -2.597   9.849  15.954  0.00  0.00    +0.000 N 
ATOM     29  H   UNL     1      -4.145  12.001  14.226  0.00  0.00    +0.000 HD
ATOM     30  H   UNL     1      -3.543  10.357  13.021  0.00  0.00    +0.000 HD
ATOM     31  H   UNL     1      -2.928   9.014  13.788  0.00  0.00    +0.000 HD
ATOM     32  H   UNL     1      -1.743   9.359  15.706  0.00  0.00    +0.000 HD
ENDBRANCH  24  28
ENDBRANCH  23  24
ENDBRANCH  22  23
ENDBRANCH   1  22
BRANCH   9  33
ATOM     33  C   UNL     1       0.376  16.706  18.729  0.00  0.00    +0.000 C 
BRANCH  33  34
ATOM     34  C   UNL     1       1.653  17.373  18.283  0.00  0.00    +0.000 C 
ATOM     35  O   UNL     1       1.716  18.447  17.708  0.00  0.00    +0.000 OA
BRANCH  34  36
ATOM     36  O   UNL     1       2.764  16.710  18.676  0.00  0.00    +0.000 OA
ATOM     37  H   UNL     1       3.607  17.127  18.414  0.00  0.00    +0.000 HD
ENDBRANCH  34  36
ENDBRANCH  33  34
ENDBRANCH   9  33
BRANCH  13  38
ATOM     38  C   UNL     1      -2.872  13.735  22.488  0.00  0.00    +0.000 C 
BRANCH  38  39
ATOM     39  C   UNL     1      -4.104  13.205  21.797  0.00  0.00    +0.000 A 
ATOM     40  C   UNL     1      -4.019  12.790  20.466  0.00  0.00    +0.000 A 
ATOM     41  C   UNL     1      -5.148  12.318  19.797  0.00  0.00    +0.000 A 
ATOM     42  C   UNL     1      -6.371  12.236  20.457  0.00  0.00    +0.000 A 
ATOM     43  C   UNL     1      -6.460  12.599  21.799  0.00  0.00    +0.000 A 
ATOM     44  C   UNL     1      -5.331  13.077  22.470  0.00  0.00    +0.000 A 
ENDBRANCH  38  39
ENDBRANCH  13  38
TORSDOF 9
ENDMDL
MODEL 7
REMARK VINA RESULT:      -6.1      2.594      5.694
REMARK  Name = 
REMARK  9 active torsions:
REMARK  status: ('A' for Active; 'I' for Inactive)
REMARK    1  A    between atoms: N_4  and  C_5
REMARK    2  A    between atoms: C_5  and  C_6
REMARK    3  A    between atoms: C_6  and  C_7
REMARK    4  A    between atoms: C_7  and  C_8
REMARK    5  A    between atoms: C_16  and  C_17
REMARK    6  A    between atoms: C_17  and  C_18
REMARK    7  A    between atoms: C_18  and  O_20
REMARK    8  A    between atoms: C_24  and  C_25
REMARK    9  A    between atoms: C_25  and  C_26
REMARK                            x       y       z     vdW  Elec       q    Type
REMARK                         _______ _______ _______ _____ _____    ______ ____
ROOT
ATOM      1  C   UNL     1      -0.494  16.134  20.645  0.00  0.00    +0.000 C 
ATOM      2  N   UNL     1      -1.671  17.000  20.721  0.00  0.00    +0.000 N 
ATOM      3  C   UNL     1      -2.386  17.516  19.688  0.00  0.00    +0.000 C 
ATOM      4  O   UNL     1      -1.896  17.880  18.622  0.00  0.00    +0.000 OA
ATOM      5  C   UNL     1      -3.886  17.474  19.905  0.00  0.00    +0.000 C 
ATOM      6  C   UNL     1      -4.320  16.614  21.086  0.00  0.00    +0.000 C 
ATOM      7  O   UNL     1      -3.957  16.841  22.242  0.00  0.00    +0.000 OA
ATOM      8  N   UNL     1      -5.061  15.497  20.774  0.00  0.00    +0.000 N 
ATOM      9  C   UNL     1      -5.702  14.675  21.821  0.00  0.00    +0.000 C 
ATOM     10  C   UNL     1      -4.750  13.498  22.220  0.00  0.00    +0.000 C 
ATOM     11  O   UNL     1      -4.841  12.386  21.702  0.00  0.00    +0.000 OA
ATOM     12  N   UNL     1      -3.729  13.821  23.102  0.00  0.00    +0.000 N 
ATOM     13  C   UNL     1      -2.389  13.202  22.994  0.00  0.00    +0.000 C 
ATOM     14  C   UNL     1      -1.282  14.114  23.607  0.00  0.00    +0.000 C 
ATOM     15  N   UNL     1      -0.329  14.527  22.571  0.00  0.00    +0.000 N 
ATOM     16  C   UNL     1      -0.286  15.844  22.173  0.00  0.00    +0.000 C 
ATOM     17  O   UNL     1      -0.306  16.751  23.004  0.00  0.00    +0.000 OA
ATOM     18  H   UNL     1      -2.069  17.127  21.658  0.00  0.00    +0.000 HD
ATOM     19  H   UNL     1      -5.494  15.494  19.857  0.00  0.00    +0.000 HD
ATOM     20  H   UNL     1      -3.748  14.783  23.437  0.00  0.00    +0.000 HD
ATOM     21  H   UNL     1      -0.000  13.800  21.951  0.00  0.00    +0.000 HD
ENDROOT
BRANCH   1  22
ATOM     22  C   UNL     1      -0.798  14.856  19.826  0.00  0.00    +0.000 C 
BRANCH  22  23
ATOM     23  C   UNL     1       0.206  14.392  18.768  0.00  0.00    +0.000 C 
BRANCH  23  24
ATOM     24  C   UNL     1      -0.105  13.017  18.188  0.00  0.00    +0.000 C 
BRANCH  24  28
ATOM     25  N   UNL     1      -1.430  10.710  17.090  0.00  0.00    +0.000 NA
ATOM     26  C   UNL     1      -2.086  11.675  17.620  0.00  0.00    +0.000 C 
ATOM     27  N   UNL     1      -3.429  11.684  17.727  0.00  0.00    +0.000 N 
ATOM     28  N   UNL     1      -1.540  12.811  18.104  0.00  0.00    +0.000 N 
ATOM     29  H   UNL     1      -2.077   9.973  16.809  0.00  0.00    +0.000 HD
ATOM     30  H   UNL     1      -3.903  11.009  17.142  0.00  0.00    +0.000 HD
ATOM     31  H   UNL     1      -3.820  12.609  17.593  0.00  0.00    +0.000 HD
ATOM     32  H   UNL     1      -2.042  13.241  18.874  0.00  0.00    +0.000 HD
ENDBRANCH  24  28
ENDBRANCH  23  24
ENDBRANCH  22  23
ENDBRANCH   1  22
BRANCH   9  33
ATOM     33  C   UNL     1      -7.028  14.098  21.304  0.00  0.00    +0.000 C 
BRANCH  33  34
ATOM     34  C   UNL     1      -7.145  14.173  19.801  0.00  0.00    +0.000 C 
ATOM     35  O   UNL     1      -7.726  15.056  19.191  0.00  0.00    +0.000 OA
BRANCH  34  36
ATOM     36  O   UNL     1      -6.446  13.208  19.164  0.00  0.00    +0.000 OA
ATOM     37  H   UNL     1      -6.297  12.396  19.683  0.00  0.00    +0.000 HD
ENDBRANCH  34  36
ENDBRANCH  33  34
ENDBRANCH   9  33
BRANCH  13  38
ATOM     38  C   UNL     1      -2.188  11.716  23.405  0.00  0.00    +0.000 C 
BRANCH  38  39
ATOM     39  C   UNL     1      -1.134  10.932  22.664  0.00  0.00    +0.000 A 
ATOM     40  C   UNL     1      -0.878  11.224  21.322  0.00  0.00    +0.000 A 
ATOM     41  C   UNL     1       0.075  10.499  20.607  0.00  0.00    +0.000 A 
ATOM     42  C   UNL     1       0.799   9.487  21.232  0.00  0.00    +0.000 A 
ATOM     43  C   UNL     1       0.591   9.218  22.583  0.00  0.00    +0.000 A 
ATOM     44  C   UNL     1      -0.367   9.940  23.300  0.00  0.00    +0.000 A 
ENDBRANCH  38  39
ENDBRANCH  13  38
TORSDOF 9
ENDMDL
MODEL 8
REMARK VINA RESULT:      -6.1      0.621      1.159
REMARK  Name = 
REMARK  9 active torsions:
REMARK  status: ('A' for Active; 'I' for Inactive)
REMARK    1  A    between atoms: N_4  and  C_5
REMARK    2  A    between atoms: C_5  and  C_6
REMARK    3  A    between atoms: C_6  and  C_7
REMARK    4  A    between atoms: C_7  and  C_8
REMARK    5  A    between atoms: C_16  and  C_17
REMARK    6  A    between atoms: C_17  and  C_18
REMARK    7  A    between atoms: C_18  and  O_20
REMARK    8  A    between atoms: C_24  and  C_25
REMARK    9  A    between atoms: C_25  and  C_26
REMARK                            x       y       z     vdW  Elec       q    Type
REMARK                         _______ _______ _______ _____ _____    ______ ____
ROOT
ATOM      1  C   UNL     1      -0.357  10.851  20.558  0.00  0.00    +0.000 C 
ATOM      2  N   UNL     1       0.870  11.648  20.552  0.00  0.00    +0.000 N 
ATOM      3  C   UNL     1       1.647  11.961  19.483  0.00  0.00    +0.000 C 
ATOM      4  O   UNL     1       1.850  11.210  18.532  0.00  0.00    +0.000 OA
ATOM      5  C   UNL     1       2.139  13.395  19.487  0.00  0.00    +0.000 C 
ATOM      6  C   UNL     1       1.450  14.286  20.514  0.00  0.00    +0.000 C 
ATOM      7  O   UNL     1       1.487  14.058  21.724  0.00  0.00    +0.000 OA
ATOM      8  N   UNL     1       0.685  15.310  20.001  0.00  0.00    +0.000 N 
ATOM      9  C   UNL     1       0.111  16.358  20.870  0.00  0.00    +0.000 C 
ATOM     10  C   UNL     1      -1.344  15.955  21.285  0.00  0.00    +0.000 C 
ATOM     11  O   UNL     1      -2.329  16.344  20.659  0.00  0.00    +0.000 OA
ATOM     12  N   UNL     1      -1.442  15.041  22.325  0.00  0.00    +0.000 N 
ATOM     13  C   UNL     1      -2.498  14.003  22.345  0.00  0.00    +0.000 C 
ATOM     14  C   UNL     1      -2.068  12.761  23.186  0.00  0.00    +0.000 C 
ATOM     15  N   UNL     1      -1.987  11.571  22.332  0.00  0.00    +0.000 N 
ATOM     16  C   UNL     1      -0.760  11.007  22.067  0.00  0.00    +0.000 C 
ATOM     17  O   UNL     1       0.062  10.841  22.968  0.00  0.00    +0.000 OA
ATOM     18  H   UNL     1       1.097  12.121  21.434  0.00  0.00    +0.000 HD
ATOM     19  H   UNL     1       0.873  15.563  19.037  0.00  0.00    +0.000 HD
ATOM     20  H   UNL     1      -0.552  14.776  22.741  0.00  0.00    +0.000 HD
ATOM     21  H   UNL     1      -2.760  11.422  21.699  0.00  0.00    +0.000 HD
ENDROOT
BRANCH   1  22
ATOM     22  C   UNL     1      -1.409  11.446  19.591  0.00  0.00    +0.000 C 
BRANCH  22  23
ATOM     23  C   UNL     1      -1.417  10.997  18.128  0.00  0.00    +0.000 C 
BRANCH  23  24
ATOM     24  C   UNL     1      -2.538  10.018  17.793  0.00  0.00    +0.000 C 
BRANCH  24  28
ATOM     25  N   UNL     1      -3.512  11.493  15.521  0.00  0.00    +0.000 NA
ATOM     26  C   UNL     1      -4.219  11.340  16.579  0.00  0.00    +0.000 C 
ATOM     27  N   UNL     1      -5.467  11.830  16.710  0.00  0.00    +0.000 N 
ATOM     28  N   UNL     1      -3.810  10.712  17.702  0.00  0.00    +0.000 N 
ATOM     29  H   UNL     1      -4.053  11.998  14.821  0.00  0.00    +0.000 HD
ATOM     30  H   UNL     1      -5.716  12.536  16.030  0.00  0.00    +0.000 HD
ATOM     31  H   UNL     1      -5.656  12.157  17.650  0.00  0.00    +0.000 HD
ATOM     32  H   UNL     1      -4.543  10.255  18.236  0.00  0.00    +0.000 HD
ENDBRANCH  24  28
ENDBRANCH  23  24
ENDBRANCH  22  23
ENDBRANCH   1  22
BRANCH   9  33
ATOM     33  C   UNL     1       0.069  17.700  20.125  0.00  0.00    +0.000 C 
BRANCH  33  34
ATOM     34  C   UNL     1       0.476  17.572  18.678  0.00  0.00    +0.000 C 
ATOM     35  O   UNL     1      -0.279  17.288  17.763  0.00  0.00    +0.000 OA
BRANCH  34  36
ATOM     36  O   UNL     1       1.767  17.908  18.457  0.00  0.00    +0.000 OA
ATOM     37  H   UNL     1       1.977  18.151  17.536  0.00  0.00    +0.000 HD
ENDBRANCH  34  36
ENDBRANCH  33  34
ENDBRANCH   9  33
BRANCH  13  38
ATOM     38  C   UNL     1      -3.971  14.404  22.641  0.00  0.00    +0.000 C 
BRANCH  38  39
ATOM     39  C   UNL     1      -5.052  13.508  22.090  0.00  0.00    +0.000 A 
ATOM     40  C   UNL     1      -4.908  12.965  20.810  0.00  0.00    +0.000 A 
ATOM     41  C   UNL     1      -5.903  12.153  20.268  0.00  0.00    +0.000 A 
ATOM     42  C   UNL     1      -7.046  11.857  21.007  0.00  0.00    +0.000 A 
ATOM     43  C   UNL     1      -7.181  12.351  22.303  0.00  0.00    +0.000 A 
ATOM     44  C   UNL     1      -6.187  13.169  22.846  0.00  0.00    +0.000 A 
ENDBRANCH  38  39
ENDBRANCH  13  38
TORSDOF 9
ENDMDL
MODEL 9
REMARK VINA RESULT:      -6.1      2.756      6.338
REMARK  Name = 
REMARK  9 active torsions:
REMARK  status: ('A' for Active; 'I' for Inactive)
REMARK    1  A    between atoms: N_4  and  C_5
REMARK    2  A    between atoms: C_5  and  C_6
REMARK    3  A    between atoms: C_6  and  C_7
REMARK    4  A    between atoms: C_7  and  C_8
REMARK    5  A    between atoms: C_16  and  C_17
REMARK    6  A    between atoms: C_17  and  C_18
REMARK    7  A    between atoms: C_18  and  O_20
REMARK    8  A    between atoms: C_24  and  C_25
REMARK    9  A    between atoms: C_25  and  C_26
REMARK                            x       y       z     vdW  Elec       q    Type
REMARK                         _______ _______ _______ _____ _____    ______ ____
ROOT
ATOM      1  C   UNL     1       1.639  15.450  19.600  0.00  0.00    +0.000 C 
ATOM      2  N   UNL     1       1.552  14.271  18.738  0.00  0.00    +0.000 N 
ATOM      3  C   UNL     1       2.553  13.415  18.405  0.00  0.00    +0.000 C 
ATOM      4  O   UNL     1       3.720  13.754  18.224  0.00  0.00    +0.000 OA
ATOM      5  C   UNL     1       2.136  11.957  18.415  0.00  0.00    +0.000 C 
ATOM      6  C   UNL     1       0.781  11.702  19.065  0.00  0.00    +0.000 C 
ATOM      7  O   UNL     1      -0.263  12.206  18.646  0.00  0.00    +0.000 OA
ATOM      8  N   UNL     1       0.803  10.956  20.221  0.00  0.00    +0.000 N 
ATOM      9  C   UNL     1      -0.441  10.477  20.857  0.00  0.00    +0.000 C 
ATOM     10  C   UNL     1      -0.901  11.502  21.947  0.00  0.00    +0.000 C 
ATOM     11  O   UNL     1      -0.592  11.373  23.131  0.00  0.00    +0.000 OA
ATOM     12  N   UNL     1      -1.575  12.620  21.477  0.00  0.00    +0.000 N 
ATOM     13  C   UNL     1      -1.395  13.950  22.101  0.00  0.00    +0.000 C 
ATOM     14  C   UNL     1      -1.697  15.104  21.095  0.00  0.00    +0.000 C 
ATOM     15  N   UNL     1      -0.489  15.903  20.860  0.00  0.00    +0.000 N 
ATOM     16  C   UNL     1       0.124  15.861  19.629  0.00  0.00    +0.000 C 
ATOM     17  O   UNL     1      -0.540  15.927  18.594  0.00  0.00    +0.000 OA
ATOM     18  H   UNL     1       0.605  13.995  18.456  0.00  0.00    +0.000 HD
ATOM     19  H   UNL     1       1.641  10.408  20.379  0.00  0.00    +0.000 HD
ATOM     20  H   UNL     1      -1.744  12.621  20.473  0.00  0.00    +0.000 HD
ATOM     21  H   UNL     1       0.039  16.168  21.679  0.00  0.00    +0.000 HD
ENDROOT
BRANCH   1  22
ATOM     22  C   UNL     1       2.186  15.075  20.998  0.00  0.00    +0.000 C 
BRANCH  22  23
ATOM     23  C   UNL     1       2.972  16.119  21.796  0.00  0.00    +0.000 C 
BRANCH  23  24
ATOM     24  C   UNL     1       4.483  15.915  21.752  0.00  0.00    +0.000 C 
BRANCH  24  28
ATOM     25  N   UNL     1       5.340  17.838  19.791  0.00  0.00    +0.000 NA
ATOM     26  C   UNL     1       5.357  16.579  19.552  0.00  0.00    +0.000 C 
ATOM     27  N   UNL     1       5.790  16.054  18.390  0.00  0.00    +0.000 N 
ATOM     28  N   UNL     1       4.919  15.623  20.398  0.00  0.00    +0.000 N 
ATOM     29  H   UNL     1       5.727  18.341  18.993  0.00  0.00    +0.000 HD
ATOM     30  H   UNL     1       5.862  16.717  17.629  0.00  0.00    +0.000 HD
ATOM     31  H   UNL     1       5.251  15.244  18.108  0.00  0.00    +0.000 HD
ATOM     32  H   UNL     1       5.392  14.728  20.325  0.00  0.00    +0.000 HD
ENDBRANCH  24  28
ENDBRANCH  23  24
ENDBRANCH  22  23
ENDBRANCH   1  22
BRANCH   9  33
ATOM     33  C   UNL     1      -0.207   9.110  21.517  0.00  0.00    +0.000 C 
BRANCH  33  34
ATOM     34  C   UNL     1       1.254   8.737  21.572  0.00  0.00    +0.000 C 
ATOM     35  O   UNL     1       1.835   8.069  20.732  0.00  0.00    +0.000 OA
BRANCH  34  36
ATOM     36  O   UNL     1       1.910   9.305  22.608  0.00  0.00    +0.000 OA
ATOM     37  H   UNL     1       2.722   8.842  22.886  0.00  0.00    +0.000 HD
ENDBRANCH  34  36
ENDBRANCH  33  34
ENDBRANCH   9  33
BRANCH  13  38
ATOM     38  C   UNL     1      -2.017  14.240  23.497  0.00  0.00    +0.000 C 
BRANCH  38  39
ATOM     39  C   UNL     1      -3.456  13.838  23.705  0.00  0.00    +0.000 A 
ATOM     40  C   UNL     1      -3.747  12.661  24.400  0.00  0.00    +0.000 A 
ATOM     41  C   UNL     1      -5.068  12.255  24.585  0.00  0.00    +0.000 A 
ATOM     42  C   UNL     1      -6.115  13.032  24.097  0.00  0.00    +0.000 A 
ATOM     43  C   UNL     1      -5.843  14.233  23.446  0.00  0.00    +0.000 A 
ATOM     44  C   UNL     1      -4.520  14.640  23.254  0.00  0.00    +0.000 A 
ENDBRANCH  38  39
ENDBRANCH  13  38
TORSDOF 9
ENDMDL
