MODEL 1
REMARK VINA RESULT:      -6.3      0.000      0.000
REMARK  Name = 
REMARK  20 active torsions:
REMARK  status: ('A' for Active; 'I' for Inactive)
REMARK    1  A    between atoms: C_1  and  C_2
REMARK    2  A    between atoms: C_2  and  C_3
REMARK    3  A    between atoms: C_3  and  C_4
REMARK    4  A    between atoms: C_4  and  C_5
REMARK    5  A    between atoms: C_5  and  C_6
REMARK    6  A    between atoms: C_6  and  C_7
REMARK    7  A    between atoms: C_7  and  C_8
REMARK    8  A    between atoms: C_8  and  C_9
REMARK    9  A    between atoms: C_9  and  C_10
REMARK   10  A    between atoms: C_10  and  C_11
REMARK   11  A    between atoms: C_11  and  C_12
REMARK   12  A    between atoms: C_12  and  C_13
REMARK   13  A    between atoms: C_13  and  C_14
REMARK   14  A    between atoms: C_14  and  C_15
REMARK   15  A    between atoms: C_15  and  C_16
REMARK   16  A    between atoms: N_18  and  C_19
REMARK   17  A    between atoms: C_19  and  C_20
REMARK   18  A    between atoms: C_23  and  O_24
REMARK   19  A    between atoms: C_25  and  O_26
REMARK   20  A    between atoms: O_26  and  C_27
REMARK                            x       y       z     vdW  Elec       q    Type
REMARK                         _______ _______ _______ _____ _____    ______ ____
ROOT
ATOM      1  C   UNL     1       2.075   9.379  17.659  0.00  0.00    +0.000 C 
ENDROOT
BRANCH   1   2
ATOM      2  C   UNL     1       1.094  10.024  18.610  0.00  0.00    +0.000 C 
ATOM      3  O   UNL     1       0.936   9.647  19.776  0.00  0.00    +0.000 OA
ATOM      4  N   UNL     1       0.391  11.077  18.075  0.00  0.00    +0.000 N 
ATOM      5  H   UNL     1       0.477  11.309  17.092  0.00  0.00    +0.000 HD
BRANCH   4   6
ATOM      6  C   UNL     1      -0.575  11.805  18.874  0.00  0.00    +0.000 C 
BRANCH   6   7
ATOM      7  C   UNL     1      -1.986  11.698  18.326  0.00  0.00    +0.000 A 
ATOM      8  C   UNL     1      -3.090  11.898  19.172  0.00  0.00    +0.000 A 
ATOM      9  C   UNL     1      -4.398  11.845  18.669  0.00  0.00    +0.000 A 
ATOM     10  C   UNL     1      -4.624  11.600  17.310  0.00  0.00    +0.000 A 
ATOM     11  C   UNL     1      -3.537  11.385  16.448  0.00  0.00    +0.000 A 
ATOM     12  C   UNL     1      -2.228  11.426  16.968  0.00  0.00    +0.000 A 
BRANCH  11  13
ATOM     13  O   UNL     1      -3.571  11.135  15.098  0.00  0.00    +0.000 OA
ATOM     14  C   UNL     1      -2.904   9.975  14.627  0.00  0.00    +0.000 C 
ENDBRANCH  11  13
BRANCH  10  15
ATOM     15  O   UNL     1      -5.918  11.574  16.849  0.00  0.00    +0.000 OA
ATOM     16  H   UNL     1      -6.306  12.464  16.820  0.00  0.00    +0.000 HD
ENDBRANCH  10  15
ENDBRANCH   6   7
ENDBRANCH   4   6
ENDBRANCH   1   2
BRANCH   1  17
ATOM     17  C   UNL     1       2.070   7.865  17.849  0.00  0.00    +0.000 C 
BRANCH  17  18
ATOM     18  C   UNL     1       2.504   7.457  19.249  0.00  0.00    +0.000 C 
BRANCH  18  19
ATOM     19  C   UNL     1       2.594   5.937  19.342  0.00  0.00    +0.000 C 
BRANCH  19  20
ATOM     20  C   UNL     1       1.880   5.435  20.586  0.00  0.00    +0.000 C 
BRANCH  20  21
ATOM     21  C   UNL     1       1.111   4.161  20.279  0.00  0.00    +0.000 C 
BRANCH  21  22
ATOM     22  C   UNL     1       1.111   3.899  18.782  0.00  0.00    +0.000 C 
BRANCH  22  23
ATOM     23  C   UNL     1       1.376   2.428  18.506  0.00  0.00    +0.000 C 
BRANCH  23  24
ATOM     24  C   UNL     1       2.678   2.269  17.741  0.00  0.00    +0.000 C 
BRANCH  24  25
ATOM     25  C   UNL     1       3.856   2.329  18.699  0.00  0.00    +0.000 C 
BRANCH  25  26
ATOM     26  C   UNL     1       4.771   3.484  18.332  0.00  0.00    +0.000 C 
BRANCH  26  27
ATOM     27  C   UNL     1       4.508   3.931  16.903  0.00  0.00    +0.000 C 
BRANCH  27  28
ATOM     28  C   UNL     1       5.810   3.977  16.116  0.00  0.00    +0.000 C 
BRANCH  28  30
ATOM     29  C   UNL     1       5.032   6.353  16.065  0.00  0.00    +0.000 C 
ATOM     30  C   UNL     1       6.192   5.415  15.791  0.00  0.00    +0.000 C 
ENDBRANCH  28  30
ENDBRANCH  27  28
ENDBRANCH  26  27
ENDBRANCH  25  26
ENDBRANCH  24  25
ENDBRANCH  23  24
ENDBRANCH  22  23
ENDBRANCH  21  22
ENDBRANCH  20  21
ENDBRANCH  19  20
ENDBRANCH  18  19
ENDBRANCH  17  18
ENDBRANCH   1  17
TORSDOF 18
ENDMDL
MODEL 2
REMARK VINA RESULT:      -6.1      3.738      9.133
REMARK  Name = 
REMARK  20 active torsions:
REMARK  status: ('A' for Active; 'I' for Inactive)
REMARK    1  A    between atoms: C_1  and  C_2
REMARK    2  A    between atoms: C_2  and  C_3
REMARK    3  A    between atoms: C_3  and  C_4
REMARK    4  A    between atoms: C_4  and  C_5
REMARK    5  A    between atoms: C_5  and  C_6
REMARK    6  A    between atoms: C_6  and  C_7
REMARK    7  A    between atoms: C_7  and  C_8
REMARK    8  A    between atoms: C_8  and  C_9
REMARK    9  A    between atoms: C_9  and  C_10
REMARK   10  A    between atoms: C_10  and  C_11
REMARK   11  A    between atoms: C_11  and  C_12
REMARK   12  A    between atoms: C_12  and  C_13
REMARK   13  A    between atoms: C_13  and  C_14
REMARK   14  A    between atoms: C_14  and  C_15
REMARK   15  A    between atoms: C_15  and  C_16
REMARK   16  A    between atoms: N_18  and  C_19
REMARK   17  A    between atoms: C_19  and  C_20
REMARK   18  A    between atoms: C_23  and  O_24
REMARK   19  A    between atoms: C_25  and  O_26
REMARK   20  A    between atoms: O_26  and  C_27
REMARK                            x       y       z     vdW  Elec       q    Type
REMARK                         _______ _______ _______ _____ _____    ______ ____
ROOT
ATOM      1  C   UNL     1       0.749   3.407  19.658  0.00  0.00    +0.000 C 
ENDROOT
BRANCH   1   2
ATOM      2  C   UNL     1       1.543   3.402  18.372  0.00  0.00    +0.000 C 
ATOM      3  O   UNL     1       1.134   3.913  17.323  0.00  0.00    +0.000 OA
ATOM      4  N   UNL     1       2.769   2.788  18.462  0.00  0.00    +0.000 N 
ATOM      5  H   UNL     1       3.042   2.302  19.308  0.00  0.00    +0.000 HD
BRANCH   4   6
ATOM      6  C   UNL     1       3.650   2.720  17.312  0.00  0.00    +0.000 C 
BRANCH   6   7
ATOM      7  C   UNL     1       4.504   3.964  17.156  0.00  0.00    +0.000 A 
ATOM      8  C   UNL     1       4.685   4.838  18.241  0.00  0.00    +0.000 A 
ATOM      9  C   UNL     1       5.507   5.968  18.123  0.00  0.00    +0.000 A 
ATOM     10  C   UNL     1       6.169   6.238  16.921  0.00  0.00    +0.000 A 
ATOM     11  C   UNL     1       5.994   5.386  15.819  0.00  0.00    +0.000 A 
ATOM     12  C   UNL     1       5.154   4.262  15.946  0.00  0.00    +0.000 A 
BRANCH  11  13
ATOM     13  O   UNL     1       6.562   5.494  14.573  0.00  0.00    +0.000 OA
ATOM     14  C   UNL     1       6.613   4.327  13.770  0.00  0.00    +0.000 C 
ENDBRANCH  11  13
BRANCH  10  15
ATOM     15  O   UNL     1       6.981   7.344  16.847  0.00  0.00    +0.000 OA
ATOM     16  H   UNL     1       7.861   7.120  16.501  0.00  0.00    +0.000 HD
ENDBRANCH  10  15
ENDBRANCH   6   7
ENDBRANCH   4   6
ENDBRANCH   1   2
BRANCH   1  17
ATOM     17  C   UNL     1       1.689   3.569  20.850  0.00  0.00    +0.000 C 
BRANCH  17  18
ATOM     18  C   UNL     1       2.498   4.854  20.779  0.00  0.00    +0.000 C 
BRANCH  18  19
ATOM     19  C   UNL     1       1.580   6.057  20.971  0.00  0.00    +0.000 C 
BRANCH  19  20
ATOM     20  C   UNL     1       1.634   6.970  19.757  0.00  0.00    +0.000 C 
BRANCH  20  21
ATOM     21  C   UNL     1       1.643   8.427  20.189  0.00  0.00    +0.000 C 
BRANCH  21  22
ATOM     22  C   UNL     1       1.184   8.547  21.633  0.00  0.00    +0.000 C 
BRANCH  22  23
ATOM     23  C   UNL     1      -0.329   8.683  21.692  0.00  0.00    +0.000 C 
BRANCH  23  24
ATOM     24  C   UNL     1      -0.725   9.579  22.853  0.00  0.00    +0.000 C 
BRANCH  24  25
ATOM     25  C   UNL     1      -0.346  11.019  22.554  0.00  0.00    +0.000 C 
BRANCH  25  26
ATOM     26  C   UNL     1      -1.572  11.804  22.120  0.00  0.00    +0.000 C 
BRANCH  26  27
ATOM     27  C   UNL     1      -1.233  12.696  20.936  0.00  0.00    +0.000 C 
BRANCH  27  28
ATOM     28  C   UNL     1      -0.523  11.892  19.857  0.00  0.00    +0.000 C 
BRANCH  28  30
ATOM     29  C   UNL     1      -0.798  10.166  18.068  0.00  0.00    +0.000 C 
ATOM     30  C   UNL     1      -1.519  11.056  19.064  0.00  0.00    +0.000 C 
ENDBRANCH  28  30
ENDBRANCH  27  28
ENDBRANCH  26  27
ENDBRANCH  25  26
ENDBRANCH  24  25
ENDBRANCH  23  24
ENDBRANCH  22  23
ENDBRANCH  21  22
ENDBRANCH  20  21
ENDBRANCH  19  20
ENDBRANCH  18  19
ENDBRANCH  17  18
ENDBRANCH   1  17
TORSDOF 18
ENDMDL
MODEL 3
REMARK VINA RESULT:      -6.1      1.610      2.434
REMARK  Name = 
REMARK  20 active torsions:
REMARK  status: ('A' for Active; 'I' for Inactive)
REMARK    1  A    between atoms: C_1  and  C_2
REMARK    2  A    between atoms: C_2  and  C_3
REMARK    3  A    between atoms: C_3  and  C_4
REMARK    4  A    between atoms: C_4  and  C_5
REMARK    5  A    between atoms: C_5  and  C_6
REMARK    6  A    between atoms: C_6  and  C_7
REMARK    7  A    between atoms: C_7  and  C_8
REMARK    8  A    between atoms: C_8  and  C_9
REMARK    9  A    between atoms: C_9  and  C_10
REMARK   10  A    between atoms: C_10  and  C_11
REMARK   11  A    between atoms: C_11  and  C_12
REMARK   12  A    between atoms: C_12  and  C_13
REMARK   13  A    between atoms: C_13  and  C_14
REMARK   14  A    between atoms: C_14  and  C_15
REMARK   15  A    between atoms: C_15  and  C_16
REMARK   16  A    between atoms: N_18  and  C_19
REMARK   17  A    between atoms: C_19  and  C_20
REMARK   18  A    between atoms: C_23  and  O_24
REMARK   19  A    between atoms: C_25  and  O_26
REMARK   20  A    between atoms: O_26  and  C_27
REMARK                            x       y       z     vdW  Elec       q    Type
REMARK                         _______ _______ _______ _____ _____    ______ ____
ROOT
ATOM      1  C   UNL     1       2.190   6.878  20.133  0.00  0.00    +0.000 C 
ENDROOT
BRANCH   1   2
ATOM      2  C   UNL     1       2.122   7.979  19.100  0.00  0.00    +0.000 C 
ATOM      3  O   UNL     1       2.920   8.076  18.162  0.00  0.00    +0.000 OA
ATOM      4  N   UNL     1       1.090   8.867  19.284  0.00  0.00    +0.000 N 
ATOM      5  H   UNL     1       0.504   8.816  20.108  0.00  0.00    +0.000 HD
BRANCH   4   6
ATOM      6  C   UNL     1       0.887   9.969  18.361  0.00  0.00    +0.000 C 
BRANCH   6   7
ATOM      7  C   UNL     1      -0.521  10.529  18.420  0.00  0.00    +0.000 A 
ATOM      8  C   UNL     1      -0.892  11.405  19.454  0.00  0.00    +0.000 A 
ATOM      9  C   UNL     1      -2.177  11.964  19.495  0.00  0.00    +0.000 A 
ATOM     10  C   UNL     1      -3.111  11.663  18.498  0.00  0.00    +0.000 A 
ATOM     11  C   UNL     1      -2.768  10.780  17.461  0.00  0.00    +0.000 A 
ATOM     12  C   UNL     1      -1.478  10.214  17.439  0.00  0.00    +0.000 A 
BRANCH  11  13
ATOM     13  O   UNL     1      -3.550  10.377  16.407  0.00  0.00    +0.000 OA
ATOM     14  C   UNL     1      -2.960  10.364  15.117  0.00  0.00    +0.000 C 
ENDBRANCH  11  13
BRANCH  10  15
ATOM     15  O   UNL     1      -4.355  12.243  18.560  0.00  0.00    +0.000 OA
ATOM     16  H   UNL     1      -5.059  11.577  18.625  0.00  0.00    +0.000 HD
ENDBRANCH  10  15
ENDBRANCH   6   7
ENDBRANCH   4   6
ENDBRANCH   1   2
BRANCH   1  17
ATOM     17  C   UNL     1       1.813   5.542  19.497  0.00  0.00    +0.000 C 
BRANCH  17  18
ATOM     18  C   UNL     1       1.146   4.598  20.486  0.00  0.00    +0.000 C 
BRANCH  18  19
ATOM     19  C   UNL     1       2.186   4.039  21.452  0.00  0.00    +0.000 C 
BRANCH  19  20
ATOM     20  C   UNL     1       2.728   2.713  20.945  0.00  0.00    +0.000 C 
BRANCH  20  21
ATOM     21  C   UNL     1       1.852   2.175  19.826  0.00  0.00    +0.000 C 
BRANCH  21  22
ATOM     22  C   UNL     1       2.713   1.527  18.754  0.00  0.00    +0.000 C 
BRANCH  22  23
ATOM     23  C   UNL     1       2.705   2.374  17.492  0.00  0.00    +0.000 C 
BRANCH  23  24
ATOM     24  C   UNL     1       3.975   3.204  17.415  0.00  0.00    +0.000 C 
BRANCH  24  25
ATOM     25  C   UNL     1       3.631   4.659  17.151  0.00  0.00    +0.000 C 
BRANCH  25  26
ATOM     26  C   UNL     1       4.899   5.493  17.082  0.00  0.00    +0.000 C 
BRANCH  26  27
ATOM     27  C   UNL     1       6.107   4.597  16.863  0.00  0.00    +0.000 C 
BRANCH  27  28
ATOM     28  C   UNL     1       7.390   5.410  16.948  0.00  0.00    +0.000 C 
BRANCH  28  30
ATOM     29  C   UNL     1       7.731   7.794  17.623  0.00  0.00    +0.000 C 
ATOM     30  C   UNL     1       7.317   6.412  18.094  0.00  0.00    +0.000 C 
ENDBRANCH  28  30
ENDBRANCH  27  28
ENDBRANCH  26  27
ENDBRANCH  25  26
ENDBRANCH  24  25
ENDBRANCH  23  24
ENDBRANCH  22  23
ENDBRANCH  21  22
ENDBRANCH  20  21
ENDBRANCH  19  20
ENDBRANCH  18  19
ENDBRANCH  17  18
ENDBRANCH   1  17
TORSDOF 18
ENDMDL
MODEL 4
REMARK VINA RESULT:      -6.1      4.255      9.418
REMARK  Name = 
REMARK  20 active torsions:
REMARK  status: ('A' for Active; 'I' for Inactive)
REMARK    1  A    between atoms: C_1  and  C_2
REMARK    2  A    between atoms: C_2  and  C_3
REMARK    3  A    between atoms: C_3  and  C_4
REMARK    4  A    between atoms: C_4  and  C_5
REMARK    5  A    between atoms: C_5  and  C_6
REMARK    6  A    between atoms: C_6  and  C_7
REMARK    7  A    between atoms: C_7  and  C_8
REMARK    8  A    between atoms: C_8  and  C_9
REMARK    9  A    between atoms: C_9  and  C_10
REMARK   10  A    between atoms: C_10  and  C_11
REMARK   11  A    between atoms: C_11  and  C_12
REMARK   12  A    between atoms: C_12  and  C_13
REMARK   13  A    between atoms: C_13  and  C_14
REMARK   14  A    between atoms: C_14  and  C_15
REMARK   15  A    between atoms: C_15  and  C_16
REMARK   16  A    between atoms: N_18  and  C_19
REMARK   17  A    between atoms: C_19  and  C_20
REMARK   18  A    between atoms: C_23  and  O_24
REMARK   19  A    between atoms: C_25  and  O_26
REMARK   20  A    between atoms: O_26  and  C_27
REMARK                            x       y       z     vdW  Elec       q    Type
REMARK                         _______ _______ _______ _____ _____    ______ ____
ROOT
ATOM      1  C   UNL     1       2.054   3.300  20.998  0.00  0.00    +0.000 C 
ENDROOT
BRANCH   1   2
ATOM      2  C   UNL     1       3.228   2.859  20.154  0.00  0.00    +0.000 C 
ATOM      3  O   UNL     1       4.157   2.173  20.593  0.00  0.00    +0.000 OA
ATOM      4  N   UNL     1       3.177   3.279  18.847  0.00  0.00    +0.000 N 
ATOM      5  H   UNL     1       2.450   3.912  18.535  0.00  0.00    +0.000 HD
BRANCH   4   6
ATOM      6  C   UNL     1       4.226   2.920  17.912  0.00  0.00    +0.000 C 
BRANCH   6   7
ATOM      7  C   UNL     1       5.133   4.088  17.573  0.00  0.00    +0.000 A 
ATOM      8  C   UNL     1       5.787   4.795  18.597  0.00  0.00    +0.000 A 
ATOM      9  C   UNL     1       6.662   5.849  18.295  0.00  0.00    +0.000 A 
ATOM     10  C   UNL     1       6.904   6.208  16.965  0.00  0.00    +0.000 A 
ATOM     11  C   UNL     1       6.253   5.524  15.926  0.00  0.00    +0.000 A 
ATOM     12  C   UNL     1       5.365   4.477  16.243  0.00  0.00    +0.000 A 
BRANCH  11  13
ATOM     13  O   UNL     1       6.371   5.738  14.575  0.00  0.00    +0.000 OA
ATOM     14  C   UNL     1       7.228   4.875  13.845  0.00  0.00    +0.000 C 
ENDBRANCH  11  13
BRANCH  10  15
ATOM     15  O   UNL     1       7.782   7.233  16.706  0.00  0.00    +0.000 OA
ATOM     16  H   UNL     1       8.346   7.037  15.940  0.00  0.00    +0.000 HD
ENDBRANCH  10  15
ENDBRANCH   6   7
ENDBRANCH   4   6
ENDBRANCH   1   2
BRANCH   1  17
ATOM     17  C   UNL     1       1.092   4.136  20.159  0.00  0.00    +0.000 C 
BRANCH  17  18
ATOM     18  C   UNL     1       0.993   5.572  20.651  0.00  0.00    +0.000 C 
BRANCH  18  19
ATOM     19  C   UNL     1       2.123   6.404  20.055  0.00  0.00    +0.000 C 
BRANCH  19  20
ATOM     20  C   UNL     1       1.777   7.884  20.099  0.00  0.00    +0.000 C 
BRANCH  20  21
ATOM     21  C   UNL     1       1.289   8.274  21.484  0.00  0.00    +0.000 C 
BRANCH  21  22
ATOM     22  C   UNL     1      -0.112   8.857  21.399  0.00  0.00    +0.000 C 
BRANCH  22  23
ATOM     23  C   UNL     1      -0.160  10.211  22.088  0.00  0.00    +0.000 C 
BRANCH  23  24
ATOM     24  C   UNL     1       0.092  11.317  21.079  0.00  0.00    +0.000 C 
BRANCH  24  25
ATOM     25  C   UNL     1      -1.074  11.414  20.110  0.00  0.00    +0.000 C 
BRANCH  25  26
ATOM     26  C   UNL     1      -0.569  11.385  18.678  0.00  0.00    +0.000 C 
BRANCH  26  27
ATOM     27  C   UNL     1      -1.103  10.157  17.957  0.00  0.00    +0.000 C 
BRANCH  27  28
ATOM     28  C   UNL     1      -2.143  10.563  16.923  0.00  0.00    +0.000 C 
BRANCH  28  30
ATOM     29  C   UNL     1      -4.554  11.222  16.831  0.00  0.00    +0.000 C 
ATOM     30  C   UNL     1      -3.548  10.250  17.420  0.00  0.00    +0.000 C 
ENDBRANCH  28  30
ENDBRANCH  27  28
ENDBRANCH  26  27
ENDBRANCH  25  26
ENDBRANCH  24  25
ENDBRANCH  23  24
ENDBRANCH  22  23
ENDBRANCH  21  22
ENDBRANCH  20  21
ENDBRANCH  19  20
ENDBRANCH  18  19
ENDBRANCH  17  18
ENDBRANCH   1  17
TORSDOF 18
ENDMDL
MODEL 5
REMARK VINA RESULT:      -6.1      3.627      6.051
REMARK  Name = 
REMARK  20 active torsions:
REMARK  status: ('A' for Active; 'I' for Inactive)
REMARK    1  A    between atoms: C_1  and  C_2
REMARK    2  A    between atoms: C_2  and  C_3
REMARK    3  A    between atoms: C_3  and  C_4
REMARK    4  A    between atoms: C_4  and  C_5
REMARK    5  A    between atoms: C_5  and  C_6
REMARK    6  A    between atoms: C_6  and  C_7
REMARK    7  A    between atoms: C_7  and  C_8
REMARK    8  A    between atoms: C_8  and  C_9
REMARK    9  A    between atoms: C_9  and  C_10
REMARK   10  A    between atoms: C_10  and  C_11
REMARK   11  A    between atoms: C_11  and  C_12
REMARK   12  A    between atoms: C_12  and  C_13
REMARK   13  A    between atoms: C_13  and  C_14
REMARK   14  A    between atoms: C_14  and  C_15
REMARK   15  A    between atoms: C_15  and  C_16
REMARK   16  A    between atoms: N_18  and  C_19
REMARK   17  A    between atoms: C_19  and  C_20
REMARK   18  A    between atoms: C_23  and  O_24
REMARK   19  A    between atoms: C_25  and  O_26
REMARK   20  A    between atoms: O_26  and  C_27
REMARK                            x       y       z     vdW  Elec       q    Type
REMARK                         _______ _______ _______ _____ _____    ______ ____
ROOT
ATOM      1  C   UNL     1       1.755   2.285  19.944  0.00  0.00    +0.000 C 
ENDROOT
BRANCH   1   2
ATOM      2  C   UNL     1       1.774   3.499  20.842  0.00  0.00    +0.000 C 
ATOM      3  O   UNL     1       1.930   3.432  22.066  0.00  0.00    +0.000 OA
ATOM      4  N   UNL     1       1.609   4.695  20.186  0.00  0.00    +0.000 N 
ATOM      5  H   UNL     1       1.396   4.716  19.196  0.00  0.00    +0.000 HD
BRANCH   4   6
ATOM      6  C   UNL     1       1.621   5.949  20.915  0.00  0.00    +0.000 C 
BRANCH   6   7
ATOM      7  C   UNL     1       1.728   7.155  20.002  0.00  0.00    +0.000 A 
ATOM      8  C   UNL     1       2.428   7.063  18.787  0.00  0.00    +0.000 A 
ATOM      9  C   UNL     1       2.498   8.157  17.914  0.00  0.00    +0.000 A 
ATOM     10  C   UNL     1       1.862   9.361  18.236  0.00  0.00    +0.000 A 
ATOM     11  C   UNL     1       1.167   9.482  19.450  0.00  0.00    +0.000 A 
ATOM     12  C   UNL     1       1.117   8.379  20.326  0.00  0.00    +0.000 A 
BRANCH  11  13
ATOM     13  O   UNL     1       0.488  10.576  19.926  0.00  0.00    +0.000 OA
ATOM     14  C   UNL     1       0.977  11.193  21.106  0.00  0.00    +0.000 C 
ENDBRANCH  11  13
BRANCH  10  15
ATOM     15  O   UNL     1       1.936  10.407  17.348  0.00  0.00    +0.000 OA
ATOM     16  H   UNL     1       1.905  10.098  16.427  0.00  0.00    +0.000 HD
ENDBRANCH  10  15
ENDBRANCH   6   7
ENDBRANCH   4   6
ENDBRANCH   1   2
BRANCH   1  17
ATOM     17  C   UNL     1       2.322   2.641  18.572  0.00  0.00    +0.000 C 
BRANCH  17  18
ATOM     18  C   UNL     1       3.713   2.065  18.353  0.00  0.00    +0.000 C 
BRANCH  18  19
ATOM     19  C   UNL     1       4.760   2.991  18.963  0.00  0.00    +0.000 C 
BRANCH  19  20
ATOM     20  C   UNL     1       4.435   4.443  18.653  0.00  0.00    +0.000 C 
BRANCH  20  21
ATOM     21  C   UNL     1       5.666   5.314  18.840  0.00  0.00    +0.000 C 
BRANCH  21  22
ATOM     22  C   UNL     1       6.892   4.614  18.276  0.00  0.00    +0.000 C 
BRANCH  22  23
ATOM     23  C   UNL     1       6.893   4.700  16.758  0.00  0.00    +0.000 C 
BRANCH  23  24
ATOM     24  C   UNL     1       6.026   5.861  16.303  0.00  0.00    +0.000 C 
BRANCH  24  25
ATOM     25  C   UNL     1       5.723   5.735  14.820  0.00  0.00    +0.000 C 
BRANCH  25  26
ATOM     26  C   UNL     1       6.176   4.379  14.306  0.00  0.00    +0.000 C 
BRANCH  26  27
ATOM     27  C   UNL     1       7.302   4.548  13.298  0.00  0.00    +0.000 C 
BRANCH  27  28
ATOM     28  C   UNL     1       6.901   3.956  11.955  0.00  0.00    +0.000 C 
BRANCH  28  30
ATOM     29  C   UNL     1       5.693   1.826  11.446  0.00  0.00    +0.000 C 
ATOM     30  C   UNL     1       5.581   3.205  12.070  0.00  0.00    +0.000 C 
ENDBRANCH  28  30
ENDBRANCH  27  28
ENDBRANCH  26  27
ENDBRANCH  25  26
ENDBRANCH  24  25
ENDBRANCH  23  24
ENDBRANCH  22  23
ENDBRANCH  21  22
ENDBRANCH  20  21
ENDBRANCH  19  20
ENDBRANCH  18  19
ENDBRANCH  17  18
ENDBRANCH   1  17
TORSDOF 18
ENDMDL
MODEL 6
REMARK VINA RESULT:      -6.0      2.667      5.004
REMARK  Name = 
REMARK  20 active torsions:
REMARK  status: ('A' for Active; 'I' for Inactive)
REMARK    1  A    between atoms: C_1  and  C_2
REMARK    2  A    between atoms: C_2  and  C_3
REMARK    3  A    between atoms: C_3  and  C_4
REMARK    4  A    between atoms: C_4  and  C_5
REMARK    5  A    between atoms: C_5  and  C_6
REMARK    6  A    between atoms: C_6  and  C_7
REMARK    7  A    between atoms: C_7  and  C_8
REMARK    8  A    between atoms: C_8  and  C_9
REMARK    9  A    between atoms: C_9  and  C_10
REMARK   10  A    between atoms: C_10  and  C_11
REMARK   11  A    between atoms: C_11  and  C_12
REMARK   12  A    between atoms: C_12  and  C_13
REMARK   13  A    between atoms: C_13  and  C_14
REMARK   14  A    between atoms: C_14  and  C_15
REMARK   15  A    between atoms: C_15  and  C_16
REMARK   16  A    between atoms: N_18  and  C_19
REMARK   17  A    between atoms: C_19  and  C_20
REMARK   18  A    between atoms: C_23  and  O_24
REMARK   19  A    between atoms: C_25  and  O_26
REMARK   20  A    between atoms: O_26  and  C_27
REMARK                            x       y       z     vdW  Elec       q    Type
REMARK                         _______ _______ _______ _____ _____    ______ ____
ROOT
ATOM      1  C   UNL     1       0.722   4.041  20.193  0.00  0.00    +0.000 C 
ENDROOT
BRANCH   1   2
ATOM      2  C   UNL     1       1.590   5.175  20.687  0.00  0.00    +0.000 C 
ATOM      3  O   UNL     1       2.658   4.999  21.283  0.00  0.00    +0.000 OA
ATOM      4  N   UNL     1       1.098   6.428  20.413  0.00  0.00    +0.000 N 
ATOM      5  H   UNL     1       0.180   6.545  20.001  0.00  0.00    +0.000 HD
BRANCH   4   6
ATOM      6  C   UNL     1       1.831   7.615  20.811  0.00  0.00    +0.000 C 
BRANCH   6   7
ATOM      7  C   UNL     1       0.918   8.765  21.194  0.00  0.00    +0.000 A 
ATOM      8  C   UNL     1       0.588   8.987  22.542  0.00  0.00    +0.000 A 
ATOM      9  C   UNL     1      -0.220  10.072  22.913  0.00  0.00    +0.000 A 
ATOM     10  C   UNL     1      -0.704  10.957  21.944  0.00  0.00    +0.000 A 
ATOM     11  C   UNL     1      -0.398  10.749  20.590  0.00  0.00    +0.000 A 
ATOM     12  C   UNL     1       0.403   9.647  20.228  0.00  0.00    +0.000 A 
BRANCH  11  13
ATOM     13  O   UNL     1      -0.781  11.510  19.514  0.00  0.00    +0.000 OA
ATOM     14  C   UNL     1      -1.212  10.830  18.346  0.00  0.00    +0.000 C 
ENDBRANCH  11  13
BRANCH  10  15
ATOM     15  O   UNL     1      -1.477  12.020  22.347  0.00  0.00    +0.000 OA
ATOM     16  H   UNL     1      -0.935  12.739  22.714  0.00  0.00    +0.000 HD
ENDBRANCH  10  15
ENDBRANCH   6   7
ENDBRANCH   4   6
ENDBRANCH   1   2
BRANCH   1  17
ATOM     17  C   UNL     1       1.308   2.703  20.637  0.00  0.00    +0.000 C 
BRANCH  17  18
ATOM     18  C   UNL     1       1.746   1.845  19.460  0.00  0.00    +0.000 C 
BRANCH  18  19
ATOM     19  C   UNL     1       3.184   2.180  19.079  0.00  0.00    +0.000 C 
BRANCH  19  20
ATOM     20  C   UNL     1       3.220   3.003  17.801  0.00  0.00    +0.000 C 
BRANCH  20  21
ATOM     21  C   UNL     1       4.527   3.771  17.702  0.00  0.00    +0.000 C 
BRANCH  21  22
ATOM     22  C   UNL     1       5.064   4.070  19.092  0.00  0.00    +0.000 C 
BRANCH  22  23
ATOM     23  C   UNL     1       6.099   5.181  19.027  0.00  0.00    +0.000 C 
BRANCH  23  24
ATOM     24  C   UNL     1       5.833   6.069  17.824  0.00  0.00    +0.000 C 
BRANCH  24  25
ATOM     25  C   UNL     1       7.102   6.230  17.004  0.00  0.00    +0.000 C 
BRANCH  25  26
ATOM     26  C   UNL     1       7.095   5.263  15.833  0.00  0.00    +0.000 C 
BRANCH  26  27
ATOM     27  C   UNL     1       5.836   5.452  15.001  0.00  0.00    +0.000 C 
BRANCH  27  28
ATOM     28  C   UNL     1       5.463   4.151  14.305  0.00  0.00    +0.000 C 
BRANCH  28  30
ATOM     29  C   UNL     1       5.713   3.103  12.049  0.00  0.00    +0.000 C 
ATOM     30  C   UNL     1       6.420   3.861  13.157  0.00  0.00    +0.000 C 
ENDBRANCH  28  30
ENDBRANCH  27  28
ENDBRANCH  26  27
ENDBRANCH  25  26
ENDBRANCH  24  25
ENDBRANCH  23  24
ENDBRANCH  22  23
ENDBRANCH  21  22
ENDBRANCH  20  21
ENDBRANCH  19  20
ENDBRANCH  18  19
ENDBRANCH  17  18
ENDBRANCH   1  17
TORSDOF 18
ENDMDL
MODEL 7
REMARK VINA RESULT:      -6.0      6.742     10.603
REMARK  Name = 
REMARK  20 active torsions:
REMARK  status: ('A' for Active; 'I' for Inactive)
REMARK    1  A    between atoms: C_1  and  C_2
REMARK    2  A    between atoms: C_2  and  C_3
REMARK    3  A    between atoms: C_3  and  C_4
REMARK    4  A    between atoms: C_4  and  C_5
REMARK    5  A    between atoms: C_5  and  C_6
REMARK    6  A    between atoms: C_6  and  C_7
REMARK    7  A    between atoms: C_7  and  C_8
REMARK    8  A    between atoms: C_8  and  C_9
REMARK    9  A    between atoms: C_9  and  C_10
REMARK   10  A    between atoms: C_10  and  C_11
REMARK   11  A    between atoms: C_11  and  C_12
REMARK   12  A    between atoms: C_12  and  C_13
REMARK   13  A    between atoms: C_13  and  C_14
REMARK   14  A    between atoms: C_14  and  C_15
REMARK   15  A    between atoms: C_15  and  C_16
REMARK   16  A    between atoms: N_18  and  C_19
REMARK   17  A    between atoms: C_19  and  C_20
REMARK   18  A    between atoms: C_23  and  O_24
REMARK   19  A    between atoms: C_25  and  O_26
REMARK   20  A    between atoms: O_26  and  C_27
REMARK                            x       y       z     vdW  Elec       q    Type
REMARK                         _______ _______ _______ _____ _____    ______ ____
ROOT
ATOM      1  C   UNL     1       7.778   6.779  18.361  0.00  0.00    +0.000 C 
ENDROOT
BRANCH   1   2
ATOM      2  C   UNL     1       7.182   5.519  17.779  0.00  0.00    +0.000 C 
ATOM      3  O   UNL     1       7.863   4.556  17.411  0.00  0.00    +0.000 OA
ATOM      4  N   UNL     1       5.810   5.525  17.696  0.00  0.00    +0.000 N 
ATOM      5  H   UNL     1       5.282   6.359  17.923  0.00  0.00    +0.000 HD
BRANCH   4   6
ATOM      6  C   UNL     1       5.094   4.376  17.173  0.00  0.00    +0.000 C 
BRANCH   6   7
ATOM      7  C   UNL     1       3.802   4.103  17.919  0.00  0.00    +0.000 A 
ATOM      8  C   UNL     1       3.055   2.946  17.640  0.00  0.00    +0.000 A 
ATOM      9  C   UNL     1       1.882   2.660  18.353  0.00  0.00    +0.000 A 
ATOM     10  C   UNL     1       1.440   3.522  19.362  0.00  0.00    +0.000 A 
ATOM     11  C   UNL     1       2.162   4.691  19.650  0.00  0.00    +0.000 A 
ATOM     12  C   UNL     1       3.332   4.975  18.917  0.00  0.00    +0.000 A 
BRANCH  11  13
ATOM     13  O   UNL     1       1.880   5.642  20.600  0.00  0.00    +0.000 OA
ATOM     14  C   UNL     1       1.984   7.004  20.219  0.00  0.00    +0.000 C 
ENDBRANCH  11  13
BRANCH  10  15
ATOM     15  O   UNL     1       0.296   3.201  20.052  0.00  0.00    +0.000 OA
ATOM     16  H   UNL     1       0.152   3.798  20.805  0.00  0.00    +0.000 HD
ENDBRANCH  10  15
ENDBRANCH   6   7
ENDBRANCH   4   6
ENDBRANCH   1   2
BRANCH   1  17
ATOM     17  C   UNL     1       7.906   7.846  17.277  0.00  0.00    +0.000 C 
BRANCH  17  18
ATOM     18  C   UNL     1       7.880   9.256  17.847  0.00  0.00    +0.000 C 
BRANCH  18  19
ATOM     19  C   UNL     1       9.006   9.427  18.861  0.00  0.00    +0.000 C 
BRANCH  19  20
ATOM     20  C   UNL     1       9.215  10.898  19.184  0.00  0.00    +0.000 C 
BRANCH  20  21
ATOM     21  C   UNL     1      10.699  11.219  19.261  0.00  0.00    +0.000 C 
BRANCH  21  22
ATOM     22  C   UNL     1      11.203  11.690  17.907  0.00  0.00    +0.000 C 
BRANCH  22  23
ATOM     23  C   UNL     1      11.955  13.002  18.055  0.00  0.00    +0.000 C 
BRANCH  23  24
ATOM     24  C   UNL     1      11.854  13.501  19.486  0.00  0.00    +0.000 C 
BRANCH  24  25
ATOM     25  C   UNL     1      10.969  14.734  19.547  0.00  0.00    +0.000 C 
BRANCH  25  26
ATOM     26  C   UNL     1      11.182  15.593  18.312  0.00  0.00    +0.000 C 
BRANCH  26  27
ATOM     27  C   UNL     1       9.860  15.824  17.598  0.00  0.00    +0.000 C 
BRANCH  27  28
ATOM     28  C   UNL     1       8.704  15.721  18.582  0.00  0.00    +0.000 C 
BRANCH  28  30
ATOM     29  C   UNL     1       6.606  17.051  18.869  0.00  0.00    +0.000 C 
ATOM     30  C   UNL     1       8.122  17.098  18.876  0.00  0.00    +0.000 C 
ENDBRANCH  28  30
ENDBRANCH  27  28
ENDBRANCH  26  27
ENDBRANCH  25  26
ENDBRANCH  24  25
ENDBRANCH  23  24
ENDBRANCH  22  23
ENDBRANCH  21  22
ENDBRANCH  20  21
ENDBRANCH  19  20
ENDBRANCH  18  19
ENDBRANCH  17  18
ENDBRANCH   1  17
TORSDOF 18
ENDMDL
MODEL 8
REMARK VINA RESULT:      -6.0      3.166      3.971
REMARK  Name = 
REMARK  20 active torsions:
REMARK  status: ('A' for Active; 'I' for Inactive)
REMARK    1  A    between atoms: C_1  and  C_2
REMARK    2  A    between atoms: C_2  and  C_3
REMARK    3  A    between atoms: C_3  and  C_4
REMARK    4  A    between atoms: C_4  and  C_5
REMARK    5  A    between atoms: C_5  and  C_6
REMARK    6  A    between atoms: C_6  and  C_7
REMARK    7  A    between atoms: C_7  and  C_8
REMARK    8  A    between atoms: C_8  and  C_9
REMARK    9  A    between atoms: C_9  and  C_10
REMARK   10  A    between atoms: C_10  and  C_11
REMARK   11  A    between atoms: C_11  and  C_12
REMARK   12  A    between atoms: C_12  and  C_13
REMARK   13  A    between atoms: C_13  and  C_14
REMARK   14  A    between atoms: C_14  and  C_15
REMARK   15  A    between atoms: C_15  and  C_16
REMARK   16  A    between atoms: N_18  and  C_19
REMARK   17  A    between atoms: C_19  and  C_20
REMARK   18  A    between atoms: C_23  and  O_24
REMARK   19  A    between atoms: C_25  and  O_26
REMARK   20  A    between atoms: O_26  and  C_27
REMARK                            x       y       z     vdW  Elec       q    Type
REMARK                         _______ _______ _______ _____ _____    ______ ____
ROOT
ATOM      1  C   UNL     1      -0.206   8.532  21.544  0.00  0.00    +0.000 C 
ENDROOT
BRANCH   1   2
ATOM      2  C   UNL     1      -0.340   9.899  22.175  0.00  0.00    +0.000 C 
ATOM      3  O   UNL     1       0.094  10.170  23.300  0.00  0.00    +0.000 OA
ATOM      4  N   UNL     1      -0.982  10.827  21.391  0.00  0.00    +0.000 N 
ATOM      5  H   UNL     1      -1.404  10.556  20.511  0.00  0.00    +0.000 HD
BRANCH   4   6
ATOM      6  C   UNL     1      -1.171  12.188  21.856  0.00  0.00    +0.000 C 
BRANCH   6   7
ATOM      7  C   UNL     1      -2.545  12.414  22.457  0.00  0.00    +0.000 A 
ATOM      8  C   UNL     1      -2.737  12.311  23.845  0.00  0.00    +0.000 A 
ATOM      9  C   UNL     1      -3.992  12.561  24.417  0.00  0.00    +0.000 A 
ATOM     10  C   UNL     1      -5.076  12.927  23.611  0.00  0.00    +0.000 A 
ATOM     11  C   UNL     1      -4.912  13.025  22.221  0.00  0.00    +0.000 A 
ATOM     12  C   UNL     1      -3.649  12.757  21.656  0.00  0.00    +0.000 A 
BRANCH  11  13
ATOM     13  O   UNL     1      -5.856  13.370  21.285  0.00  0.00    +0.000 OA
ATOM     14  C   UNL     1      -6.317  12.355  20.408  0.00  0.00    +0.000 C 
ENDBRANCH  11  13
BRANCH  10  15
ATOM     15  O   UNL     1      -6.287  13.182  24.209  0.00  0.00    +0.000 OA
ATOM     16  H   UNL     1      -6.932  12.479  24.025  0.00  0.00    +0.000 HD
ENDBRANCH  10  15
ENDBRANCH   6   7
ENDBRANCH   4   6
ENDBRANCH   1   2
BRANCH   1  17
ATOM     17  C   UNL     1       1.269   8.177  21.378  0.00  0.00    +0.000 C 
BRANCH  17  18
ATOM     18  C   UNL     1       1.679   8.076  19.917  0.00  0.00    +0.000 C 
BRANCH  18  19
ATOM     19  C   UNL     1       2.291   6.707  19.642  0.00  0.00    +0.000 C 
BRANCH  19  20
ATOM     20  C   UNL     1       1.966   5.740  20.770  0.00  0.00    +0.000 C 
BRANCH  20  21
ATOM     21  C   UNL     1       1.083   4.611  20.264  0.00  0.00    +0.000 C 
BRANCH  21  22
ATOM     22  C   UNL     1       1.445   4.269  18.828  0.00  0.00    +0.000 C 
BRANCH  22  23
ATOM     23  C   UNL     1       1.245   2.784  18.577  0.00  0.00    +0.000 C 
BRANCH  23  24
ATOM     24  C   UNL     1       2.509   2.021  18.935  0.00  0.00    +0.000 C 
BRANCH  24  25
ATOM     25  C   UNL     1       3.717   2.684  18.295  0.00  0.00    +0.000 C 
BRANCH  25  26
ATOM     26  C   UNL     1       4.643   3.232  19.367  0.00  0.00    +0.000 C 
BRANCH  26  27
ATOM     27  C   UNL     1       5.226   4.565  18.927  0.00  0.00    +0.000 C 
BRANCH  27  28
ATOM     28  C   UNL     1       4.962   4.793  17.445  0.00  0.00    +0.000 C 
BRANCH  28  30
ATOM     29  C   UNL     1       6.279   6.907  17.222  0.00  0.00    +0.000 C 
ATOM     30  C   UNL     1       4.899   6.282  17.131  0.00  0.00    +0.000 C 
ENDBRANCH  28  30
ENDBRANCH  27  28
ENDBRANCH  26  27
ENDBRANCH  25  26
ENDBRANCH  24  25
ENDBRANCH  23  24
ENDBRANCH  22  23
ENDBRANCH  21  22
ENDBRANCH  20  21
ENDBRANCH  19  20
ENDBRANCH  18  19
ENDBRANCH  17  18
ENDBRANCH   1  17
TORSDOF 18
ENDMDL
MODEL 9
REMARK VINA RESULT:      -6.0      6.165      9.784
REMARK  Name = 
REMARK  20 active torsions:
REMARK  status: ('A' for Active; 'I' for Inactive)
REMARK    1  A    between atoms: C_1  and  C_2
REMARK    2  A    between atoms: C_2  and  C_3
REMARK    3  A    between atoms: C_3  and  C_4
REMARK    4  A    between atoms: C_4  and  C_5
REMARK    5  A    between atoms: C_5  and  C_6
REMARK    6  A    between atoms: C_6  and  C_7
REMARK    7  A    between atoms: C_7  and  C_8
REMARK    8  A    between atoms: C_8  and  C_9
REMARK    9  A    between atoms: C_9  and  C_10
REMARK   10  A    between atoms: C_10  and  C_11
REMARK   11  A    between atoms: C_11  and  C_12
REMARK   12  A    between atoms: C_12  and  C_13
REMARK   13  A    between atoms: C_13  and  C_14
REMARK   14  A    between atoms: C_14  and  C_15
REMARK   15  A    between atoms: C_15  and  C_16
REMARK   16  A    between atoms: N_18  and  C_19
REMARK   17  A    between atoms: C_19  and  C_20
REMARK   18  A    between atoms: C_23  and  O_24
REMARK   19  A    between atoms: C_25  and  O_26
REMARK   20  A    between atoms: O_26  and  C_27
REMARK                            x       y       z     vdW  Elec       q    Type
REMARK                         _______ _______ _______ _____ _____    ______ ____
ROOT
ATOM      1  C   UNL     1       7.646   5.165  18.024  0.00  0.00    +0.000 C 
ENDROOT
BRANCH   1   2
ATOM      2  C   UNL     1       6.242   4.619  18.142  0.00  0.00    +0.000 C 
ATOM      3  O   UNL     1       5.865   3.921  19.089  0.00  0.00    +0.000 OA
ATOM      4  N   UNL     1       5.406   4.971  17.109  0.00  0.00    +0.000 N 
ATOM      5  H   UNL     1       5.763   5.471  16.304  0.00  0.00    +0.000 HD
BRANCH   4   6
ATOM      6  C   UNL     1       4.023   4.535  17.094  0.00  0.00    +0.000 C 
BRANCH   6   7
ATOM      7  C   UNL     1       3.218   5.106  18.246  0.00  0.00    +0.000 A 
ATOM      8  C   UNL     1       3.190   6.492  18.472  0.00  0.00    +0.000 A 
ATOM      9  C   UNL     1       2.415   7.036  19.507  0.00  0.00    +0.000 A 
ATOM     10  C   UNL     1       1.648   6.203  20.328  0.00  0.00    +0.000 A 
ATOM     11  C   UNL     1       1.668   4.813  20.129  0.00  0.00    +0.000 A 
ATOM     12  C   UNL     1       2.463   4.278  19.096  0.00  0.00    +0.000 A 
BRANCH  11  13
ATOM     13  O   UNL     1       0.982   3.853  20.832  0.00  0.00    +0.000 OA
ATOM     14  C   UNL     1       1.736   2.966  21.642  0.00  0.00    +0.000 C 
ENDBRANCH  11  13
BRANCH  10  15
ATOM     15  O   UNL     1       0.886   6.772  21.320  0.00  0.00    +0.000 OA
ATOM     16  H   UNL     1       1.389   7.433  21.823  0.00  0.00    +0.000 HD
ENDBRANCH  10  15
ENDBRANCH   6   7
ENDBRANCH   4   6
ENDBRANCH   1   2
BRANCH   1  17
ATOM     17  C   UNL     1       7.622   6.525  17.332  0.00  0.00    +0.000 C 
BRANCH  17  18
ATOM     18  C   UNL     1       8.114   7.643  18.237  0.00  0.00    +0.000 C 
BRANCH  18  19
ATOM     19  C   UNL     1       7.679   8.994  17.677  0.00  0.00    +0.000 C 
BRANCH  19  20
ATOM     20  C   UNL     1       8.736  10.051  17.954  0.00  0.00    +0.000 C 
BRANCH  20  21
ATOM     21  C   UNL     1       9.204   9.970  19.397  0.00  0.00    +0.000 C 
BRANCH  21  22
ATOM     22  C   UNL     1       9.686  11.333  19.867  0.00  0.00    +0.000 C 
BRANCH  22  23
ATOM     23  C   UNL     1      11.188  11.455  19.665  0.00  0.00    +0.000 C 
BRANCH  23  24
ATOM     24  C   UNL     1      11.480  12.253  18.406  0.00  0.00    +0.000 C 
BRANCH  24  25
ATOM     25  C   UNL     1      12.235  13.523  18.758  0.00  0.00    +0.000 C 
BRANCH  25  26
ATOM     26  C   UNL     1      11.338  14.735  18.571  0.00  0.00    +0.000 C 
BRANCH  26  27
ATOM     27  C   UNL     1      10.589  15.038  19.859  0.00  0.00    +0.000 C 
BRANCH  27  28
ATOM     28  C   UNL     1       9.087  14.982  19.620  0.00  0.00    +0.000 C 
BRANCH  28  30
ATOM     29  C   UNL     1       7.714  13.850  17.863  0.00  0.00    +0.000 C 
ATOM     30  C   UNL     1       8.780  14.895  18.131  0.00  0.00    +0.000 C 
ENDBRANCH  28  30
ENDBRANCH  27  28
ENDBRANCH  26  27
ENDBRANCH  25  26
ENDBRANCH  24  25
ENDBRANCH  23  24
ENDBRANCH  22  23
ENDBRANCH  21  22
ENDBRANCH  20  21
ENDBRANCH  19  20
ENDBRANCH  18  19
ENDBRANCH  17  18
ENDBRANCH   1  17
TORSDOF 18
ENDMDL
