MODEL 1
REMARK VINA RESULT:      -8.8      0.000      0.000
REMARK  Name = 
REMARK  4 active torsions:
REMARK  status: ('A' for Active; 'I' for Inactive)
REMARK    1  A    between atoms: C_1  and  C_2
REMARK    2  A    between atoms: C_5  and  N_6
REMARK    3  A    between atoms: N_6  and  N_7
REMARK    4  A    between atoms: C_11  and  C_12
REMARK                            x       y       z     vdW  Elec       q    Type
REMARK                         _______ _______ _______ _____ _____    ______ ____
ROOT
ATOM      1  N   UNL     1       6.817   5.886  16.963  0.00  0.00    +0.000 N 
ATOM      2  C   UNL     1       7.227   4.862  17.770  0.00  0.00    +0.000 C 
ATOM      3  O   UNL     1       8.197   4.125  17.624  0.00  0.00    +0.000 OA
ATOM      4  C   UNL     1       6.167   4.586  18.724  0.00  0.00    +0.000 C 
ATOM      5  C   UNL     1       5.041   5.135  18.235  0.00  0.00    +0.000 C 
ATOM      6  C   UNL     1       5.445   6.013  17.091  0.00  0.00    +0.000 C 
ATOM      7  O   UNL     1       4.666   6.666  16.419  0.00  0.00    +0.000 OA
ENDROOT
BRANCH   5   8
ATOM      8  C   UNL     1       3.692   4.794  18.752  0.00  0.00    +0.000 A 
ATOM      9  C   UNL     1       3.220   5.180  20.008  0.00  0.00    +0.000 A 
ATOM     10  C   UNL     1       1.942   4.801  20.451  0.00  0.00    +0.000 A 
ATOM     11  C   UNL     1       1.099   4.043  19.632  0.00  0.00    +0.000 A 
ATOM     12  C   UNL     1       1.526   3.684  18.364  0.00  0.00    +0.000 A 
ATOM     13  C   UNL     1       2.800   4.062  17.932  0.00  0.00    +0.000 A 
ENDBRANCH   5   8
BRANCH   1  14
ATOM     14  N   UNL     1       7.479   5.956  15.689  0.00  0.00    +0.000 N 
ATOM     15  H   UNL     1       7.319   6.901  15.320  0.00  0.00    +0.000 HD
BRANCH  14  20
ATOM     16  C   UNL     1       5.191   2.801  11.468  0.00  0.00    +0.000 C 
ATOM     17  C   UNL     1       5.874   3.496  12.611  0.00  0.00    +0.000 A 
ATOM     18  C   UNL     1       5.350   3.460  13.902  0.00  0.00    +0.000 A 
ATOM     19  C   UNL     1       5.937   4.216  14.929  0.00  0.00    +0.000 A 
ATOM     20  C   UNL     1       7.076   5.011  14.697  0.00  0.00    +0.000 A 
ATOM     21  C   UNL     1       7.627   5.000  13.420  0.00  0.00    +0.000 A 
ATOM     22  C   UNL     1       7.031   4.254  12.384  0.00  0.00    +0.000 A 
ENDBRANCH  14  20
ENDBRANCH   1  14
TORSDOF 3
ENDMDL
MODEL 2
REMARK VINA RESULT:      -8.8      0.303      1.509
REMARK  Name = 
REMARK  4 active torsions:
REMARK  status: ('A' for Active; 'I' for Inactive)
REMARK    1  A    between atoms: C_1  and  C_2
REMARK    2  A    between atoms: C_5  and  N_6
REMARK    3  A    between atoms: N_6  and  N_7
REMARK    4  A    between atoms: C_11  and  C_12
REMARK                            x       y       z     vdW  Elec       q    Type
REMARK                         _______ _______ _______ _____ _____    ______ ____
ROOT
ATOM      1  N   UNL     1       6.918   5.844  16.794  0.00  0.00    +0.000 N 
ATOM      2  C   UNL     1       7.298   4.839  17.638  0.00  0.00    +0.000 C 
ATOM      3  O   UNL     1       8.249   4.073  17.524  0.00  0.00    +0.000 OA
ATOM      4  C   UNL     1       6.225   4.623  18.594  0.00  0.00    +0.000 C 
ATOM      5  C   UNL     1       5.117   5.183  18.079  0.00  0.00    +0.000 C 
ATOM      6  C   UNL     1       5.549   6.010  16.908  0.00  0.00    +0.000 C 
ATOM      7  O   UNL     1       4.791   6.659  16.209  0.00  0.00    +0.000 OA
ENDROOT
BRANCH   5   8
ATOM      8  C   UNL     1       3.757   4.894  18.598  0.00  0.00    +0.000 A 
ATOM      9  C   UNL     1       2.771   4.227  17.867  0.00  0.00    +0.000 A 
ATOM     10  C   UNL     1       1.492   4.007  18.405  0.00  0.00    +0.000 A 
ATOM     11  C   UNL     1       1.180   4.434  19.699  0.00  0.00    +0.000 A 
ATOM     12  C   UNL     1       2.152   5.060  20.462  0.00  0.00    +0.000 A 
ATOM     13  C   UNL     1       3.421   5.277  19.919  0.00  0.00    +0.000 A 
ENDBRANCH   5   8
BRANCH   1  14
ATOM     14  N   UNL     1       7.589   5.853  15.522  0.00  0.00    +0.000 N 
ATOM     15  H   UNL     1       7.675   6.835  15.235  0.00  0.00    +0.000 HD
BRANCH  14  20
ATOM     16  C   UNL     1       5.775   2.271  11.413  0.00  0.00    +0.000 C 
ATOM     17  C   UNL     1       6.148   3.314  12.427  0.00  0.00    +0.000 A 
ATOM     18  C   UNL     1       7.161   4.239  12.181  0.00  0.00    +0.000 A 
ATOM     19  C   UNL     1       7.575   5.126  13.187  0.00  0.00    +0.000 A 
ATOM     20  C   UNL     1       6.972   5.127  14.459  0.00  0.00    +0.000 A 
ATOM     21  C   UNL     1       5.923   4.240  14.682  0.00  0.00    +0.000 A 
ATOM     22  C   UNL     1       5.516   3.339  13.678  0.00  0.00    +0.000 A 
ENDBRANCH  14  20
ENDBRANCH   1  14
TORSDOF 3
ENDMDL
MODEL 3
REMARK VINA RESULT:      -8.8      0.091      1.049
REMARK  Name = 
REMARK  4 active torsions:
REMARK  status: ('A' for Active; 'I' for Inactive)
REMARK    1  A    between atoms: C_1  and  C_2
REMARK    2  A    between atoms: C_5  and  N_6
REMARK    3  A    between atoms: N_6  and  N_7
REMARK    4  A    between atoms: C_11  and  C_12
REMARK                            x       y       z     vdW  Elec       q    Type
REMARK                         _______ _______ _______ _____ _____    ______ ____
ROOT
ATOM      1  N   UNL     1       6.811   5.877  16.959  0.00  0.00    +0.000 N 
ATOM      2  C   UNL     1       7.213   4.845  17.760  0.00  0.00    +0.000 C 
ATOM      3  O   UNL     1       8.180   4.105  17.614  0.00  0.00    +0.000 OA
ATOM      4  C   UNL     1       6.146   4.566  18.705  0.00  0.00    +0.000 C 
ATOM      5  C   UNL     1       5.026   5.123  18.215  0.00  0.00    +0.000 C 
ATOM      6  C   UNL     1       5.439   6.008  17.080  0.00  0.00    +0.000 C 
ATOM      7  O   UNL     1       4.667   6.669  16.408  0.00  0.00    +0.000 OA
ENDROOT
BRANCH   5   8
ATOM      8  C   UNL     1       3.672   4.783  18.721  0.00  0.00    +0.000 A 
ATOM      9  C   UNL     1       2.714   4.092  17.976  0.00  0.00    +0.000 A 
ATOM     10  C   UNL     1       1.440   3.825  18.502  0.00  0.00    +0.000 A 
ATOM     11  C   UNL     1       1.105   4.226  19.798  0.00  0.00    +0.000 A 
ATOM     12  C   UNL     1       2.050   4.875  20.575  0.00  0.00    +0.000 A 
ATOM     13  C   UNL     1       3.315   5.140  20.043  0.00  0.00    +0.000 A 
ENDBRANCH   5   8
BRANCH   1  14
ATOM     14  N   UNL     1       7.481   5.953  15.689  0.00  0.00    +0.000 N 
ATOM     15  H   UNL     1       7.320   6.899  15.322  0.00  0.00    +0.000 HD
BRANCH  14  20
ATOM     16  C   UNL     1       5.217   2.798  11.455  0.00  0.00    +0.000 C 
ATOM     17  C   UNL     1       5.896   3.495  12.599  0.00  0.00    +0.000 A 
ATOM     18  C   UNL     1       5.383   3.437  13.894  0.00  0.00    +0.000 A 
ATOM     19  C   UNL     1       5.964   4.193  14.924  0.00  0.00    +0.000 A 
ATOM     20  C   UNL     1       7.087   5.011  14.691  0.00  0.00    +0.000 A 
ATOM     21  C   UNL     1       7.629   5.022  13.409  0.00  0.00    +0.000 A 
ATOM     22  C   UNL     1       7.038   4.275  12.371  0.00  0.00    +0.000 A 
ENDBRANCH  14  20
ENDBRANCH   1  14
TORSDOF 3
ENDMDL
MODEL 4
REMARK VINA RESULT:      -8.7      0.373      1.112
REMARK  Name = 
REMARK  4 active torsions:
REMARK  status: ('A' for Active; 'I' for Inactive)
REMARK    1  A    between atoms: C_1  and  C_2
REMARK    2  A    between atoms: C_5  and  N_6
REMARK    3  A    between atoms: N_6  and  N_7
REMARK    4  A    between atoms: C_11  and  C_12
REMARK                            x       y       z     vdW  Elec       q    Type
REMARK                         _______ _______ _______ _____ _____    ______ ____
ROOT
ATOM      1  N   UNL     1       6.985   5.885  16.782  0.00  0.00    +0.000 N 
ATOM      2  C   UNL     1       7.346   4.824  17.565  0.00  0.00    +0.000 C 
ATOM      3  O   UNL     1       8.253   4.021  17.381  0.00  0.00    +0.000 OA
ATOM      4  C   UNL     1       6.299   4.616  18.552  0.00  0.00    +0.000 C 
ATOM      5  C   UNL     1       5.202   5.250  18.106  0.00  0.00    +0.000 C 
ATOM      6  C   UNL     1       5.631   6.109  16.956  0.00  0.00    +0.000 C 
ATOM      7  O   UNL     1       4.880   6.825  16.317  0.00  0.00    +0.000 OA
ENDROOT
BRANCH   5   8
ATOM      8  C   UNL     1       3.849   5.002  18.664  0.00  0.00    +0.000 A 
ATOM      9  C   UNL     1       3.293   5.737  19.713  0.00  0.00    +0.000 A 
ATOM     10  C   UNL     1       2.017   5.435  20.215  0.00  0.00    +0.000 A 
ATOM     11  C   UNL     1       1.259   4.400  19.661  0.00  0.00    +0.000 A 
ATOM     12  C   UNL     1       1.768   3.682  18.591  0.00  0.00    +0.000 A 
ATOM     13  C   UNL     1       3.040   3.987  18.098  0.00  0.00    +0.000 A 
ENDBRANCH   5   8
BRANCH   1  14
ATOM     14  N   UNL     1       7.608   5.920  15.487  0.00  0.00    +0.000 N 
ATOM     15  H   UNL     1       7.642   6.905  15.198  0.00  0.00    +0.000 HD
BRANCH  14  20
ATOM     16  C   UNL     1       5.759   2.230  11.491  0.00  0.00    +0.000 C 
ATOM     17  C   UNL     1       6.142   3.301  12.472  0.00  0.00    +0.000 A 
ATOM     18  C   UNL     1       7.166   4.205  12.198  0.00  0.00    +0.000 A 
ATOM     19  C   UNL     1       7.589   5.119  13.176  0.00  0.00    +0.000 A 
ATOM     20  C   UNL     1       6.984   5.168  14.447  0.00  0.00    +0.000 A 
ATOM     21  C   UNL     1       5.925   4.301  14.695  0.00  0.00    +0.000 A 
ATOM     22  C   UNL     1       5.509   3.373  13.721  0.00  0.00    +0.000 A 
ENDBRANCH  14  20
ENDBRANCH   1  14
TORSDOF 3
ENDMDL
MODEL 5
REMARK VINA RESULT:      -8.7      1.639      6.707
REMARK  Name = 
REMARK  4 active torsions:
REMARK  status: ('A' for Active; 'I' for Inactive)
REMARK    1  A    between atoms: C_1  and  C_2
REMARK    2  A    between atoms: C_5  and  N_6
REMARK    3  A    between atoms: N_6  and  N_7
REMARK    4  A    between atoms: C_11  and  C_12
REMARK                            x       y       z     vdW  Elec       q    Type
REMARK                         _______ _______ _______ _____ _____    ______ ____
ROOT
ATOM      1  N   UNL     1       5.662   4.699  18.050  0.00  0.00    +0.000 N 
ATOM      2  C   UNL     1       6.957   5.136  18.026  0.00  0.00    +0.000 C 
ATOM      3  O   UNL     1       7.513   5.899  18.808  0.00  0.00    +0.000 OA
ATOM      4  C   UNL     1       7.535   4.762  16.747  0.00  0.00    +0.000 C 
ATOM      5  C   UNL     1       6.515   4.493  15.914  0.00  0.00    +0.000 C 
ATOM      6  C   UNL     1       5.275   4.423  16.751  0.00  0.00    +0.000 C 
ATOM      7  O   UNL     1       4.162   4.194  16.311  0.00  0.00    +0.000 OA
ENDROOT
BRANCH   5   8
ATOM      8  C   UNL     1       6.685   4.394  14.443  0.00  0.00    +0.000 A 
ATOM      9  C   UNL     1       5.982   3.495  13.637  0.00  0.00    +0.000 A 
ATOM     10  C   UNL     1       6.208   3.431  12.253  0.00  0.00    +0.000 A 
ATOM     11  C   UNL     1       7.131   4.284  11.641  0.00  0.00    +0.000 A 
ATOM     12  C   UNL     1       7.811   5.214  12.409  0.00  0.00    +0.000 A 
ATOM     13  C   UNL     1       7.582   5.270  13.787  0.00  0.00    +0.000 A 
ENDBRANCH   5   8
BRANCH   1  14
ATOM     14  N   UNL     1       4.806   5.392  18.975  0.00  0.00    +0.000 N 
ATOM     15  H   UNL     1       5.409   5.764  19.719  0.00  0.00    +0.000 HD
BRANCH  14  20
ATOM     16  C   UNL     1       1.105   2.430  22.219  0.00  0.00    +0.000 C 
ATOM     17  C   UNL     1       1.987   3.156  21.245  0.00  0.00    +0.000 A 
ATOM     18  C   UNL     1       3.083   2.533  20.652  0.00  0.00    +0.000 A 
ATOM     19  C   UNL     1       3.964   3.264  19.839  0.00  0.00    +0.000 A 
ATOM     20  C   UNL     1       3.760   4.634  19.582  0.00  0.00    +0.000 A 
ATOM     21  C   UNL     1       2.633   5.238  20.132  0.00  0.00    +0.000 A 
ATOM     22  C   UNL     1       1.756   4.509  20.959  0.00  0.00    +0.000 A 
ENDBRANCH  14  20
ENDBRANCH   1  14
TORSDOF 3
ENDMDL
MODEL 6
REMARK VINA RESULT:      -8.6      1.222      6.116
REMARK  Name = 
REMARK  4 active torsions:
REMARK  status: ('A' for Active; 'I' for Inactive)
REMARK    1  A    between atoms: C_1  and  C_2
REMARK    2  A    between atoms: C_5  and  N_6
REMARK    3  A    between atoms: N_6  and  N_7
REMARK    4  A    between atoms: C_11  and  C_12
REMARK                            x       y       z     vdW  Elec       q    Type
REMARK                         _______ _______ _______ _____ _____    ______ ____
ROOT
ATOM      1  N   UNL     1       5.812   5.958  17.977  0.00  0.00    +0.000 N 
ATOM      2  C   UNL     1       4.823   6.596  17.281  0.00  0.00    +0.000 C 
ATOM      3  O   UNL     1       3.732   6.975  17.692  0.00  0.00    +0.000 OA
ATOM      4  C   UNL     1       5.151   6.529  15.867  0.00  0.00    +0.000 C 
ATOM      5  C   UNL     1       6.060   5.550  15.717  0.00  0.00    +0.000 C 
ATOM      6  C   UNL     1       6.527   5.174  17.089  0.00  0.00    +0.000 C 
ATOM      7  O   UNL     1       7.357   4.313  17.320  0.00  0.00    +0.000 OA
ENDROOT
BRANCH   5   8
ATOM      8  C   UNL     1       6.395   4.962  14.396  0.00  0.00    +0.000 A 
ATOM      9  C   UNL     1       7.505   5.339  13.636  0.00  0.00    +0.000 A 
ATOM     10  C   UNL     1       7.754   4.765  12.379  0.00  0.00    +0.000 A 
ATOM     11  C   UNL     1       6.904   3.780  11.865  0.00  0.00    +0.000 A 
ATOM     12  C   UNL     1       5.821   3.356  12.616  0.00  0.00    +0.000 A 
ATOM     13  C   UNL     1       5.578   3.935  13.865  0.00  0.00    +0.000 A 
ENDBRANCH   5   8
BRANCH   1  14
ATOM     14  N   UNL     1       5.429   5.489  19.280  0.00  0.00    +0.000 N 
ATOM     15  H   UNL     1       6.256   5.043  19.693  0.00  0.00    +0.000 HD
BRANCH  14  20
ATOM     16  C   UNL     1       0.659   2.316  18.851  0.00  0.00    +0.000 C 
ATOM     17  C   UNL     1       1.942   3.058  19.093  0.00  0.00    +0.000 A 
ATOM     18  C   UNL     1       1.990   4.177  19.921  0.00  0.00    +0.000 A 
ATOM     19  C   UNL     1       3.171   4.928  20.037  0.00  0.00    +0.000 A 
ATOM     20  C   UNL     1       4.342   4.565  19.342  0.00  0.00    +0.000 A 
ATOM     21  C   UNL     1       4.304   3.415  18.560  0.00  0.00    +0.000 A 
ATOM     22  C   UNL     1       3.116   2.670  18.432  0.00  0.00    +0.000 A 
ENDBRANCH  14  20
ENDBRANCH   1  14
TORSDOF 3
ENDMDL
MODEL 7
REMARK VINA RESULT:      -8.6      1.614      6.650
REMARK  Name = 
REMARK  4 active torsions:
REMARK  status: ('A' for Active; 'I' for Inactive)
REMARK    1  A    between atoms: C_1  and  C_2
REMARK    2  A    between atoms: C_5  and  N_6
REMARK    3  A    between atoms: N_6  and  N_7
REMARK    4  A    between atoms: C_11  and  C_12
REMARK                            x       y       z     vdW  Elec       q    Type
REMARK                         _______ _______ _______ _____ _____    ______ ____
ROOT
ATOM      1  N   UNL     1       5.706   4.738  18.067  0.00  0.00    +0.000 N 
ATOM      2  C   UNL     1       7.012   5.141  18.082  0.00  0.00    +0.000 C 
ATOM      3  O   UNL     1       7.570   5.869  18.897  0.00  0.00    +0.000 OA
ATOM      4  C   UNL     1       7.608   4.786  16.806  0.00  0.00    +0.000 C 
ATOM      5  C   UNL     1       6.601   4.566  15.945  0.00  0.00    +0.000 C 
ATOM      6  C   UNL     1       5.341   4.507  16.752  0.00  0.00    +0.000 C 
ATOM      7  O   UNL     1       4.233   4.319  16.282  0.00  0.00    +0.000 OA
ENDROOT
BRANCH   5   8
ATOM      8  C   UNL     1       6.801   4.502  14.475  0.00  0.00    +0.000 A 
ATOM      9  C   UNL     1       7.689   5.322  13.774  0.00  0.00    +0.000 A 
ATOM     10  C   UNL     1       7.813   5.231  12.379  0.00  0.00    +0.000 A 
ATOM     11  C   UNL     1       7.063   4.298  11.655  0.00  0.00    +0.000 A 
ATOM     12  C   UNL     1       6.208   3.443  12.330  0.00  0.00    +0.000 A 
ATOM     13  C   UNL     1       6.087   3.542  13.719  0.00  0.00    +0.000 A 
ENDBRANCH   5   8
BRANCH   1  14
ATOM     14  N   UNL     1       4.848   5.428  18.991  0.00  0.00    +0.000 N 
ATOM     15  H   UNL     1       5.448   5.793  19.741  0.00  0.00    +0.000 HD
BRANCH  14  20
ATOM     16  C   UNL     1       1.123   2.445  22.189  0.00  0.00    +0.000 C 
ATOM     17  C   UNL     1       2.010   3.180  21.227  0.00  0.00    +0.000 A 
ATOM     18  C   UNL     1       3.096   2.557  20.616  0.00  0.00    +0.000 A 
ATOM     19  C   UNL     1       3.983   3.294  19.815  0.00  0.00    +0.000 A 
ATOM     20  C   UNL     1       3.795   4.671  19.587  0.00  0.00    +0.000 A 
ATOM     21  C   UNL     1       2.677   5.277  20.153  0.00  0.00    +0.000 A 
ATOM     22  C   UNL     1       1.795   4.542  20.969  0.00  0.00    +0.000 A 
ENDBRANCH  14  20
ENDBRANCH   1  14
TORSDOF 3
ENDMDL
MODEL 8
REMARK VINA RESULT:      -8.6      1.232      6.163
REMARK  Name = 
REMARK  4 active torsions:
REMARK  status: ('A' for Active; 'I' for Inactive)
REMARK    1  A    between atoms: C_1  and  C_2
REMARK    2  A    between atoms: C_5  and  N_6
REMARK    3  A    between atoms: N_6  and  N_7
REMARK    4  A    between atoms: C_11  and  C_12
REMARK                            x       y       z     vdW  Elec       q    Type
REMARK                         _______ _______ _______ _____ _____    ______ ____
ROOT
ATOM      1  N   UNL     1       5.794   5.938  17.964  0.00  0.00    +0.000 N 
ATOM      2  C   UNL     1       4.827   6.617  17.277  0.00  0.00    +0.000 C 
ATOM      3  O   UNL     1       3.759   7.047  17.699  0.00  0.00    +0.000 OA
ATOM      4  C   UNL     1       5.133   6.526  15.859  0.00  0.00    +0.000 C 
ATOM      5  C   UNL     1       5.994   5.505  15.704  0.00  0.00    +0.000 C 
ATOM      6  C   UNL     1       6.460   5.115  17.073  0.00  0.00    +0.000 C 
ATOM      7  O   UNL     1       7.253   4.218  17.298  0.00  0.00    +0.000 OA
ENDROOT
BRANCH   5   8
ATOM      8  C   UNL     1       6.285   4.895  14.383  0.00  0.00    +0.000 A 
ATOM      9  C   UNL     1       5.479   3.928  13.777  0.00  0.00    +0.000 A 
ATOM     10  C   UNL     1       5.823   3.369  12.536  0.00  0.00    +0.000 A 
ATOM     11  C   UNL     1       6.977   3.783  11.863  0.00  0.00    +0.000 A 
ATOM     12  C   UNL     1       7.772   4.771  12.420  0.00  0.00    +0.000 A 
ATOM     13  C   UNL     1       7.423   5.321  13.657  0.00  0.00    +0.000 A 
ENDBRANCH   5   8
BRANCH   1  14
ATOM     14  N   UNL     1       5.406   5.494  19.275  0.00  0.00    +0.000 N 
ATOM     15  H   UNL     1       6.231   5.053  19.699  0.00  0.00    +0.000 HD
BRANCH  14  20
ATOM     16  C   UNL     1       0.630   2.324  18.889  0.00  0.00    +0.000 C 
ATOM     17  C   UNL     1       1.913   3.069  19.121  0.00  0.00    +0.000 A 
ATOM     18  C   UNL     1       1.959   4.207  19.924  0.00  0.00    +0.000 A 
ATOM     19  C   UNL     1       3.142   4.957  20.029  0.00  0.00    +0.000 A 
ATOM     20  C   UNL     1       4.316   4.575  19.352  0.00  0.00    +0.000 A 
ATOM     21  C   UNL     1       4.280   3.406  18.597  0.00  0.00    +0.000 A 
ATOM     22  C   UNL     1       3.090   2.662  18.478  0.00  0.00    +0.000 A 
ENDBRANCH  14  20
ENDBRANCH   1  14
TORSDOF 3
ENDMDL
MODEL 9
REMARK VINA RESULT:      -8.5      2.796      3.838
REMARK  Name = 
REMARK  4 active torsions:
REMARK  status: ('A' for Active; 'I' for Inactive)
REMARK    1  A    between atoms: C_1  and  C_2
REMARK    2  A    between atoms: C_5  and  N_6
REMARK    3  A    between atoms: N_6  and  N_7
REMARK    4  A    between atoms: C_11  and  C_12
REMARK                            x       y       z     vdW  Elec       q    Type
REMARK                         _______ _______ _______ _____ _____    ______ ____
ROOT
ATOM      1  N   UNL     1       3.911   3.933  18.410  0.00  0.00    +0.000 N 
ATOM      2  C   UNL     1       2.659   3.736  17.898  0.00  0.00    +0.000 C 
ATOM      3  O   UNL     1       2.308   2.930  17.043  0.00  0.00    +0.000 OA
ATOM      4  C   UNL     1       1.815   4.835  18.336  0.00  0.00    +0.000 C 
ATOM      5  C   UNL     1       2.631   5.828  18.730  0.00  0.00    +0.000 C 
ATOM      6  C   UNL     1       4.011   5.253  18.809  0.00  0.00    +0.000 C 
ATOM      7  O   UNL     1       5.000   5.884  19.140  0.00  0.00    +0.000 OA
ENDROOT
BRANCH   5   8
ATOM      8  C   UNL     1       2.159   7.221  18.934  0.00  0.00    +0.000 A 
ATOM      9  C   UNL     1       1.712   7.719  20.160  0.00  0.00    +0.000 A 
ATOM     10  C   UNL     1       1.252   9.040  20.282  0.00  0.00    +0.000 A 
ATOM     11  C   UNL     1       1.251   9.900  19.179  0.00  0.00    +0.000 A 
ATOM     12  C   UNL     1       1.730   9.445  17.962  0.00  0.00    +0.000 A 
ATOM     13  C   UNL     1       2.183   8.128  17.848  0.00  0.00    +0.000 A 
ENDBRANCH   5   8
BRANCH   1  14
ATOM     14  N   UNL     1       4.967   3.263  17.700  0.00  0.00    +0.000 N 
ATOM     15  H   UNL     1       5.712   3.074  18.380  0.00  0.00    +0.000 HD
BRANCH  14  20
ATOM     16  C   UNL     1       7.756   5.228  13.078  0.00  0.00    +0.000 C 
ATOM     17  C   UNL     1       6.975   4.864  14.308  0.00  0.00    +0.000 A 
ATOM     18  C   UNL     1       7.538   4.950  15.580  0.00  0.00    +0.000 A 
ATOM     19  C   UNL     1       6.833   4.490  16.703  0.00  0.00    +0.000 A 
ATOM     20  C   UNL     1       5.537   3.951  16.587  0.00  0.00    +0.000 A 
ATOM     21  C   UNL     1       4.957   3.919  15.322  0.00  0.00    +0.000 A 
ATOM     22  C   UNL     1       5.669   4.366  14.192  0.00  0.00    +0.000 A 
ENDBRANCH  14  20
ENDBRANCH   1  14
TORSDOF 3
ENDMDL
