MODEL 1
REMARK VINA RESULT:      -7.1      0.000      0.000
REMARK  Name = 
REMARK  4 active torsions:
REMARK  status: ('A' for Active; 'I' for Inactive)
REMARK    1  A    between atoms: C_1  and  C_2
REMARK    2  A    between atoms: C_2  and  C_3
REMARK    3  A    between atoms: C_3  and  C_4
REMARK    4  A    between atoms: N_16  and  C_17
REMARK                            x       y       z     vdW  Elec       q    Type
REMARK                         _______ _______ _______ _____ _____    ______ ____
ROOT
ATOM      1  C   UNL     1       4.291   5.505  18.429  0.00  0.00    +0.000 C 
ATOM      2  C   UNL     1       3.509   5.495  19.785  0.00  0.00    +0.000 C 
ATOM      3  C   UNL     1       2.508   4.432  19.571  0.00  0.00    +0.000 A 
ATOM      4  C   UNL     1       1.383   4.135  20.338  0.00  0.00    +0.000 A 
ATOM      5  C   UNL     1       0.582   3.057  19.948  0.00  0.00    +0.000 A 
ATOM      6  C   UNL     1       0.925   2.289  18.817  0.00  0.00    +0.000 A 
ATOM      7  C   UNL     1       2.081   2.592  18.076  0.00  0.00    +0.000 A 
ATOM      8  C   UNL     1       2.866   3.678  18.484  0.00  0.00    +0.000 A 
ATOM      9  N   UNL     1       4.051   4.166  17.883  0.00  0.00    +0.000 N 
ATOM     10  C   UNL     1       4.533   3.688  16.598  0.00  0.00    +0.000 C 
ENDROOT
BRANCH   1  11
ATOM     11  C   UNL     1       5.772   5.831  18.645  0.00  0.00    +0.000 C 
ATOM     12  N   UNL     1       6.484   5.251  19.534  0.00  0.00    +0.000 NA
ATOM     13  C   UNL     1       7.847   5.728  19.500  0.00  0.00    +0.000 C 
ATOM     14  C   UNL     1       7.902   6.640  18.266  0.00  0.00    +0.000 C 
ATOM     15  N   UNL     1       6.529   6.726  17.861  0.00  0.00    +0.000 N 
ATOM     16  H   UNL     1       6.208   7.253  17.041  0.00  0.00    +0.000 HD
ENDBRANCH   1  11
BRANCH   1  18
ATOM     17  C   UNL     1       2.821   7.663  18.078  0.00  0.00    +0.000 C 
ATOM     18  C   UNL     1       3.709   6.580  17.448  0.00  0.00    +0.000 C 
ENDBRANCH   1  18
TORSDOF 2
ENDMDL
MODEL 2
REMARK VINA RESULT:      -6.3      1.742      3.195
REMARK  Name = 
REMARK  4 active torsions:
REMARK  status: ('A' for Active; 'I' for Inactive)
REMARK    1  A    between atoms: C_1  and  C_2
REMARK    2  A    between atoms: C_2  and  C_3
REMARK    3  A    between atoms: C_3  and  C_4
REMARK    4  A    between atoms: N_16  and  C_17
REMARK                            x       y       z     vdW  Elec       q    Type
REMARK                         _______ _______ _______ _____ _____    ______ ____
ROOT
ATOM      1  C   UNL     1       4.880   4.665  18.198  0.00  0.00    +0.000 C 
ATOM      2  C   UNL     1       4.828   3.233  18.828  0.00  0.00    +0.000 C 
ATOM      3  C   UNL     1       3.676   3.328  19.747  0.00  0.00    +0.000 A 
ATOM      4  C   UNL     1       3.296   2.441  20.753  0.00  0.00    +0.000 A 
ATOM      5  C   UNL     1       2.144   2.732  21.491  0.00  0.00    +0.000 A 
ATOM      6  C   UNL     1       1.388   3.886  21.202  0.00  0.00    +0.000 A 
ATOM      7  C   UNL     1       1.776   4.750  20.163  0.00  0.00    +0.000 A 
ATOM      8  C   UNL     1       2.935   4.440  19.440  0.00  0.00    +0.000 A 
ATOM      9  N   UNL     1       3.515   5.169  18.373  0.00  0.00    +0.000 N 
ATOM     10  C   UNL     1       3.056   6.493  17.990  0.00  0.00    +0.000 C 
ENDROOT
BRANCH   1  11
ATOM     11  C   UNL     1       5.339   4.613  16.738  0.00  0.00    +0.000 C 
ATOM     12  N   UNL     1       5.375   5.648  15.989  0.00  0.00    +0.000 NA
ATOM     13  C   UNL     1       5.872   5.319  14.673  0.00  0.00    +0.000 C 
ATOM     14  C   UNL     1       6.314   3.854  14.786  0.00  0.00    +0.000 C 
ATOM     15  N   UNL     1       5.840   3.469  16.084  0.00  0.00    +0.000 N 
ATOM     16  H   UNL     1       5.986   2.537  16.492  0.00  0.00    +0.000 HD
ENDBRANCH   1  11
BRANCH   1  18
ATOM     17  C   UNL     1       7.373   5.335  18.723  0.00  0.00    +0.000 C 
ATOM     18  C   UNL     1       5.879   5.589  18.975  0.00  0.00    +0.000 C 
ENDBRANCH   1  18
TORSDOF 2
ENDMDL
MODEL 3
REMARK VINA RESULT:      -6.3      1.980      4.836
REMARK  Name = 
REMARK  4 active torsions:
REMARK  status: ('A' for Active; 'I' for Inactive)
REMARK    1  A    between atoms: C_1  and  C_2
REMARK    2  A    between atoms: C_2  and  C_3
REMARK    3  A    between atoms: C_3  and  C_4
REMARK    4  A    between atoms: N_16  and  C_17
REMARK                            x       y       z     vdW  Elec       q    Type
REMARK                         _______ _______ _______ _____ _____    ______ ____
ROOT
ATOM      1  C   UNL     1       4.042   4.870  18.510  0.00  0.00    +0.000 C 
ATOM      2  C   UNL     1       3.607   4.252  17.139  0.00  0.00    +0.000 C 
ATOM      3  C   UNL     1       4.817   4.424  16.311  0.00  0.00    +0.000 A 
ATOM      4  C   UNL     1       4.949   4.280  14.931  0.00  0.00    +0.000 A 
ATOM      5  C   UNL     1       6.212   4.476  14.363  0.00  0.00    +0.000 A 
ATOM      6  C   UNL     1       7.317   4.793  15.179  0.00  0.00    +0.000 A 
ATOM      7  C   UNL     1       7.163   4.905  16.573  0.00  0.00    +0.000 A 
ATOM      8  C   UNL     1       5.888   4.707  17.118  0.00  0.00    +0.000 A 
ATOM      9  N   UNL     1       5.505   4.785  18.479  0.00  0.00    +0.000 N 
ATOM     10  C   UNL     1       6.394   5.279  19.516  0.00  0.00    +0.000 C 
ENDROOT
BRANCH   1  11
ATOM     11  C   UNL     1       3.401   4.124  19.684  0.00  0.00    +0.000 C 
ATOM     12  N   UNL     1       3.697   2.915  19.977  0.00  0.00    +0.000 NA
ATOM     13  C   UNL     1       2.969   2.471  21.142  0.00  0.00    +0.000 C 
ATOM     14  C   UNL     1       2.248   3.729  21.646  0.00  0.00    +0.000 C 
ATOM     15  N   UNL     1       2.494   4.685  20.606  0.00  0.00    +0.000 N 
ATOM     16  H   UNL     1       2.162   5.657  20.633  0.00  0.00    +0.000 HD
ENDBRANCH   1  11
BRANCH   1  18
ATOM     17  C   UNL     1       2.364   6.778  17.812  0.00  0.00    +0.000 C 
ATOM     18  C   UNL     1       3.610   6.374  18.614  0.00  0.00    +0.000 C 
ENDBRANCH   1  18
TORSDOF 2
ENDMDL
MODEL 4
REMARK VINA RESULT:      -6.3      1.907      3.394
REMARK  Name = 
REMARK  4 active torsions:
REMARK  status: ('A' for Active; 'I' for Inactive)
REMARK    1  A    between atoms: C_1  and  C_2
REMARK    2  A    between atoms: C_2  and  C_3
REMARK    3  A    between atoms: C_3  and  C_4
REMARK    4  A    between atoms: N_16  and  C_17
REMARK                            x       y       z     vdW  Elec       q    Type
REMARK                         _______ _______ _______ _____ _____    ______ ____
ROOT
ATOM      1  C   UNL     1       5.544   5.262  17.683  0.00  0.00    +0.000 C 
ATOM      2  C   UNL     1       5.214   3.974  18.509  0.00  0.00    +0.000 C 
ATOM      3  C   UNL     1       4.049   4.396  19.312  0.00  0.00    +0.000 A 
ATOM      4  C   UNL     1       3.470   3.752  20.403  0.00  0.00    +0.000 A 
ATOM      5  C   UNL     1       2.348   4.338  20.999  0.00  0.00    +0.000 A 
ATOM      6  C   UNL     1       1.818   5.539  20.486  0.00  0.00    +0.000 A 
ATOM      7  C   UNL     1       2.403   6.155  19.366  0.00  0.00    +0.000 A 
ATOM      8  C   UNL     1       3.527   5.551  18.788  0.00  0.00    +0.000 A 
ATOM      9  N   UNL     1       4.278   6.001  17.676  0.00  0.00    +0.000 N 
ATOM     10  C   UNL     1       4.075   7.306  17.069  0.00  0.00    +0.000 C 
ENDROOT
BRANCH   1  11
ATOM     11  C   UNL     1       6.064   4.908  16.286  0.00  0.00    +0.000 C 
ATOM     12  N   UNL     1       5.509   4.024  15.547  0.00  0.00    +0.000 NA
ATOM     13  C   UNL     1       6.185   3.912  14.276  0.00  0.00    +0.000 C 
ATOM     14  C   UNL     1       7.214   5.051  14.288  0.00  0.00    +0.000 C 
ATOM     15  N   UNL     1       7.135   5.549  15.631  0.00  0.00    +0.000 N 
ATOM     16  H   UNL     1       7.688   6.340  15.981  0.00  0.00    +0.000 HD
ENDBRANCH   1  11
BRANCH   1  18
ATOM     17  C   UNL     1       7.765   5.342  19.097  0.00  0.00    +0.000 C 
ATOM     18  C   UNL     1       6.645   6.122  18.392  0.00  0.00    +0.000 C 
ENDBRANCH   1  18
TORSDOF 2
ENDMDL
MODEL 5
REMARK VINA RESULT:      -6.1      2.213      4.980
REMARK  Name = 
REMARK  4 active torsions:
REMARK  status: ('A' for Active; 'I' for Inactive)
REMARK    1  A    between atoms: C_1  and  C_2
REMARK    2  A    between atoms: C_2  and  C_3
REMARK    3  A    between atoms: C_3  and  C_4
REMARK    4  A    between atoms: N_16  and  C_17
REMARK                            x       y       z     vdW  Elec       q    Type
REMARK                         _______ _______ _______ _____ _____    ______ ____
ROOT
ATOM      1  C   UNL     1       4.440   4.379  18.343  0.00  0.00    +0.000 C 
ATOM      2  C   UNL     1       4.061   3.672  17.000  0.00  0.00    +0.000 C 
ATOM      3  C   UNL     1       5.121   4.135  16.083  0.00  0.00    +0.000 A 
ATOM      4  C   UNL     1       5.173   4.027  14.694  0.00  0.00    +0.000 A 
ATOM      5  C   UNL     1       6.299   4.527  14.033  0.00  0.00    +0.000 A 
ATOM      6  C   UNL     1       7.355   5.106  14.766  0.00  0.00    +0.000 A 
ATOM      7  C   UNL     1       7.291   5.177  16.169  0.00  0.00    +0.000 A 
ATOM      8  C   UNL     1       6.152   4.673  16.809  0.00  0.00    +0.000 A 
ATOM      9  N   UNL     1       5.872   4.655  18.197  0.00  0.00    +0.000 N 
ATOM     10  C   UNL     1       6.694   5.353  19.171  0.00  0.00    +0.000 C 
ENDROOT
BRANCH   1  11
ATOM     11  C   UNL     1       4.098   3.499  19.550  0.00  0.00    +0.000 C 
ATOM     12  N   UNL     1       3.035   3.660  20.242  0.00  0.00    +0.000 NA
ATOM     13  C   UNL     1       2.951   2.679  21.298  0.00  0.00    +0.000 C 
ATOM     14  C   UNL     1       4.128   1.730  21.034  0.00  0.00    +0.000 C 
ATOM     15  N   UNL     1       4.850   2.388  19.984  0.00  0.00    +0.000 N 
ATOM     16  H   UNL     1       5.698   2.008  19.549  0.00  0.00    +0.000 HD
ENDBRANCH   1  11
BRANCH   1  18
ATOM     17  C   UNL     1       2.275   5.800  17.858  0.00  0.00    +0.000 C 
ATOM     18  C   UNL     1       3.664   5.731  18.510  0.00  0.00    +0.000 C 
ENDBRANCH   1  18
TORSDOF 2
ENDMDL
MODEL 6
REMARK VINA RESULT:      -6.0      2.685      4.206
REMARK  Name = 
REMARK  4 active torsions:
REMARK  status: ('A' for Active; 'I' for Inactive)
REMARK    1  A    between atoms: C_1  and  C_2
REMARK    2  A    between atoms: C_2  and  C_3
REMARK    3  A    between atoms: C_3  and  C_4
REMARK    4  A    between atoms: N_16  and  C_17
REMARK                            x       y       z     vdW  Elec       q    Type
REMARK                         _______ _______ _______ _____ _____    ______ ____
ROOT
ATOM      1  C   UNL     1       6.003   4.895  16.103  0.00  0.00    +0.000 C 
ATOM      2  C   UNL     1       5.541   3.513  16.675  0.00  0.00    +0.000 C 
ATOM      3  C   UNL     1       4.419   3.888  17.557  0.00  0.00    +0.000 A 
ATOM      4  C   UNL     1       3.772   3.109  18.514  0.00  0.00    +0.000 A 
ATOM      5  C   UNL     1       2.709   3.679  19.223  0.00  0.00    +0.000 A 
ATOM      6  C   UNL     1       2.303   5.001  18.953  0.00  0.00    +0.000 A 
ATOM      7  C   UNL     1       2.954   5.758  17.962  0.00  0.00    +0.000 A 
ATOM      8  C   UNL     1       4.017   5.167  17.268  0.00  0.00    +0.000 A 
ATOM      9  N   UNL     1       4.816   5.743  16.251  0.00  0.00    +0.000 N 
ATOM     10  C   UNL     1       4.747   7.153  15.904  0.00  0.00    +0.000 C 
ENDROOT
BRANCH   1  11
ATOM     11  C   UNL     1       6.495   4.763  14.658  0.00  0.00    +0.000 C 
ATOM     12  N   UNL     1       7.530   5.374  14.224  0.00  0.00    +0.000 NA
ATOM     13  C   UNL     1       7.781   5.048  12.839  0.00  0.00    +0.000 C 
ATOM     14  C   UNL     1       6.761   3.947  12.514  0.00  0.00    +0.000 C 
ATOM     15  N   UNL     1       5.931   3.915  13.683  0.00  0.00    +0.000 N 
ATOM     16  H   UNL     1       5.146   3.265  13.808  0.00  0.00    +0.000 HD
ENDBRANCH   1  11
BRANCH   1  18
ATOM     17  C   UNL     1       7.831   4.546  17.968  0.00  0.00    +0.000 C 
ATOM     18  C   UNL     1       7.179   5.493  16.949  0.00  0.00    +0.000 C 
ENDBRANCH   1  18
TORSDOF 2
ENDMDL
MODEL 7
REMARK VINA RESULT:      -5.9      2.425      3.952
REMARK  Name = 
REMARK  4 active torsions:
REMARK  status: ('A' for Active; 'I' for Inactive)
REMARK    1  A    between atoms: C_1  and  C_2
REMARK    2  A    between atoms: C_2  and  C_3
REMARK    3  A    between atoms: C_3  and  C_4
REMARK    4  A    between atoms: N_16  and  C_17
REMARK                            x       y       z     vdW  Elec       q    Type
REMARK                         _______ _______ _______ _____ _____    ______ ____
ROOT
ATOM      1  C   UNL     1       5.847   4.998  16.534  0.00  0.00    +0.000 C 
ATOM      2  C   UNL     1       5.334   3.691  17.224  0.00  0.00    +0.000 C 
ATOM      3  C   UNL     1       4.217   4.183  18.054  0.00  0.00    +0.000 A 
ATOM      4  C   UNL     1       3.534   3.517  19.070  0.00  0.00    +0.000 A 
ATOM      5  C   UNL     1       2.485   4.185  19.711  0.00  0.00    +0.000 A 
ATOM      6  C   UNL     1       2.126   5.489  19.315  0.00  0.00    +0.000 A 
ATOM      7  C   UNL     1       2.812   6.129  18.267  0.00  0.00    +0.000 A 
ATOM      8  C   UNL     1       3.861   5.442  17.643  0.00  0.00    +0.000 A 
ATOM      9  N   UNL     1       4.689   5.895  16.588  0.00  0.00    +0.000 N 
ATOM     10  C   UNL     1       4.671   7.268  16.111  0.00  0.00    +0.000 C 
ENDROOT
BRANCH   1  11
ATOM     11  C   UNL     1       6.348   4.716  15.114  0.00  0.00    +0.000 C 
ATOM     12  N   UNL     1       5.734   3.937  14.308  0.00  0.00    +0.000 NA
ATOM     13  C   UNL     1       6.408   3.875  13.032  0.00  0.00    +0.000 C 
ATOM     14  C   UNL     1       7.519   4.929  13.134  0.00  0.00    +0.000 C 
ATOM     15  N   UNL     1       7.469   5.324  14.512  0.00  0.00    +0.000 N 
ATOM     16  H   UNL     1       8.078   6.042  14.922  0.00  0.00    +0.000 HD
ENDBRANCH   1  11
BRANCH   1  18
ATOM     17  C   UNL     1       7.902   4.659  18.148  0.00  0.00    +0.000 C 
ATOM     18  C   UNL     1       7.035   5.633  17.336  0.00  0.00    +0.000 C 
ENDBRANCH   1  18
TORSDOF 2
ENDMDL
MODEL 8
REMARK VINA RESULT:      -5.8      1.905      5.070
REMARK  Name = 
REMARK  4 active torsions:
REMARK  status: ('A' for Active; 'I' for Inactive)
REMARK    1  A    between atoms: C_1  and  C_2
REMARK    2  A    between atoms: C_2  and  C_3
REMARK    3  A    between atoms: C_3  and  C_4
REMARK    4  A    between atoms: N_16  and  C_17
REMARK                            x       y       z     vdW  Elec       q    Type
REMARK                         _______ _______ _______ _____ _____    ______ ____
ROOT
ATOM      1  C   UNL     1       3.666   4.697  18.101  0.00  0.00    +0.000 C 
ATOM      2  C   UNL     1       3.507   4.020  16.699  0.00  0.00    +0.000 C 
ATOM      3  C   UNL     1       4.821   4.266  16.072  0.00  0.00    +0.000 A 
ATOM      4  C   UNL     1       5.187   4.104  14.737  0.00  0.00    +0.000 A 
ATOM      5  C   UNL     1       6.509   4.383  14.375  0.00  0.00    +0.000 A 
ATOM      6  C   UNL     1       7.439   4.799  15.349  0.00  0.00    +0.000 A 
ATOM      7  C   UNL     1       7.052   4.927  16.695  0.00  0.00    +0.000 A 
ATOM      8  C   UNL     1       5.722   4.645  17.033  0.00  0.00    +0.000 A 
ATOM      9  N   UNL     1       5.117   4.721  18.310  0.00  0.00    +0.000 N 
ATOM     10  C   UNL     1       5.787   5.302  19.461  0.00  0.00    +0.000 C 
ENDROOT
BRANCH   1  11
ATOM     11  C   UNL     1       2.897   3.929  19.180  0.00  0.00    +0.000 C 
ATOM     12  N   UNL     1       1.685   3.551  19.026  0.00  0.00    +0.000 NA
ATOM     13  C   UNL     1       1.217   2.825  20.183  0.00  0.00    +0.000 C 
ATOM     14  C   UNL     1       2.462   2.671  21.068  0.00  0.00    +0.000 C 
ATOM     15  N   UNL     1       3.437   3.488  20.405  0.00  0.00    +0.000 N 
ATOM     16  H   UNL     1       4.406   3.596  20.728  0.00  0.00    +0.000 HD
ENDBRANCH   1  11
BRANCH   1  18
ATOM     17  C   UNL     1       2.547   6.689  19.413  0.00  0.00    +0.000 C 
ATOM     18  C   UNL     1       3.118   6.166  18.086  0.00  0.00    +0.000 C 
ENDBRANCH   1  18
TORSDOF 2
ENDMDL
MODEL 9
REMARK VINA RESULT:      -5.8      0.829      1.098
REMARK  Name = 
REMARK  4 active torsions:
REMARK  status: ('A' for Active; 'I' for Inactive)
REMARK    1  A    between atoms: C_1  and  C_2
REMARK    2  A    between atoms: C_2  and  C_3
REMARK    3  A    between atoms: C_3  and  C_4
REMARK    4  A    between atoms: N_16  and  C_17
REMARK                            x       y       z     vdW  Elec       q    Type
REMARK                         _______ _______ _______ _____ _____    ______ ____
ROOT
ATOM      1  C   UNL     1       4.443   5.057  18.509  0.00  0.00    +0.000 C 
ATOM      2  C   UNL     1       3.782   5.092  19.927  0.00  0.00    +0.000 C 
ATOM      3  C   UNL     1       2.601   4.224  19.752  0.00  0.00    +0.000 A 
ATOM      4  C   UNL     1       1.507   4.068  20.602  0.00  0.00    +0.000 A 
ATOM      5  C   UNL     1       0.506   3.164  20.234  0.00  0.00    +0.000 A 
ATOM      6  C   UNL     1       0.622   2.422  19.041  0.00  0.00    +0.000 A 
ATOM      7  C   UNL     1       1.749   2.576  18.214  0.00  0.00    +0.000 A 
ATOM      8  C   UNL     1       2.738   3.490  18.602  0.00  0.00    +0.000 A 
ATOM      9  N   UNL     1       3.937   3.814  17.922  0.00  0.00    +0.000 N 
ATOM     10  C   UNL     1       4.225   3.345  16.577  0.00  0.00    +0.000 C 
ENDROOT
BRANCH   1  11
ATOM     11  C   UNL     1       5.970   5.121  18.606  0.00  0.00    +0.000 C 
ATOM     12  N   UNL     1       6.577   5.832  19.478  0.00  0.00    +0.000 NA
ATOM     13  C   UNL     1       8.009   5.684  19.362  0.00  0.00    +0.000 C 
ATOM     14  C   UNL     1       8.196   4.578  18.315  0.00  0.00    +0.000 C 
ATOM     15  N   UNL     1       6.866   4.365  17.822  0.00  0.00    +0.000 N 
ATOM     16  H   UNL     1       6.626   3.665  17.111  0.00  0.00    +0.000 HD
ENDBRANCH   1  11
BRANCH   1  18
ATOM     17  C   UNL     1       4.914   6.689  16.495  0.00  0.00    +0.000 C 
ATOM     18  C   UNL     1       3.974   6.273  17.636  0.00  0.00    +0.000 C 
ENDBRANCH   1  18
TORSDOF 2
ENDMDL
