MODEL 1
REMARK VINA RESULT:      -7.0      0.000      0.000
REMARK  Name = 
REMARK  11 active torsions:
REMARK  status: ('A' for Active; 'I' for Inactive)
REMARK    1  A    between atoms: C_1  and  C_2
REMARK    2  A    between atoms: C_7  and  C_8
REMARK    3  A    between atoms: C_8  and  S_9
REMARK    4  A    between atoms: S_9  and  N_12
REMARK    5  A    between atoms: N_12  and  C_13
REMARK    6  A    between atoms: C_13  and  C_14
REMARK    7  A    between atoms: C_13  and  C_17
REMARK    8  A    between atoms: C_14  and  C_15
REMARK    9  A    between atoms: C_14  and  C_16
REMARK   10  A    between atoms: C_17  and  C_18
REMARK   11  A    between atoms: C_17  and  C_19
REMARK                            x       y       z     vdW  Elec       q    Type
REMARK                         _______ _______ _______ _____ _____    ______ ____
ROOT
ATOM      1  S   UNL     1       4.175   3.288  18.248  0.00  0.00    +0.000 S 
ATOM      2  O   UNL     1       3.450   2.096  17.851  0.00  0.00    +0.000 OA
ATOM      3  O   UNL     1       4.958   3.334  19.458  0.00  0.00    +0.000 OA
ENDROOT
BRANCH   1   4
ATOM      4  N   UNL     1       2.952   4.501  18.383  0.00  0.00    +0.000 NA
ATOM      5  H   UNL     1       2.064   4.070  18.123  0.00  0.00    +0.000 HD
BRANCH   4   6
ATOM      6  C   UNL     1       2.814   5.145  19.790  0.00  0.00    +0.000 C 
BRANCH   6   7
ATOM      7  C   UNL     1       2.669   6.700  19.655  0.00  0.00    +0.000 C 
ATOM      8  C   UNL     1       2.450   7.172  18.217  0.00  0.00    +0.000 C 
ATOM      9  C   UNL     1       1.676   7.381  20.604  0.00  0.00    +0.000 C 
ENDBRANCH   6   7
BRANCH   6  10
ATOM     10  C   UNL     1       1.669   4.401  20.585  0.00  0.00    +0.000 C 
ATOM     11  C   UNL     1       0.778   3.541  19.671  0.00  0.00    +0.000 C 
ATOM     12  C   UNL     1       2.177   3.452  21.685  0.00  0.00    +0.000 C 
ENDBRANCH   6  10
ENDBRANCH   4   6
ENDBRANCH   1   4
BRANCH   1  13
ATOM     13  C   UNL     1       5.237   3.820  16.873  0.00  0.00    +0.000 C 
BRANCH  13  20
ATOM     14  C   UNL     1       5.007   6.670  15.720  0.00  0.00    +0.000 C 
ATOM     15  C   UNL     1       5.986   6.302  16.805  0.00  0.00    +0.000 A 
ATOM     16  C   UNL     1       6.858   7.310  17.264  0.00  0.00    +0.000 A 
ATOM     17  C   UNL     1       7.799   7.057  18.261  0.00  0.00    +0.000 A 
ATOM     18  C   UNL     1       7.871   5.788  18.824  0.00  0.00    +0.000 A 
ATOM     19  C   UNL     1       7.011   4.779  18.388  0.00  0.00    +0.000 A 
ATOM     20  C   UNL     1       6.062   5.007  17.362  0.00  0.00    +0.000 A 
ENDBRANCH  13  20
ENDBRANCH   1  13
TORSDOF 6
ENDMDL
MODEL 2
REMARK VINA RESULT:      -6.8      0.697      2.259
REMARK  Name = 
REMARK  11 active torsions:
REMARK  status: ('A' for Active; 'I' for Inactive)
REMARK    1  A    between atoms: C_1  and  C_2
REMARK    2  A    between atoms: C_7  and  C_8
REMARK    3  A    between atoms: C_8  and  S_9
REMARK    4  A    between atoms: S_9  and  N_12
REMARK    5  A    between atoms: N_12  and  C_13
REMARK    6  A    between atoms: C_13  and  C_14
REMARK    7  A    between atoms: C_13  and  C_17
REMARK    8  A    between atoms: C_14  and  C_15
REMARK    9  A    between atoms: C_14  and  C_16
REMARK   10  A    between atoms: C_17  and  C_18
REMARK   11  A    between atoms: C_17  and  C_19
REMARK                            x       y       z     vdW  Elec       q    Type
REMARK                         _______ _______ _______ _____ _____    ______ ____
ROOT
ATOM      1  S   UNL     1       3.739   3.507  17.748  0.00  0.00    +0.000 S 
ATOM      2  O   UNL     1       2.514   3.710  16.999  0.00  0.00    +0.000 OA
ATOM      3  O   UNL     1       3.979   2.300  18.500  0.00  0.00    +0.000 OA
ENDROOT
BRANCH   1   4
ATOM      4  N   UNL     1       3.773   4.822  18.868  0.00  0.00    +0.000 NA
ATOM      5  H   UNL     1       4.408   5.526  18.492  0.00  0.00    +0.000 HD
BRANCH   4   6
ATOM      6  C   UNL     1       2.395   5.480  19.155  0.00  0.00    +0.000 C 
BRANCH   6   7
ATOM      7  C   UNL     1       1.681   4.733  20.334  0.00  0.00    +0.000 C 
ATOM      8  C   UNL     1       0.684   3.670  19.870  0.00  0.00    +0.000 C 
ATOM      9  C   UNL     1       2.584   4.179  21.442  0.00  0.00    +0.000 C 
ENDBRANCH   6   7
BRANCH   6  10
ATOM     10  C   UNL     1       2.597   7.037  19.333  0.00  0.00    +0.000 C 
ATOM     11  C   UNL     1       2.278   7.825  18.049  0.00  0.00    +0.000 C 
ATOM     12  C   UNL     1       1.726   7.666  20.435  0.00  0.00    +0.000 C 
ENDBRANCH   6  10
ENDBRANCH   4   6
ENDBRANCH   1   4
BRANCH   1  13
ATOM     13  C   UNL     1       5.158   3.771  16.644  0.00  0.00    +0.000 C 
BRANCH  13  20
ATOM     14  C   UNL     1       4.946   6.705  15.725  0.00  0.00    +0.000 C 
ATOM     15  C   UNL     1       5.921   6.246  16.778  0.00  0.00    +0.000 A 
ATOM     16  C   UNL     1       6.797   7.208  17.318  0.00  0.00    +0.000 A 
ATOM     17  C   UNL     1       7.735   6.870  18.293  0.00  0.00    +0.000 A 
ATOM     18  C   UNL     1       7.799   5.561  18.752  0.00  0.00    +0.000 A 
ATOM     19  C   UNL     1       6.934   4.595  18.235  0.00  0.00    +0.000 A 
ATOM     20  C   UNL     1       5.988   4.910  17.229  0.00  0.00    +0.000 A 
ENDBRANCH  13  20
ENDBRANCH   1  13
TORSDOF 6
ENDMDL
MODEL 3
REMARK VINA RESULT:      -6.7      2.160      5.922
REMARK  Name = 
REMARK  11 active torsions:
REMARK  status: ('A' for Active; 'I' for Inactive)
REMARK    1  A    between atoms: C_1  and  C_2
REMARK    2  A    between atoms: C_7  and  C_8
REMARK    3  A    between atoms: C_8  and  S_9
REMARK    4  A    between atoms: S_9  and  N_12
REMARK    5  A    between atoms: N_12  and  C_13
REMARK    6  A    between atoms: C_13  and  C_14
REMARK    7  A    between atoms: C_13  and  C_17
REMARK    8  A    between atoms: C_14  and  C_15
REMARK    9  A    between atoms: C_14  and  C_16
REMARK   10  A    between atoms: C_17  and  C_18
REMARK   11  A    between atoms: C_17  and  C_19
REMARK                            x       y       z     vdW  Elec       q    Type
REMARK                         _______ _______ _______ _____ _____    ______ ____
ROOT
ATOM      1  S   UNL     1       3.955   6.048  18.042  0.00  0.00    +0.000 S 
ATOM      2  O   UNL     1       4.019   7.368  17.443  0.00  0.00    +0.000 OA
ATOM      3  O   UNL     1       4.456   5.790  19.369  0.00  0.00    +0.000 OA
ENDROOT
BRANCH   1   4
ATOM      4  N   UNL     1       4.848   5.047  16.953  0.00  0.00    +0.000 NA
ATOM      5  H   UNL     1       4.176   4.589  16.338  0.00  0.00    +0.000 HD
BRANCH   4   6
ATOM      6  C   UNL     1       5.906   5.789  16.091  0.00  0.00    +0.000 C 
BRANCH   6   7
ATOM      7  C   UNL     1       7.267   5.868  16.864  0.00  0.00    +0.000 C 
ATOM      8  C   UNL     1       7.501   7.211  17.556  0.00  0.00    +0.000 C 
ATOM      9  C   UNL     1       7.584   4.708  17.816  0.00  0.00    +0.000 C 
ENDBRANCH   6   7
BRANCH   6  10
ATOM     10  C   UNL     1       5.953   5.129  14.656  0.00  0.00    +0.000 C 
ATOM     11  C   UNL     1       7.358   5.181  14.028  0.00  0.00    +0.000 C 
ATOM     12  C   UNL     1       5.539   3.647  14.628  0.00  0.00    +0.000 C 
ENDBRANCH   6  10
ENDBRANCH   4   6
ENDBRANCH   1   4
BRANCH   1  13
ATOM     13  C   UNL     1       2.242   5.445  17.962  0.00  0.00    +0.000 C 
BRANCH  13  20
ATOM     14  C   UNL     1       2.566   2.430  17.408  0.00  0.00    +0.000 C 
ATOM     15  C   UNL     1       2.195   2.979  18.761  0.00  0.00    +0.000 A 
ATOM     16  C   UNL     1       1.942   2.051  19.792  0.00  0.00    +0.000 A 
ATOM     17  C   UNL     1       1.587   2.470  21.074  0.00  0.00    +0.000 A 
ATOM     18  C   UNL     1       1.492   3.829  21.345  0.00  0.00    +0.000 A 
ATOM     19  C   UNL     1       1.747   4.763  20.339  0.00  0.00    +0.000 A 
ATOM     20  C   UNL     1       2.088   4.361  19.025  0.00  0.00    +0.000 A 
ENDBRANCH  13  20
ENDBRANCH   1  13
TORSDOF 6
ENDMDL
MODEL 4
REMARK VINA RESULT:      -6.6      1.357      5.228
REMARK  Name = 
REMARK  11 active torsions:
REMARK  status: ('A' for Active; 'I' for Inactive)
REMARK    1  A    between atoms: C_1  and  C_2
REMARK    2  A    between atoms: C_7  and  C_8
REMARK    3  A    between atoms: C_8  and  S_9
REMARK    4  A    between atoms: S_9  and  N_12
REMARK    5  A    between atoms: N_12  and  C_13
REMARK    6  A    between atoms: C_13  and  C_14
REMARK    7  A    between atoms: C_13  and  C_17
REMARK    8  A    between atoms: C_14  and  C_15
REMARK    9  A    between atoms: C_14  and  C_16
REMARK   10  A    between atoms: C_17  and  C_18
REMARK   11  A    between atoms: C_17  and  C_19
REMARK                            x       y       z     vdW  Elec       q    Type
REMARK                         _______ _______ _______ _____ _____    ______ ____
ROOT
ATOM      1  S   UNL     1       4.893   3.958  19.144  0.00  0.00    +0.000 S 
ATOM      2  O   UNL     1       5.177   5.012  20.099  0.00  0.00    +0.000 OA
ATOM      3  O   UNL     1       4.856   2.570  19.531  0.00  0.00    +0.000 OA
ENDROOT
BRANCH   1   4
ATOM      4  N   UNL     1       6.130   4.124  17.950  0.00  0.00    +0.000 NA
ATOM      5  H   UNL     1       5.917   3.470  17.196  0.00  0.00    +0.000 HD
BRANCH   4   6
ATOM      6  C   UNL     1       6.287   5.552  17.357  0.00  0.00    +0.000 C 
BRANCH   6   7
ATOM      7  C   UNL     1       7.630   6.192  17.851  0.00  0.00    +0.000 C 
ATOM      8  C   UNL     1       7.697   7.706  17.651  0.00  0.00    +0.000 C 
ATOM      9  C   UNL     1       8.091   5.813  19.264  0.00  0.00    +0.000 C 
ENDBRANCH   6   7
BRANCH   6  10
ATOM     10  C   UNL     1       6.079   5.484  15.792  0.00  0.00    +0.000 C 
ATOM     11  C   UNL     1       5.567   4.109  15.324  0.00  0.00    +0.000 C 
ATOM     12  C   UNL     1       5.074   6.512  15.242  0.00  0.00    +0.000 C 
ENDBRANCH   6  10
ENDBRANCH   4   6
ENDBRANCH   1   4
BRANCH   1  13
ATOM     13  C   UNL     1       3.336   4.341  18.287  0.00  0.00    +0.000 C 
BRANCH  13  20
ATOM     14  C   UNL     1       1.853   4.476  20.985  0.00  0.00    +0.000 C 
ATOM     15  C   UNL     1       2.067   5.682  20.107  0.00  0.00    +0.000 A 
ATOM     16  C   UNL     1       1.515   6.906  20.536  0.00  0.00    +0.000 A 
ATOM     17  C   UNL     1       1.660   8.071  19.784  0.00  0.00    +0.000 A 
ATOM     18  C   UNL     1       2.374   8.029  18.593  0.00  0.00    +0.000 A 
ATOM     19  C   UNL     1       2.936   6.828  18.156  0.00  0.00    +0.000 A 
ATOM     20  C   UNL     1       2.783   5.627  18.892  0.00  0.00    +0.000 A 
ENDBRANCH  13  20
ENDBRANCH   1  13
TORSDOF 6
ENDMDL
MODEL 5
REMARK VINA RESULT:      -6.6      2.069      5.967
REMARK  Name = 
REMARK  11 active torsions:
REMARK  status: ('A' for Active; 'I' for Inactive)
REMARK    1  A    between atoms: C_1  and  C_2
REMARK    2  A    between atoms: C_7  and  C_8
REMARK    3  A    between atoms: C_8  and  S_9
REMARK    4  A    between atoms: S_9  and  N_12
REMARK    5  A    between atoms: N_12  and  C_13
REMARK    6  A    between atoms: C_13  and  C_14
REMARK    7  A    between atoms: C_13  and  C_17
REMARK    8  A    between atoms: C_14  and  C_15
REMARK    9  A    between atoms: C_14  and  C_16
REMARK   10  A    between atoms: C_17  and  C_18
REMARK   11  A    between atoms: C_17  and  C_19
REMARK                            x       y       z     vdW  Elec       q    Type
REMARK                         _______ _______ _______ _____ _____    ______ ____
ROOT
ATOM      1  S   UNL     1       3.987   6.030  18.030  0.00  0.00    +0.000 S 
ATOM      2  O   UNL     1       4.170   7.376  17.521  0.00  0.00    +0.000 OA
ATOM      3  O   UNL     1       4.429   5.649  19.348  0.00  0.00    +0.000 OA
ENDROOT
BRANCH   1   4
ATOM      4  N   UNL     1       4.828   5.032  16.898  0.00  0.00    +0.000 NA
ATOM      5  H   UNL     1       4.131   4.622  16.275  0.00  0.00    +0.000 HD
BRANCH   4   6
ATOM      6  C   UNL     1       5.906   5.761  16.049  0.00  0.00    +0.000 C 
BRANCH   6   7
ATOM      7  C   UNL     1       7.260   5.817  16.837  0.00  0.00    +0.000 C 
ATOM      8  C   UNL     1       7.510   7.158  17.527  0.00  0.00    +0.000 C 
ATOM      9  C   UNL     1       7.544   4.655  17.796  0.00  0.00    +0.000 C 
ENDBRANCH   6   7
BRANCH   6  10
ATOM     10  C   UNL     1       5.959   5.104  14.613  0.00  0.00    +0.000 C 
ATOM     11  C   UNL     1       7.366   5.155  13.991  0.00  0.00    +0.000 C 
ATOM     12  C   UNL     1       5.542   3.622  14.579  0.00  0.00    +0.000 C 
ENDBRANCH   6  10
ENDBRANCH   4   6
ENDBRANCH   1   4
BRANCH   1  13
ATOM     13  C   UNL     1       2.235   5.572  17.873  0.00  0.00    +0.000 C 
BRANCH  13  20
ATOM     14  C   UNL     1       1.425   6.136  20.792  0.00  0.00    +0.000 C 
ATOM     15  C   UNL     1       1.620   4.744  20.252  0.00  0.00    +0.000 A 
ATOM     16  C   UNL     1       1.468   3.669  21.150  0.00  0.00    +0.000 A 
ATOM     17  C   UNL     1       1.636   2.347  20.738  0.00  0.00    +0.000 A 
ATOM     18  C   UNL     1       1.948   2.083  19.410  0.00  0.00    +0.000 A 
ATOM     19  C   UNL     1       2.095   3.134  18.503  0.00  0.00    +0.000 A 
ATOM     20  C   UNL     1       1.950   4.484  18.904  0.00  0.00    +0.000 A 
ENDBRANCH  13  20
ENDBRANCH   1  13
TORSDOF 6
ENDMDL
MODEL 6
REMARK VINA RESULT:      -6.6      1.359      5.238
REMARK  Name = 
REMARK  11 active torsions:
REMARK  status: ('A' for Active; 'I' for Inactive)
REMARK    1  A    between atoms: C_1  and  C_2
REMARK    2  A    between atoms: C_7  and  C_8
REMARK    3  A    between atoms: C_8  and  S_9
REMARK    4  A    between atoms: S_9  and  N_12
REMARK    5  A    between atoms: N_12  and  C_13
REMARK    6  A    between atoms: C_13  and  C_14
REMARK    7  A    between atoms: C_13  and  C_17
REMARK    8  A    between atoms: C_14  and  C_15
REMARK    9  A    between atoms: C_14  and  C_16
REMARK   10  A    between atoms: C_17  and  C_18
REMARK   11  A    between atoms: C_17  and  C_19
REMARK                            x       y       z     vdW  Elec       q    Type
REMARK                         _______ _______ _______ _____ _____    ______ ____
ROOT
ATOM      1  S   UNL     1       3.862   2.692  18.381  0.00  0.00    +0.000 S 
ATOM      2  O   UNL     1       4.306   3.187  19.670  0.00  0.00    +0.000 OA
ATOM      3  O   UNL     1       3.646   1.288  18.138  0.00  0.00    +0.000 OA
ENDROOT
BRANCH   1   4
ATOM      4  N   UNL     1       5.086   3.220  17.282  0.00  0.00    +0.000 NA
ATOM      5  H   UNL     1       4.876   2.811  16.371  0.00  0.00    +0.000 HD
BRANCH   4   6
ATOM      6  C   UNL     1       5.218   4.761  17.131  0.00  0.00    +0.000 C 
BRANCH   6   7
ATOM      7  C   UNL     1       6.544   5.253  17.806  0.00  0.00    +0.000 C 
ATOM      8  C   UNL     1       6.382   5.612  19.284  0.00  0.00    +0.000 C 
ATOM      9  C   UNL     1       7.786   4.379  17.596  0.00  0.00    +0.000 C 
ENDBRANCH   6   7
BRANCH   6  10
ATOM     10  C   UNL     1       5.021   5.146  15.612  0.00  0.00    +0.000 C 
ATOM     11  C   UNL     1       5.205   6.653  15.355  0.00  0.00    +0.000 C 
ATOM     12  C   UNL     1       5.990   4.438  14.648  0.00  0.00    +0.000 C 
ENDBRANCH   6  10
ENDBRANCH   4   6
ENDBRANCH   1   4
BRANCH   1  13
ATOM     13  C   UNL     1       2.355   3.583  17.892  0.00  0.00    +0.000 C 
BRANCH  13  20
ATOM     14  C   UNL     1       1.093   3.486  20.703  0.00  0.00    +0.000 C 
ATOM     15  C   UNL     1       1.604   4.758  20.078  0.00  0.00    +0.000 A 
ATOM     16  C   UNL     1       1.445   5.952  20.810  0.00  0.00    +0.000 A 
ATOM     17  C   UNL     1       1.883   7.176  20.306  0.00  0.00    +0.000 A 
ATOM     18  C   UNL     1       2.502   7.220  19.063  0.00  0.00    +0.000 A 
ATOM     19  C   UNL     1       2.677   6.046  18.327  0.00  0.00    +0.000 A 
ATOM     20  C   UNL     1       2.220   4.795  18.808  0.00  0.00    +0.000 A 
ENDBRANCH  13  20
ENDBRANCH   1  13
TORSDOF 6
ENDMDL
MODEL 7
REMARK VINA RESULT:      -6.5      2.156      5.792
REMARK  Name = 
REMARK  11 active torsions:
REMARK  status: ('A' for Active; 'I' for Inactive)
REMARK    1  A    between atoms: C_1  and  C_2
REMARK    2  A    between atoms: C_7  and  C_8
REMARK    3  A    between atoms: C_8  and  S_9
REMARK    4  A    between atoms: S_9  and  N_12
REMARK    5  A    between atoms: N_12  and  C_13
REMARK    6  A    between atoms: C_13  and  C_14
REMARK    7  A    between atoms: C_13  and  C_17
REMARK    8  A    between atoms: C_14  and  C_15
REMARK    9  A    between atoms: C_14  and  C_16
REMARK   10  A    between atoms: C_17  and  C_18
REMARK   11  A    between atoms: C_17  and  C_19
REMARK                            x       y       z     vdW  Elec       q    Type
REMARK                         _______ _______ _______ _____ _____    ______ ____
ROOT
ATOM      1  S   UNL     1       3.968   6.092  18.051  0.00  0.00    +0.000 S 
ATOM      2  O   UNL     1       4.123   7.180  17.105  0.00  0.00    +0.000 OA
ATOM      3  O   UNL     1       3.999   6.311  19.476  0.00  0.00    +0.000 OA
ENDROOT
BRANCH   1   4
ATOM      4  N   UNL     1       5.262   5.013  17.670  0.00  0.00    +0.000 NA
ATOM      5  H   UNL     1       4.855   4.195  17.217  0.00  0.00    +0.000 HD
BRANCH   4   6
ATOM      6  C   UNL     1       6.368   5.606  16.754  0.00  0.00    +0.000 C 
BRANCH   6   7
ATOM      7  C   UNL     1       7.520   6.211  17.628  0.00  0.00    +0.000 C 
ATOM      8  C   UNL     1       7.612   7.735  17.549  0.00  0.00    +0.000 C 
ATOM      9  C   UNL     1       7.595   5.739  19.084  0.00  0.00    +0.000 C 
ENDBRANCH   6   7
BRANCH   6  10
ATOM     10  C   UNL     1       6.793   4.517  15.691  0.00  0.00    +0.000 C 
ATOM     11  C   UNL     1       5.678   3.489  15.420  0.00  0.00    +0.000 C 
ATOM     12  C   UNL     1       7.174   5.090  14.315  0.00  0.00    +0.000 C 
ENDBRANCH   6  10
ENDBRANCH   4   6
ENDBRANCH   1   4
BRANCH   1  13
ATOM     13  C   UNL     1       2.445   5.180  17.659  0.00  0.00    +0.000 C 
BRANCH  13  20
ATOM     14  C   UNL     1       2.965   2.145  17.532  0.00  0.00    +0.000 C 
ATOM     15  C   UNL     1       2.373   2.824  18.739  0.00  0.00    +0.000 A 
ATOM     16  C   UNL     1       2.004   2.010  19.829  0.00  0.00    +0.000 A 
ATOM     17  C   UNL     1       1.444   2.554  20.985  0.00  0.00    +0.000 A 
ATOM     18  C   UNL     1       1.257   3.928  21.070  0.00  0.00    +0.000 A 
ATOM     19  C   UNL     1       1.623   4.752  20.004  0.00  0.00    +0.000 A 
ATOM     20  C   UNL     1       2.174   4.220  18.813  0.00  0.00    +0.000 A 
ENDBRANCH  13  20
ENDBRANCH   1  13
TORSDOF 6
ENDMDL
MODEL 8
REMARK VINA RESULT:      -6.5      1.213      5.252
REMARK  Name = 
REMARK  11 active torsions:
REMARK  status: ('A' for Active; 'I' for Inactive)
REMARK    1  A    between atoms: C_1  and  C_2
REMARK    2  A    between atoms: C_7  and  C_8
REMARK    3  A    between atoms: C_8  and  S_9
REMARK    4  A    between atoms: S_9  and  N_12
REMARK    5  A    between atoms: N_12  and  C_13
REMARK    6  A    between atoms: C_13  and  C_14
REMARK    7  A    between atoms: C_13  and  C_17
REMARK    8  A    between atoms: C_14  and  C_15
REMARK    9  A    between atoms: C_14  and  C_16
REMARK   10  A    between atoms: C_17  and  C_18
REMARK   11  A    between atoms: C_17  and  C_19
REMARK                            x       y       z     vdW  Elec       q    Type
REMARK                         _______ _______ _______ _____ _____    ______ ____
ROOT
ATOM      1  S   UNL     1       4.271   3.674  18.148  0.00  0.00    +0.000 S 
ATOM      2  O   UNL     1       4.508   3.213  19.503  0.00  0.00    +0.000 OA
ATOM      3  O   UNL     1       4.619   2.874  17.000  0.00  0.00    +0.000 OA
ENDROOT
BRANCH   1   4
ATOM      4  N   UNL     1       5.170   5.145  18.038  0.00  0.00    +0.000 NA
ATOM      5  H   UNL     1       5.338   5.472  18.990  0.00  0.00    +0.000 HD
BRANCH   4   6
ATOM      6  C   UNL     1       6.528   5.034  17.291  0.00  0.00    +0.000 C 
BRANCH   6   7
ATOM      7  C   UNL     1       6.366   5.526  15.811  0.00  0.00    +0.000 C 
ATOM      8  C   UNL     1       6.584   4.426  14.773  0.00  0.00    +0.000 C 
ATOM      9  C   UNL     1       5.100   6.329  15.491  0.00  0.00    +0.000 C 
ENDBRANCH   6   7
BRANCH   6  10
ATOM     10  C   UNL     1       7.646   5.749  18.148  0.00  0.00    +0.000 C 
ATOM     11  C   UNL     1       7.717   7.264  17.882  0.00  0.00    +0.000 C 
ATOM     12  C   UNL     1       7.467   5.601  19.670  0.00  0.00    +0.000 C 
ENDBRANCH   6  10
ENDBRANCH   4   6
ENDBRANCH   1   4
BRANCH   1  13
ATOM     13  C   UNL     1       2.526   4.158  17.984  0.00  0.00    +0.000 C 
BRANCH  13  20
ATOM     14  C   UNL     1       1.632   4.230  20.933  0.00  0.00    +0.000 C 
ATOM     15  C   UNL     1       1.879   5.475  20.122  0.00  0.00    +0.000 A 
ATOM     16  C   UNL     1       1.638   6.717  20.744  0.00  0.00    +0.000 A 
ATOM     17  C   UNL     1       1.835   7.920  20.067  0.00  0.00    +0.000 A 
ATOM     18  C   UNL     1       2.291   7.896  18.755  0.00  0.00    +0.000 A 
ATOM     19  C   UNL     1       2.543   6.676  18.123  0.00  0.00    +0.000 A 
ATOM     20  C   UNL     1       2.329   5.442  18.784  0.00  0.00    +0.000 A 
ENDBRANCH  13  20
ENDBRANCH   1  13
TORSDOF 6
ENDMDL
MODEL 9
REMARK VINA RESULT:      -6.5      1.605      5.538
REMARK  Name = 
REMARK  11 active torsions:
REMARK  status: ('A' for Active; 'I' for Inactive)
REMARK    1  A    between atoms: C_1  and  C_2
REMARK    2  A    between atoms: C_7  and  C_8
REMARK    3  A    between atoms: C_8  and  S_9
REMARK    4  A    between atoms: S_9  and  N_12
REMARK    5  A    between atoms: N_12  and  C_13
REMARK    6  A    between atoms: C_13  and  C_14
REMARK    7  A    between atoms: C_13  and  C_17
REMARK    8  A    between atoms: C_14  and  C_15
REMARK    9  A    between atoms: C_14  and  C_16
REMARK   10  A    between atoms: C_17  and  C_18
REMARK   11  A    between atoms: C_17  and  C_19
REMARK                            x       y       z     vdW  Elec       q    Type
REMARK                         _______ _______ _______ _____ _____    ______ ____
ROOT
ATOM      1  S   UNL     1       4.011   3.587  17.708  0.00  0.00    +0.000 S 
ATOM      2  O   UNL     1       4.674   3.963  18.942  0.00  0.00    +0.000 OA
ATOM      3  O   UNL     1       4.074   2.244  17.189  0.00  0.00    +0.000 OA
ENDROOT
BRANCH   1   4
ATOM      4  N   UNL     1       4.709   4.629  16.519  0.00  0.00    +0.000 NA
ATOM      5  H   UNL     1       4.529   5.589  16.812  0.00  0.00    +0.000 HD
BRANCH   4   6
ATOM      6  C   UNL     1       6.235   4.442  16.292  0.00  0.00    +0.000 C 
BRANCH   6   7
ATOM      7  C   UNL     1       6.518   4.145  14.780  0.00  0.00    +0.000 C 
ATOM      8  C   UNL     1       5.252   3.916  13.953  0.00  0.00    +0.000 C 
ATOM      9  C   UNL     1       7.467   5.108  14.058  0.00  0.00    +0.000 C 
ENDBRANCH   6   7
BRANCH   6  10
ATOM     10  C   UNL     1       7.001   5.672  16.920  0.00  0.00    +0.000 C 
ATOM     11  C   UNL     1       6.083   6.887  17.149  0.00  0.00    +0.000 C 
ATOM     12  C   UNL     1       7.655   5.382  18.283  0.00  0.00    +0.000 C 
ENDBRANCH   6  10
ENDBRANCH   4   6
ENDBRANCH   1   4
BRANCH   1  13
ATOM     13  C   UNL     1       2.261   4.067  17.807  0.00  0.00    +0.000 C 
BRANCH  13  20
ATOM     14  C   UNL     1       1.426   3.982  20.773  0.00  0.00    +0.000 C 
ATOM     15  C   UNL     1       1.749   5.264  20.050  0.00  0.00    +0.000 A 
ATOM     16  C   UNL     1       1.611   6.469  20.767  0.00  0.00    +0.000 A 
ATOM     17  C   UNL     1       1.883   7.702  20.176  0.00  0.00    +0.000 A 
ATOM     18  C   UNL     1       2.313   7.744  18.855  0.00  0.00    +0.000 A 
ATOM     19  C   UNL     1       2.464   6.560  18.130  0.00  0.00    +0.000 A 
ATOM     20  C   UNL     1       2.172   5.298  18.703  0.00  0.00    +0.000 A 
ENDBRANCH  13  20
ENDBRANCH   1  13
TORSDOF 6
ENDMDL
