MODEL 1
REMARK VINA RESULT:      -6.9      0.000      0.000
REMARK  Name = 
REMARK  3 active torsions:
REMARK  status: ('A' for Active; 'I' for Inactive)
REMARK    1  A    between atoms: C_2  and  O_3
REMARK    2  A    between atoms: C_2  and  C_4
REMARK    3  A    between atoms: C_8  and  N_9
REMARK                            x       y       z     vdW  Elec       q    Type
REMARK                         _______ _______ _______ _____ _____    ______ ____
ROOT
ATOM      1  C   UNL     1       2.502   3.584  19.822  0.00  0.00    +0.000 A 
ATOM      2  C   UNL     1       1.557   4.144  18.954  0.00  0.00    +0.000 A 
ATOM      3  C   UNL     1       1.976   4.779  17.785  0.00  0.00    +0.000 A 
ATOM      4  C   UNL     1       3.337   4.875  17.482  0.00  0.00    +0.000 A 
ATOM      5  C   UNL     1       4.292   4.332  18.354  0.00  0.00    +0.000 A 
ATOM      6  C   UNL     1       3.870   3.690  19.530  0.00  0.00    +0.000 A 
ENDROOT
BRANCH   5   7
ATOM      7  N   UNL     1       5.675   4.428  18.061  0.00  0.00    +0.000 N 
ATOM      8  C   UNL     1       6.312   4.414  16.846  0.00  0.00    +0.000 A 
ATOM      9  N   UNL     1       7.608   4.507  17.031  0.00  0.00    +0.000 NA
ATOM     10  N   UNL     1       7.783   4.585  18.388  0.00  0.00    +0.000 NA
ATOM     11  N   UNL     1       6.619   4.538  19.021  0.00  0.00    +0.000 NA
ENDBRANCH   5   7
BRANCH   1  13
ATOM     12  O   UNL     1       2.907   2.510  21.903  0.00  0.00    +0.000 OA
ATOM     13  C   UNL     1       2.099   2.923  21.088  0.00  0.00    +0.000 C 
BRANCH  13  14
ATOM     14  O   UNL     1       0.765   2.795  21.240  0.00  0.00    +0.000 OA
ATOM     15  H   UNL     1       0.220   3.304  20.613  0.00  0.00    +0.000 HD
ENDBRANCH  13  14
ENDBRANCH   1  13
TORSDOF 3
ENDMDL
MODEL 2
REMARK VINA RESULT:      -6.7      2.082      2.485
REMARK  Name = 
REMARK  3 active torsions:
REMARK  status: ('A' for Active; 'I' for Inactive)
REMARK    1  A    between atoms: C_2  and  O_3
REMARK    2  A    between atoms: C_2  and  C_4
REMARK    3  A    between atoms: C_8  and  N_9
REMARK                            x       y       z     vdW  Elec       q    Type
REMARK                         _______ _______ _______ _____ _____    ______ ____
ROOT
ATOM      1  C   UNL     1       2.459   3.832  18.018  0.00  0.00    +0.000 A 
ATOM      2  C   UNL     1       1.887   5.034  18.450  0.00  0.00    +0.000 A 
ATOM      3  C   UNL     1       2.549   6.241  18.222  0.00  0.00    +0.000 A 
ATOM      4  C   UNL     1       3.789   6.256  17.579  0.00  0.00    +0.000 A 
ATOM      5  C   UNL     1       4.378   5.055  17.157  0.00  0.00    +0.000 A 
ATOM      6  C   UNL     1       3.711   3.840  17.384  0.00  0.00    +0.000 A 
ENDROOT
BRANCH   5   7
ATOM      7  N   UNL     1       5.638   5.056  16.510  0.00  0.00    +0.000 N 
ATOM      8  C   UNL     1       6.771   4.341  16.805  0.00  0.00    +0.000 A 
ATOM      9  N   UNL     1       7.723   4.661  15.959  0.00  0.00    +0.000 NA
ATOM     10  N   UNL     1       7.171   5.591  15.118  0.00  0.00    +0.000 NA
ATOM     11  N   UNL     1       5.909   5.838  15.442  0.00  0.00    +0.000 NA
ENDBRANCH   5   7
BRANCH   1  13
ATOM     12  O   UNL     1       0.641   2.428  18.631  0.00  0.00    +0.000 OA
ATOM     13  C   UNL     1       1.800   2.525  18.263  0.00  0.00    +0.000 C 
BRANCH  13  14
ATOM     14  O   UNL     1       2.606   1.459  18.071  0.00  0.00    +0.000 OA
ATOM     15  H   UNL     1       3.486   1.659  17.705  0.00  0.00    +0.000 HD
ENDBRANCH  13  14
ENDBRANCH   1  13
TORSDOF 3
ENDMDL
MODEL 3
REMARK VINA RESULT:      -6.6      1.210      1.210
REMARK  Name = 
REMARK  3 active torsions:
REMARK  status: ('A' for Active; 'I' for Inactive)
REMARK    1  A    between atoms: C_2  and  O_3
REMARK    2  A    between atoms: C_2  and  C_4
REMARK    3  A    between atoms: C_8  and  N_9
REMARK                            x       y       z     vdW  Elec       q    Type
REMARK                         _______ _______ _______ _____ _____    ______ ____
ROOT
ATOM      1  C   UNL     1       2.758   4.072  19.687  0.00  0.00    +0.000 A 
ATOM      2  C   UNL     1       1.838   3.638  18.725  0.00  0.00    +0.000 A 
ATOM      3  C   UNL     1       2.260   3.395  17.418  0.00  0.00    +0.000 A 
ATOM      4  C   UNL     1       3.594   3.597  17.058  0.00  0.00    +0.000 A 
ATOM      5  C   UNL     1       4.520   4.048  18.010  0.00  0.00    +0.000 A 
ATOM      6  C   UNL     1       4.096   4.290  19.327  0.00  0.00    +0.000 A 
ENDROOT
BRANCH   5   7
ATOM      7  N   UNL     1       5.875   4.263  17.656  0.00  0.00    +0.000 N 
ATOM      8  C   UNL     1       6.450   4.338  16.412  0.00  0.00    +0.000 A 
ATOM      9  N   UNL     1       7.742   4.529  16.539  0.00  0.00    +0.000 NA
ATOM     10  N   UNL     1       7.978   4.578  17.888  0.00  0.00    +0.000 NA
ATOM     11  N   UNL     1       6.854   4.418  18.573  0.00  0.00    +0.000 NA
ENDBRANCH   5   7
BRANCH   1  13
ATOM     12  O   UNL     1       2.185   3.495  21.921  0.00  0.00    +0.000 OA
ATOM     13  C   UNL     1       2.344   4.366  21.082  0.00  0.00    +0.000 C 
BRANCH  13  14
ATOM     14  O   UNL     1       2.133   5.676  21.326  0.00  0.00    +0.000 OA
ATOM     15  H   UNL     1       1.237   5.907  21.633  0.00  0.00    +0.000 HD
ENDBRANCH  13  14
ENDBRANCH   1  13
TORSDOF 3
ENDMDL
MODEL 4
REMARK VINA RESULT:      -6.6      4.189      5.631
REMARK  Name = 
REMARK  3 active torsions:
REMARK  status: ('A' for Active; 'I' for Inactive)
REMARK    1  A    between atoms: C_2  and  O_3
REMARK    2  A    between atoms: C_2  and  C_4
REMARK    3  A    between atoms: C_8  and  N_9
REMARK                            x       y       z     vdW  Elec       q    Type
REMARK                         _______ _______ _______ _____ _____    ______ ____
ROOT
ATOM      1  C   UNL     1       5.528   5.146  16.006  0.00  0.00    +0.000 A 
ATOM      2  C   UNL     1       5.393   6.496  16.349  0.00  0.00    +0.000 A 
ATOM      3  C   UNL     1       4.403   6.890  17.249  0.00  0.00    +0.000 A 
ATOM      4  C   UNL     1       3.531   5.946  17.798  0.00  0.00    +0.000 A 
ATOM      5  C   UNL     1       3.647   4.593  17.448  0.00  0.00    +0.000 A 
ATOM      6  C   UNL     1       4.647   4.195  16.544  0.00  0.00    +0.000 A 
ENDROOT
BRANCH   5   7
ATOM      7  N   UNL     1       2.766   3.627  17.993  0.00  0.00    +0.000 N 
ATOM      8  C   UNL     1       3.023   2.619  18.888  0.00  0.00    +0.000 A 
ATOM      9  N   UNL     1       1.922   1.940  19.110  0.00  0.00    +0.000 NA
ATOM     10  N   UNL     1       0.958   2.539  18.342  0.00  0.00    +0.000 NA
ATOM     11  N   UNL     1       1.459   3.561  17.661  0.00  0.00    +0.000 NA
ENDBRANCH   5   7
BRANCH   1  13
ATOM     12  O   UNL     1       7.529   5.357  14.741  0.00  0.00    +0.000 OA
ATOM     13  C   UNL     1       6.552   4.689  15.033  0.00  0.00    +0.000 C 
BRANCH  13  14
ATOM     14  O   UNL     1       6.287   3.485  14.484  0.00  0.00    +0.000 OA
ATOM     15  H   UNL     1       6.931   3.176  13.821  0.00  0.00    +0.000 HD
ENDBRANCH  13  14
ENDBRANCH   1  13
TORSDOF 3
ENDMDL
MODEL 5
REMARK VINA RESULT:      -6.5      3.896      5.056
REMARK  Name = 
REMARK  3 active torsions:
REMARK  status: ('A' for Active; 'I' for Inactive)
REMARK    1  A    between atoms: C_2  and  O_3
REMARK    2  A    between atoms: C_2  and  C_4
REMARK    3  A    between atoms: C_8  and  N_9
REMARK                            x       y       z     vdW  Elec       q    Type
REMARK                         _______ _______ _______ _____ _____    ______ ____
ROOT
ATOM      1  C   UNL     1       6.866   5.299  18.186  0.00  0.00    +0.000 A 
ATOM      2  C   UNL     1       5.683   4.676  18.598  0.00  0.00    +0.000 A 
ATOM      3  C   UNL     1       4.872   4.033  17.662  0.00  0.00    +0.000 A 
ATOM      4  C   UNL     1       5.226   4.022  16.310  0.00  0.00    +0.000 A 
ATOM      5  C   UNL     1       6.402   4.659  15.885  0.00  0.00    +0.000 A 
ATOM      6  C   UNL     1       7.220   5.303  16.828  0.00  0.00    +0.000 A 
ENDROOT
BRANCH   5   7
ATOM      7  N   UNL     1       6.769   4.660  14.517  0.00  0.00    +0.000 N 
ATOM      8  C   UNL     1       6.308   3.875  13.489  0.00  0.00    +0.000 A 
ATOM      9  N   UNL     1       6.934   4.195  12.381  0.00  0.00    +0.000 NA
ATOM     10  N   UNL     1       7.799   5.202  12.722  0.00  0.00    +0.000 NA
ATOM     11  N   UNL     1       7.707   5.491  14.013  0.00  0.00    +0.000 NA
ENDBRANCH   5   7
BRANCH   1  13
ATOM     12  O   UNL     1       8.341   7.039  18.857  0.00  0.00    +0.000 OA
ATOM     13  C   UNL     1       7.743   6.015  19.146  0.00  0.00    +0.000 C 
BRANCH  13  14
ATOM     14  O   UNL     1       7.840   5.417  20.352  0.00  0.00    +0.000 OA
ATOM     15  H   UNL     1       8.554   5.747  20.927  0.00  0.00    +0.000 HD
ENDBRANCH  13  14
ENDBRANCH   1  13
TORSDOF 3
ENDMDL
MODEL 6
REMARK VINA RESULT:      -6.4      0.869      1.070
REMARK  Name = 
REMARK  3 active torsions:
REMARK  status: ('A' for Active; 'I' for Inactive)
REMARK    1  A    between atoms: C_2  and  O_3
REMARK    2  A    between atoms: C_2  and  C_4
REMARK    3  A    between atoms: C_8  and  N_9
REMARK                            x       y       z     vdW  Elec       q    Type
REMARK                         _______ _______ _______ _____ _____    ______ ____
ROOT
ATOM      1  C   UNL     1       2.533   3.353  19.772  0.00  0.00    +0.000 A 
ATOM      2  C   UNL     1       1.680   3.496  18.671  0.00  0.00    +0.000 A 
ATOM      3  C   UNL     1       2.183   3.965  17.457  0.00  0.00    +0.000 A 
ATOM      4  C   UNL     1       3.532   4.309  17.337  0.00  0.00    +0.000 A 
ATOM      5  C   UNL     1       4.391   4.185  18.439  0.00  0.00    +0.000 A 
ATOM      6  C   UNL     1       3.885   3.710  19.661  0.00  0.00    +0.000 A 
ENDROOT
BRANCH   5   7
ATOM      7  N   UNL     1       5.759   4.535  18.332  0.00  0.00    +0.000 N 
ATOM      8  C   UNL     1       6.570   5.172  19.237  0.00  0.00    +0.000 A 
ATOM      9  N   UNL     1       7.769   5.317  18.724  0.00  0.00    +0.000 NA
ATOM     10  N   UNL     1       7.707   4.757  17.475  0.00  0.00    +0.000 NA
ATOM     11  N   UNL     1       6.494   4.280  17.227  0.00  0.00    +0.000 NA
ENDBRANCH   5   7
BRANCH   1  13
ATOM     12  O   UNL     1       2.776   2.534  21.990  0.00  0.00    +0.000 OA
ATOM     13  C   UNL     1       2.033   2.882  21.087  0.00  0.00    +0.000 C 
BRANCH  13  14
ATOM     14  O   UNL     1       0.687   2.846  21.182  0.00  0.00    +0.000 OA
ATOM     15  H   UNL     1       0.287   1.959  21.138  0.00  0.00    +0.000 HD
ENDBRANCH  13  14
ENDBRANCH   1  13
TORSDOF 3
ENDMDL
MODEL 7
REMARK VINA RESULT:      -6.4      4.464      6.037
REMARK  Name = 
REMARK  3 active torsions:
REMARK  status: ('A' for Active; 'I' for Inactive)
REMARK    1  A    between atoms: C_2  and  O_3
REMARK    2  A    between atoms: C_2  and  C_4
REMARK    3  A    between atoms: C_8  and  N_9
REMARK                            x       y       z     vdW  Elec       q    Type
REMARK                         _______ _______ _______ _____ _____    ______ ____
ROOT
ATOM      1  C   UNL     1       6.404   4.481  15.761  0.00  0.00    +0.000 A 
ATOM      2  C   UNL     1       7.252   4.828  16.819  0.00  0.00    +0.000 A 
ATOM      3  C   UNL     1       6.796   4.743  18.135  0.00  0.00    +0.000 A 
ATOM      4  C   UNL     1       5.489   4.329  18.403  0.00  0.00    +0.000 A 
ATOM      5  C   UNL     1       4.625   3.995  17.350  0.00  0.00    +0.000 A 
ATOM      6  C   UNL     1       5.086   4.078  16.025  0.00  0.00    +0.000 A 
ENDROOT
BRANCH   5   7
ATOM      7  N   UNL     1       3.296   3.580  17.609  0.00  0.00    +0.000 N 
ATOM      8  C   UNL     1       2.811   2.324  17.876  0.00  0.00    +0.000 A 
ATOM      9  N   UNL     1       1.510   2.383  18.035  0.00  0.00    +0.000 NA
ATOM     10  N   UNL     1       1.177   3.701  17.869  0.00  0.00    +0.000 NA
ATOM     11  N   UNL     1       2.251   4.435  17.610  0.00  0.00    +0.000 NA
ENDBRANCH   5   7
BRANCH   1  13
ATOM     12  O   UNL     1       6.393   3.868  13.465  0.00  0.00    +0.000 OA
ATOM     13  C   UNL     1       6.842   4.581  14.347  0.00  0.00    +0.000 C 
BRANCH  13  14
ATOM     14  O   UNL     1       7.798   5.509  14.134  0.00  0.00    +0.000 OA
ATOM     15  H   UNL     1       7.525   6.434  14.270  0.00  0.00    +0.000 HD
ENDBRANCH  13  14
ENDBRANCH   1  13
TORSDOF 3
ENDMDL
MODEL 8
REMARK VINA RESULT:      -6.3      3.491      5.277
REMARK  Name = 
REMARK  3 active torsions:
REMARK  status: ('A' for Active; 'I' for Inactive)
REMARK    1  A    between atoms: C_2  and  O_3
REMARK    2  A    between atoms: C_2  and  C_4
REMARK    3  A    between atoms: C_8  and  N_9
REMARK                            x       y       z     vdW  Elec       q    Type
REMARK                         _______ _______ _______ _____ _____    ______ ____
ROOT
ATOM      1  C   UNL     1       6.771   5.247  18.120  0.00  0.00    +0.000 A 
ATOM      2  C   UNL     1       7.228   4.826  16.866  0.00  0.00    +0.000 A 
ATOM      3  C   UNL     1       6.373   4.130  16.011  0.00  0.00    +0.000 A 
ATOM      4  C   UNL     1       5.066   3.835  16.406  0.00  0.00    +0.000 A 
ATOM      5  C   UNL     1       4.604   4.237  17.668  0.00  0.00    +0.000 A 
ATOM      6  C   UNL     1       5.464   4.941  18.528  0.00  0.00    +0.000 A 
ENDROOT
BRANCH   5   7
ATOM      7  N   UNL     1       3.283   3.939  18.083  0.00  0.00    +0.000 N 
ATOM      8  C   UNL     1       2.745   3.935  19.346  0.00  0.00    +0.000 A 
ATOM      9  N   UNL     1       1.483   3.579  19.282  0.00  0.00    +0.000 NA
ATOM     10  N   UNL     1       1.227   3.362  17.953  0.00  0.00    +0.000 NA
ATOM     11  N   UNL     1       2.310   3.577  17.218  0.00  0.00    +0.000 NA
ENDBRANCH   5   7
BRANCH   1  13
ATOM     12  O   UNL     1       8.259   6.984  18.768  0.00  0.00    +0.000 OA
ATOM     13  C   UNL     1       7.656   5.967  19.069  0.00  0.00    +0.000 C 
BRANCH  13  14
ATOM     14  O   UNL     1       7.755   5.380  20.280  0.00  0.00    +0.000 OA
ATOM     15  H   UNL     1       7.224   4.573  20.401  0.00  0.00    +0.000 HD
ENDBRANCH  13  14
ENDBRANCH   1  13
TORSDOF 3
ENDMDL
MODEL 9
REMARK VINA RESULT:      -6.3      4.241      5.838
REMARK  Name = 
REMARK  3 active torsions:
REMARK  status: ('A' for Active; 'I' for Inactive)
REMARK    1  A    between atoms: C_2  and  O_3
REMARK    2  A    between atoms: C_2  and  C_4
REMARK    3  A    between atoms: C_8  and  N_9
REMARK                            x       y       z     vdW  Elec       q    Type
REMARK                         _______ _______ _______ _____ _____    ______ ____
ROOT
ATOM      1  C   UNL     1       6.415   4.496  16.136  0.00  0.00    +0.000 A 
ATOM      2  C   UNL     1       7.184   4.971  17.205  0.00  0.00    +0.000 A 
ATOM      3  C   UNL     1       6.665   4.948  18.500  0.00  0.00    +0.000 A 
ATOM      4  C   UNL     1       5.374   4.469  18.735  0.00  0.00    +0.000 A 
ATOM      5  C   UNL     1       4.589   4.007  17.668  0.00  0.00    +0.000 A 
ATOM      6  C   UNL     1       5.112   4.027  16.364  0.00  0.00    +0.000 A 
ENDROOT
BRANCH   5   7
ATOM      7  N   UNL     1       3.276   3.524  17.892  0.00  0.00    +0.000 N 
ATOM      8  C   UNL     1       2.070   4.146  17.685  0.00  0.00    +0.000 A 
ATOM      9  N   UNL     1       1.097   3.344  18.046  0.00  0.00    +0.000 NA
ATOM     10  N   UNL     1       1.706   2.197  18.483  0.00  0.00    +0.000 NA
ATOM     11  N   UNL     1       3.026   2.295  18.394  0.00  0.00    +0.000 NA
ENDBRANCH   5   7
BRANCH   1  13
ATOM     12  O   UNL     1       7.689   5.383  14.336  0.00  0.00    +0.000 OA
ATOM     13  C   UNL     1       6.920   4.527  14.740  0.00  0.00    +0.000 C 
BRANCH  13  14
ATOM     14  O   UNL     1       6.430   3.543  13.958  0.00  0.00    +0.000 OA
ATOM     15  H   UNL     1       7.017   3.245  13.240  0.00  0.00    +0.000 HD
ENDBRANCH  13  14
ENDBRANCH   1  13
TORSDOF 3
ENDMDL
