MODEL 1
REMARK VINA RESULT:      -9.0      0.000      0.000
REMARK  Name = 
REMARK  6 active torsions:
REMARK  status: ('A' for Active; 'I' for Inactive)
REMARK    1  A    between atoms: C_1  and  C_2
REMARK    2  A    between atoms: C_6  and  S_7
REMARK    3  A    between atoms: S_7  and  C_8
REMARK    4  A    between atoms: C_8  and  C_9
REMARK    5  A    between atoms: C_8  and  C_22
REMARK    6  A    between atoms: C_10  and  O_11
REMARK                            x       y       z     vdW  Elec       q    Type
REMARK                         _______ _______ _______ _____ _____    ______ ____
ROOT
ATOM      1  C   UNL     1       2.883   6.697  18.292  0.00  0.00    +0.000 C 
ENDROOT
BRANCH   1   2
ATOM      2  C   UNL     1       2.073   7.741  19.038  0.00  0.00    +0.000 C 
ATOM      3  C   UNL     1       1.814   7.619  20.360  0.00  0.00    +0.000 C 
ATOM      4  C   UNL     1       1.276   8.755  21.169  0.00  0.00    +0.000 C 
ATOM      5  O   UNL     1       1.398   8.812  22.385  0.00  0.00    +0.000 OA
ATOM      6  C   UNL     1       0.524   9.775  20.436  0.00  0.00    +0.000 A 
ATOM      7  C   UNL     1      -0.335  10.637  21.129  0.00  0.00    +0.000 A 
ATOM      8  C   UNL     1      -1.179  11.477  20.413  0.00  0.00    +0.000 A 
ATOM      9  C   UNL     1      -1.160  11.467  19.018  0.00  0.00    +0.000 A 
ATOM     10  C   UNL     1      -0.249  10.654  18.333  0.00  0.00    +0.000 A 
ATOM     11  C   UNL     1       0.606   9.812  19.051  0.00  0.00    +0.000 A 
ATOM     12  C   UNL     1       1.588   8.963  18.343  0.00  0.00    +0.000 C 
ATOM     13  O   UNL     1       1.914   9.247  17.199  0.00  0.00    +0.000 OA
BRANCH   3  14
ATOM     14  O   UNL     1       2.043   6.443  21.056  0.00  0.00    +0.000 OA
ATOM     15  H   UNL     1       2.875   6.541  21.561  0.00  0.00    +0.000 HD
ENDBRANCH   3  14
ENDBRANCH   1   2
BRANCH   1  16
ATOM     16  C   UNL     1       2.669   5.195  18.480  0.00  0.00    +0.000 A 
ATOM     17  C   UNL     1       1.578   4.493  17.946  0.00  0.00    +0.000 A 
ATOM     18  C   UNL     1       1.350   3.147  18.257  0.00  0.00    +0.000 A 
ATOM     19  C   UNL     1       2.210   2.471  19.114  0.00  0.00    +0.000 A 
ATOM     20  C   UNL     1       3.318   3.131  19.635  0.00  0.00    +0.000 A 
ATOM     21  C   UNL     1       3.553   4.472  19.311  0.00  0.00    +0.000 A 
ENDBRANCH   1  16
BRANCH   1  22
ATOM     22  S   UNL     1       4.594   7.258  17.901  0.00  0.00    +0.000 S 
BRANCH  22  28
ATOM     23  C   UNL     1       5.740   4.056  13.742  0.00  0.00    +0.000 C 
ATOM     24  C   UNL     1       6.010   4.512  15.147  0.00  0.00    +0.000 A 
ATOM     25  C   UNL     1       7.173   4.097  15.801  0.00  0.00    +0.000 A 
ATOM     26  C   UNL     1       7.475   4.591  17.064  0.00  0.00    +0.000 A 
ATOM     27  C   UNL     1       6.628   5.522  17.664  0.00  0.00    +0.000 A 
ATOM     28  C   UNL     1       5.464   5.975  17.023  0.00  0.00    +0.000 A 
ATOM     29  C   UNL     1       5.158   5.443  15.769  0.00  0.00    +0.000 A 
ENDBRANCH  22  28
ENDBRANCH   1  22
TORSDOF 5
ENDMDL
MODEL 2
REMARK VINA RESULT:      -8.7      0.839      2.429
REMARK  Name = 
REMARK  6 active torsions:
REMARK  status: ('A' for Active; 'I' for Inactive)
REMARK    1  A    between atoms: C_1  and  C_2
REMARK    2  A    between atoms: C_6  and  S_7
REMARK    3  A    between atoms: S_7  and  C_8
REMARK    4  A    between atoms: C_8  and  C_9
REMARK    5  A    between atoms: C_8  and  C_22
REMARK    6  A    between atoms: C_10  and  O_11
REMARK                            x       y       z     vdW  Elec       q    Type
REMARK                         _______ _______ _______ _____ _____    ______ ____
ROOT
ATOM      1  C   UNL     1       2.716   6.898  18.286  0.00  0.00    +0.000 C 
ENDROOT
BRANCH   1   2
ATOM      2  C   UNL     1       1.847   7.929  18.981  0.00  0.00    +0.000 C 
ATOM      3  C   UNL     1       1.470   9.068  18.358  0.00  0.00    +0.000 C 
ATOM      4  C   UNL     1       0.394   9.950  18.905  0.00  0.00    +0.000 C 
ATOM      5  O   UNL     1      -0.228  10.740  18.206  0.00  0.00    +0.000 OA
ATOM      6  C   UNL     1       0.166   9.878  20.349  0.00  0.00    +0.000 A 
ATOM      7  C   UNL     1      -0.513  10.915  20.999  0.00  0.00    +0.000 A 
ATOM      8  C   UNL     1      -0.566  10.929  22.388  0.00  0.00    +0.000 A 
ATOM      9  C   UNL     1       0.043   9.911  23.123  0.00  0.00    +0.000 A 
ATOM     10  C   UNL     1       0.658   8.840  22.465  0.00  0.00    +0.000 A 
ATOM     11  C   UNL     1       0.708   8.820  21.067  0.00  0.00    +0.000 A 
ATOM     12  C   UNL     1       1.336   7.686  20.357  0.00  0.00    +0.000 C 
ATOM     13  O   UNL     1       1.479   6.618  20.936  0.00  0.00    +0.000 OA
BRANCH   3  14
ATOM     14  O   UNL     1       2.039   9.485  17.166  0.00  0.00    +0.000 OA
ATOM     15  H   UNL     1       1.384  10.029  16.685  0.00  0.00    +0.000 HD
ENDBRANCH   3  14
ENDBRANCH   1   2
BRANCH   1  16
ATOM     16  C   UNL     1       2.617   5.401  18.578  0.00  0.00    +0.000 A 
ATOM     17  C   UNL     1       3.450   4.730  19.486  0.00  0.00    +0.000 A 
ATOM     18  C   UNL     1       3.415   3.336  19.619  0.00  0.00    +0.000 A 
ATOM     19  C   UNL     1       2.544   2.579  18.845  0.00  0.00    +0.000 A 
ATOM     20  C   UNL     1       1.682   3.219  17.960  0.00  0.00    +0.000 A 
ATOM     21  C   UNL     1       1.708   4.613  17.837  0.00  0.00    +0.000 A 
ENDBRANCH   1  16
BRANCH   1  22
ATOM     22  S   UNL     1       4.374   7.552  17.815  0.00  0.00    +0.000 S 
BRANCH  22  28
ATOM     23  C   UNL     1       6.000   4.102  14.032  0.00  0.00    +0.000 C 
ATOM     24  C   UNL     1       6.126   4.670  15.416  0.00  0.00    +0.000 A 
ATOM     25  C   UNL     1       7.239   4.353  16.200  0.00  0.00    +0.000 A 
ATOM     26  C   UNL     1       7.408   4.951  17.442  0.00  0.00    +0.000 A 
ATOM     27  C   UNL     1       6.479   5.889  17.892  0.00  0.00    +0.000 A 
ATOM     28  C   UNL     1       5.363   6.244  17.118  0.00  0.00    +0.000 A 
ATOM     29  C   UNL     1       5.190   5.609  15.888  0.00  0.00    +0.000 A 
ENDBRANCH  22  28
ENDBRANCH   1  22
TORSDOF 5
ENDMDL
MODEL 3
REMARK VINA RESULT:      -8.2      2.663      7.943
REMARK  Name = 
REMARK  6 active torsions:
REMARK  status: ('A' for Active; 'I' for Inactive)
REMARK    1  A    between atoms: C_1  and  C_2
REMARK    2  A    between atoms: C_6  and  S_7
REMARK    3  A    between atoms: S_7  and  C_8
REMARK    4  A    between atoms: C_8  and  C_9
REMARK    5  A    between atoms: C_8  and  C_22
REMARK    6  A    between atoms: C_10  and  O_11
REMARK                            x       y       z     vdW  Elec       q    Type
REMARK                         _______ _______ _______ _____ _____    ______ ____
ROOT
ATOM      1  C   UNL     1       0.767  10.329  19.174  0.00  0.00    +0.000 C 
ENDROOT
BRANCH   1   2
ATOM      2  C   UNL     1       1.487   8.995  19.236  0.00  0.00    +0.000 C 
ATOM      3  C   UNL     1       1.456   8.228  20.348  0.00  0.00    +0.000 C 
ATOM      4  C   UNL     1       1.904   6.802  20.340  0.00  0.00    +0.000 C 
ATOM      5  O   UNL     1       1.538   5.992  21.181  0.00  0.00    +0.000 OA
ATOM      6  C   UNL     1       2.873   6.432  19.306  0.00  0.00    +0.000 A 
ATOM      7  C   UNL     1       3.636   5.268  19.454  0.00  0.00    +0.000 A 
ATOM      8  C   UNL     1       4.677   5.019  18.566  0.00  0.00    +0.000 A 
ATOM      9  C   UNL     1       4.946   5.918  17.533  0.00  0.00    +0.000 A 
ATOM     10  C   UNL     1       4.135   7.043  17.350  0.00  0.00    +0.000 A 
ATOM     11  C   UNL     1       3.083   7.293  18.237  0.00  0.00    +0.000 A 
ATOM     12  C   UNL     1       2.204   8.465  18.045  0.00  0.00    +0.000 C 
ATOM     13  O   UNL     1       2.146   9.000  16.946  0.00  0.00    +0.000 OA
BRANCH   3  14
ATOM     14  O   UNL     1       0.991   8.703  21.564  0.00  0.00    +0.000 OA
ATOM     15  H   UNL     1       1.643   9.344  21.914  0.00  0.00    +0.000 HD
ENDBRANCH   3  14
ENDBRANCH   1   2
BRANCH   1  16
ATOM     16  C   UNL     1       1.477  11.663  19.408  0.00  0.00    +0.000 A 
ATOM     17  C   UNL     1       1.368  12.403  20.595  0.00  0.00    +0.000 A 
ATOM     18  C   UNL     1       1.923  13.683  20.712  0.00  0.00    +0.000 A 
ATOM     19  C   UNL     1       2.601  14.255  19.642  0.00  0.00    +0.000 A 
ATOM     20  C   UNL     1       2.753  13.533  18.463  0.00  0.00    +0.000 A 
ATOM     21  C   UNL     1       2.210  12.248  18.351  0.00  0.00    +0.000 A 
ENDBRANCH   1  16
BRANCH   1  22
ATOM     22  S   UNL     1      -1.000  10.218  19.688  0.00  0.00    +0.000 S 
BRANCH  22  28
ATOM     23  C   UNL     1      -2.866   9.909  14.659  0.00  0.00    +0.000 C 
ATOM     24  C   UNL     1      -2.926  10.506  16.035  0.00  0.00    +0.000 A 
ATOM     25  C   UNL     1      -4.022  11.290  16.406  0.00  0.00    +0.000 A 
ATOM     26  C   UNL     1      -4.130  11.765  17.707  0.00  0.00    +0.000 A 
ATOM     27  C   UNL     1      -3.156  11.434  18.648  0.00  0.00    +0.000 A 
ATOM     28  C   UNL     1      -2.054  10.630  18.312  0.00  0.00    +0.000 A 
ATOM     29  C   UNL     1      -1.944  10.189  16.992  0.00  0.00    +0.000 A 
ENDBRANCH  22  28
ENDBRANCH   1  22
TORSDOF 5
ENDMDL
MODEL 4
REMARK VINA RESULT:      -8.2      2.739      8.028
REMARK  Name = 
REMARK  6 active torsions:
REMARK  status: ('A' for Active; 'I' for Inactive)
REMARK    1  A    between atoms: C_1  and  C_2
REMARK    2  A    between atoms: C_6  and  S_7
REMARK    3  A    between atoms: S_7  and  C_8
REMARK    4  A    between atoms: C_8  and  C_9
REMARK    5  A    between atoms: C_8  and  C_22
REMARK    6  A    between atoms: C_10  and  O_11
REMARK                            x       y       z     vdW  Elec       q    Type
REMARK                         _______ _______ _______ _____ _____    ______ ____
ROOT
ATOM      1  C   UNL     1       0.683  10.518  19.179  0.00  0.00    +0.000 C 
ENDROOT
BRANCH   1   2
ATOM      2  C   UNL     1       1.387   9.177  19.263  0.00  0.00    +0.000 C 
ATOM      3  C   UNL     1       1.353   8.432  20.390  0.00  0.00    +0.000 C 
ATOM      4  C   UNL     1       1.784   7.001  20.407  0.00  0.00    +0.000 C 
ATOM      5  O   UNL     1       1.413   6.212  21.266  0.00  0.00    +0.000 OA
ATOM      6  C   UNL     1       2.742   6.599  19.376  0.00  0.00    +0.000 A 
ATOM      7  C   UNL     1       3.493   5.429  19.542  0.00  0.00    +0.000 A 
ATOM      8  C   UNL     1       4.525   5.151  18.654  0.00  0.00    +0.000 A 
ATOM      9  C   UNL     1       4.800   6.025  17.602  0.00  0.00    +0.000 A 
ATOM     10  C   UNL     1       4.001   7.156  17.401  0.00  0.00    +0.000 A 
ATOM     11  C   UNL     1       2.957   7.437  18.289  0.00  0.00    +0.000 A 
ATOM     12  C   UNL     1       2.091   8.615  18.079  0.00  0.00    +0.000 C 
ATOM     13  O   UNL     1       2.034   9.129  16.970  0.00  0.00    +0.000 OA
BRANCH   3  14
ATOM     14  O   UNL     1       0.901   8.936  21.599  0.00  0.00    +0.000 OA
ATOM     15  H   UNL     1       0.601   8.188  22.152  0.00  0.00    +0.000 HD
ENDBRANCH   3  14
ENDBRANCH   1   2
BRANCH   1  16
ATOM     16  C   UNL     1       1.420  11.849  19.326  0.00  0.00    +0.000 A 
ATOM     17  C   UNL     1       2.185  12.430  18.302  0.00  0.00    +0.000 A 
ATOM     18  C   UNL     1       2.953  13.579  18.525  0.00  0.00    +0.000 A 
ATOM     19  C   UNL     1       2.976  14.175  19.781  0.00  0.00    +0.000 A 
ATOM     20  C   UNL     1       2.204  13.641  20.807  0.00  0.00    +0.000 A 
ATOM     21  C   UNL     1       1.425  12.500  20.579  0.00  0.00    +0.000 A 
ENDBRANCH   1  16
BRANCH   1  22
ATOM     22  S   UNL     1      -1.060  10.455  19.776  0.00  0.00    +0.000 S 
BRANCH  22  28
ATOM     23  C   UNL     1      -5.346  12.191  17.041  0.00  0.00    +0.000 C 
ATOM     24  C   UNL     1      -4.111  11.340  17.123  0.00  0.00    +0.000 A 
ATOM     25  C   UNL     1      -3.609  10.730  15.971  0.00  0.00    +0.000 A 
ATOM     26  C   UNL     1      -2.415  10.021  16.023  0.00  0.00    +0.000 A 
ATOM     27  C   UNL     1      -1.707   9.943  17.222  0.00  0.00    +0.000 A 
ATOM     28  C   UNL     1      -2.176  10.564  18.391  0.00  0.00    +0.000 A 
ATOM     29  C   UNL     1      -3.393  11.243  18.329  0.00  0.00    +0.000 A 
ENDBRANCH  22  28
ENDBRANCH   1  22
TORSDOF 5
ENDMDL
MODEL 5
REMARK VINA RESULT:      -8.1      3.572      5.952
REMARK  Name = 
REMARK  6 active torsions:
REMARK  status: ('A' for Active; 'I' for Inactive)
REMARK    1  A    between atoms: C_1  and  C_2
REMARK    2  A    between atoms: C_6  and  S_7
REMARK    3  A    between atoms: S_7  and  C_8
REMARK    4  A    between atoms: C_8  and  C_9
REMARK    5  A    between atoms: C_8  and  C_22
REMARK    6  A    between atoms: C_10  and  O_11
REMARK                            x       y       z     vdW  Elec       q    Type
REMARK                         _______ _______ _______ _____ _____    ______ ____
ROOT
ATOM      1  C   UNL     1       5.769   5.317  16.925  0.00  0.00    +0.000 C 
ENDROOT
BRANCH   1   2
ATOM      2  C   UNL     1       4.765   4.526  17.741  0.00  0.00    +0.000 C 
ATOM      3  C   UNL     1       4.570   3.205  17.531  0.00  0.00    +0.000 C 
ATOM      4  C   UNL     1       3.812   2.353  18.497  0.00  0.00    +0.000 C 
ATOM      5  O   UNL     1       3.945   1.138  18.548  0.00  0.00    +0.000 OA
ATOM      6  C   UNL     1       2.834   3.042  19.342  0.00  0.00    +0.000 A 
ATOM      7  C   UNL     1       1.821   2.309  19.972  0.00  0.00    +0.000 A 
ATOM      8  C   UNL     1       0.794   2.985  20.620  0.00  0.00    +0.000 A 
ATOM      9  C   UNL     1       0.783   4.380  20.650  0.00  0.00    +0.000 A 
ATOM     10  C   UNL     1       1.836   5.104  20.080  0.00  0.00    +0.000 A 
ATOM     11  C   UNL     1       2.874   4.427  19.432  0.00  0.00    +0.000 A 
ATOM     12  C   UNL     1       4.003   5.176  18.842  0.00  0.00    +0.000 C 
ATOM     13  O   UNL     1       4.232   6.316  19.221  0.00  0.00    +0.000 OA
BRANCH   3  14
ATOM     14  O   UNL     1       5.072   2.549  16.419  0.00  0.00    +0.000 OA
ATOM     15  H   UNL     1       4.759   1.623  16.440  0.00  0.00    +0.000 HD
ENDBRANCH   3  14
ENDBRANCH   1   2
BRANCH   1  16
ATOM     16  C   UNL     1       6.837   6.205  17.563  0.00  0.00    +0.000 A 
ATOM     17  C   UNL     1       7.596   5.826  18.681  0.00  0.00    +0.000 A 
ATOM     18  C   UNL     1       8.464   6.724  19.315  0.00  0.00    +0.000 A 
ATOM     19  C   UNL     1       8.593   8.025  18.845  0.00  0.00    +0.000 A 
ATOM     20  C   UNL     1       7.878   8.421  17.719  0.00  0.00    +0.000 A 
ATOM     21  C   UNL     1       7.021   7.519  17.078  0.00  0.00    +0.000 A 
ENDBRANCH   1  16
BRANCH   1  22
ATOM     22  S   UNL     1       5.111   5.844  15.286  0.00  0.00    +0.000 S 
BRANCH  22  28
ATOM     23  C   UNL     1       5.310   2.161  11.379  0.00  0.00    +0.000 C 
ATOM     24  C   UNL     1       5.983   3.215  12.210  0.00  0.00    +0.000 A 
ATOM     25  C   UNL     1       7.244   3.691  11.841  0.00  0.00    +0.000 A 
ATOM     26  C   UNL     1       7.829   4.733  12.550  0.00  0.00    +0.000 A 
ATOM     27  C   UNL     1       7.143   5.320  13.613  0.00  0.00    +0.000 A 
ATOM     28  C   UNL     1       5.866   4.878  13.993  0.00  0.00    +0.000 A 
ATOM     29  C   UNL     1       5.307   3.808  13.292  0.00  0.00    +0.000 A 
ENDBRANCH  22  28
ENDBRANCH   1  22
TORSDOF 5
ENDMDL
MODEL 6
REMARK VINA RESULT:      -8.1      1.052      2.807
REMARK  Name = 
REMARK  6 active torsions:
REMARK  status: ('A' for Active; 'I' for Inactive)
REMARK    1  A    between atoms: C_1  and  C_2
REMARK    2  A    between atoms: C_6  and  S_7
REMARK    3  A    between atoms: S_7  and  C_8
REMARK    4  A    between atoms: C_8  and  C_9
REMARK    5  A    between atoms: C_8  and  C_22
REMARK    6  A    between atoms: C_10  and  O_11
REMARK                            x       y       z     vdW  Elec       q    Type
REMARK                         _______ _______ _______ _____ _____    ______ ____
ROOT
ATOM      1  C   UNL     1       2.649   7.217  18.211  0.00  0.00    +0.000 C 
ENDROOT
BRANCH   1   2
ATOM      2  C   UNL     1       1.756   8.179  18.970  0.00  0.00    +0.000 C 
ATOM      3  C   UNL     1       1.331   9.335  18.412  0.00  0.00    +0.000 C 
ATOM      4  C   UNL     1       0.234  10.151  19.017  0.00  0.00    +0.000 C 
ATOM      5  O   UNL     1      -0.424  10.953  18.368  0.00  0.00    +0.000 OA
ATOM      6  C   UNL     1       0.028   9.995  20.458  0.00  0.00    +0.000 A 
ATOM      7  C   UNL     1      -0.677  10.973  21.169  0.00  0.00    +0.000 A 
ATOM      8  C   UNL     1      -0.711  10.913  22.557  0.00  0.00    +0.000 A 
ATOM      9  C   UNL     1      -0.059   9.879  23.231  0.00  0.00    +0.000 A 
ATOM     10  C   UNL     1       0.584   8.866  22.510  0.00  0.00    +0.000 A 
ATOM     11  C   UNL     1       0.616   8.920  21.113  0.00  0.00    +0.000 A 
ATOM     12  C   UNL     1       1.272   7.847  20.337  0.00  0.00    +0.000 C 
ATOM     13  O   UNL     1       1.458   6.757  20.858  0.00  0.00    +0.000 OA
BRANCH   3  14
ATOM     14  O   UNL     1       1.870   9.834  17.236  0.00  0.00    +0.000 OA
ATOM     15  H   UNL     1       1.488  10.719  17.073  0.00  0.00    +0.000 HD
ENDBRANCH   3  14
ENDBRANCH   1   2
BRANCH   1  16
ATOM     16  C   UNL     1       2.713   5.723  18.529  0.00  0.00    +0.000 A 
ATOM     17  C   UNL     1       3.633   5.159  19.427  0.00  0.00    +0.000 A 
ATOM     18  C   UNL     1       3.747   3.772  19.583  0.00  0.00    +0.000 A 
ATOM     19  C   UNL     1       2.942   2.915  18.843  0.00  0.00    +0.000 A 
ATOM     20  C   UNL     1       1.999   3.444  17.968  0.00  0.00    +0.000 A 
ATOM     21  C   UNL     1       1.876   4.831  17.823  0.00  0.00    +0.000 A 
ENDBRANCH   1  16
BRANCH   1  22
ATOM     22  S   UNL     1       4.192   8.008  17.584  0.00  0.00    +0.000 S 
BRANCH  22  28
ATOM     23  C   UNL     1       8.146   4.392  17.979  0.00  0.00    +0.000 C 
ATOM     24  C   UNL     1       7.108   5.102  17.158  0.00  0.00    +0.000 A 
ATOM     25  C   UNL     1       6.790   4.630  15.881  0.00  0.00    +0.000 A 
ATOM     26  C   UNL     1       5.764   5.225  15.156  0.00  0.00    +0.000 A 
ATOM     27  C   UNL     1       5.037   6.274  15.717  0.00  0.00    +0.000 A 
ATOM     28  C   UNL     1       5.319   6.755  17.005  0.00  0.00    +0.000 A 
ATOM     29  C   UNL     1       6.374   6.169  17.706  0.00  0.00    +0.000 A 
ENDBRANCH  22  28
ENDBRANCH   1  22
TORSDOF 5
ENDMDL
MODEL 7
REMARK VINA RESULT:      -8.1      1.242      2.407
REMARK  Name = 
REMARK  6 active torsions:
REMARK  status: ('A' for Active; 'I' for Inactive)
REMARK    1  A    between atoms: C_1  and  C_2
REMARK    2  A    between atoms: C_6  and  S_7
REMARK    3  A    between atoms: S_7  and  C_8
REMARK    4  A    between atoms: C_8  and  C_9
REMARK    5  A    between atoms: C_8  and  C_22
REMARK    6  A    between atoms: C_10  and  O_11
REMARK                            x       y       z     vdW  Elec       q    Type
REMARK                         _______ _______ _______ _____ _____    ______ ____
ROOT
ATOM      1  C   UNL     1       3.244   5.666  18.375  0.00  0.00    +0.000 C 
ENDROOT
BRANCH   1   2
ATOM      2  C   UNL     1       2.533   6.934  18.809  0.00  0.00    +0.000 C 
ATOM      3  C   UNL     1       2.480   8.021  18.007  0.00  0.00    +0.000 C 
ATOM      4  C   UNL     1       1.555   9.163  18.281  0.00  0.00    +0.000 C 
ATOM      5  O   UNL     1       1.201   9.947  17.411  0.00  0.00    +0.000 OA
ATOM      6  C   UNL     1       1.145   9.346  19.675  0.00  0.00    +0.000 A 
ATOM      7  C   UNL     1       0.625  10.578  20.091  0.00  0.00    +0.000 A 
ATOM      8  C   UNL     1       0.410  10.803  21.446  0.00  0.00    +0.000 A 
ATOM      9  C   UNL     1       0.699   9.805  22.377  0.00  0.00    +0.000 A 
ATOM     10  C   UNL     1       1.152   8.553  21.948  0.00  0.00    +0.000 A 
ATOM     11  C   UNL     1       1.364   8.320  20.585  0.00  0.00    +0.000 A 
ATOM     12  C   UNL     1       1.821   6.996  20.113  0.00  0.00    +0.000 C 
ATOM     13  O   UNL     1       1.667   6.016  20.830  0.00  0.00    +0.000 OA
BRANCH   3  14
ATOM     14  O   UNL     1       3.263   8.144  16.870  0.00  0.00    +0.000 OA
ATOM     15  H   UNL     1       2.758   7.795  16.109  0.00  0.00    +0.000 HD
ENDBRANCH   3  14
ENDBRANCH   1   2
BRANCH   1  16
ATOM     16  C   UNL     1       2.661   4.272  18.604  0.00  0.00    +0.000 A 
ATOM     17  C   UNL     1       1.382   3.885  18.176  0.00  0.00    +0.000 A 
ATOM     18  C   UNL     1       0.836   2.645  18.527  0.00  0.00    +0.000 A 
ATOM     19  C   UNL     1       1.559   1.759  19.318  0.00  0.00    +0.000 A 
ATOM     20  C   UNL     1       2.843   2.101  19.732  0.00  0.00    +0.000 A 
ATOM     21  C   UNL     1       3.393   3.336  19.368  0.00  0.00    +0.000 A 
ENDBRANCH   1  16
BRANCH   1  22
ATOM     22  S   UNL     1       5.081   5.823  18.408  0.00  0.00    +0.000 S 
BRANCH  22  28
ATOM     23  C   UNL     1       4.975   3.731  13.461  0.00  0.00    +0.000 C 
ATOM     24  C   UNL     1       5.742   4.327  14.606  0.00  0.00    +0.000 A 
ATOM     25  C   UNL     1       7.070   4.720  14.423  0.00  0.00    +0.000 A 
ATOM     26  C   UNL     1       7.754   5.360  15.450  0.00  0.00    +0.000 A 
ATOM     27  C   UNL     1       7.102   5.632  16.653  0.00  0.00    +0.000 A 
ATOM     28  C   UNL     1       5.762   5.268  16.858  0.00  0.00    +0.000 A 
ATOM     29  C   UNL     1       5.100   4.597  15.829  0.00  0.00    +0.000 A 
ENDBRANCH  22  28
ENDBRANCH   1  22
TORSDOF 5
ENDMDL
MODEL 8
REMARK VINA RESULT:      -8.1      3.650      6.471
REMARK  Name = 
REMARK  6 active torsions:
REMARK  status: ('A' for Active; 'I' for Inactive)
REMARK    1  A    between atoms: C_1  and  C_2
REMARK    2  A    between atoms: C_6  and  S_7
REMARK    3  A    between atoms: S_7  and  C_8
REMARK    4  A    between atoms: C_8  and  C_9
REMARK    5  A    between atoms: C_8  and  C_22
REMARK    6  A    between atoms: C_10  and  O_11
REMARK                            x       y       z     vdW  Elec       q    Type
REMARK                         _______ _______ _______ _____ _____    ______ ____
ROOT
ATOM      1  C   UNL     1       0.469  10.906  19.499  0.00  0.00    +0.000 C 
ENDROOT
BRANCH   1   2
ATOM      2  C   UNL     1       1.165  12.238  19.707  0.00  0.00    +0.000 C 
ATOM      3  C   UNL     1       0.910  13.005  20.790  0.00  0.00    +0.000 C 
ATOM      4  C   UNL     1       1.778  14.164  21.162  0.00  0.00    +0.000 C 
ATOM      5  O   UNL     1       1.819  14.618  22.298  0.00  0.00    +0.000 OA
ATOM      6  C   UNL     1       2.534  14.785  20.073  0.00  0.00    +0.000 A 
ATOM      7  C   UNL     1       3.044  16.079  20.230  0.00  0.00    +0.000 A 
ATOM      8  C   UNL     1       3.599  16.730  19.135  0.00  0.00    +0.000 A 
ATOM      9  C   UNL     1       3.655  16.092  17.895  0.00  0.00    +0.000 A 
ATOM     10  C   UNL     1       3.208  14.773  17.762  0.00  0.00    +0.000 A 
ATOM     11  C   UNL     1       2.654  14.112  18.864  0.00  0.00    +0.000 A 
ATOM     12  C   UNL     1       2.196  12.713  18.745  0.00  0.00    +0.000 C 
ATOM     13  O   UNL     1       2.618  12.017  17.831  0.00  0.00    +0.000 OA
BRANCH   3  14
ATOM     14  O   UNL     1      -0.159  12.761  21.638  0.00  0.00    +0.000 OA
ATOM     15  H   UNL     1      -0.891  12.384  21.109  0.00  0.00    +0.000 HD
ENDBRANCH   3  14
ENDBRANCH   1   2
BRANCH   1  16
ATOM     16  C   UNL     1      -0.855  10.773  18.747  0.00  0.00    +0.000 A 
ATOM     17  C   UNL     1      -1.037   9.931  17.640  0.00  0.00    +0.000 A 
ATOM     18  C   UNL     1      -2.225   9.944  16.898  0.00  0.00    +0.000 A 
ATOM     19  C   UNL     1      -3.260  10.803  17.247  0.00  0.00    +0.000 A 
ATOM     20  C   UNL     1      -3.121  11.627  18.359  0.00  0.00    +0.000 A 
ATOM     21  C   UNL     1      -1.939  11.603  19.108  0.00  0.00    +0.000 A 
ENDBRANCH   1  16
BRANCH   1  22
ATOM     22  S   UNL     1       0.780   9.711  20.868  0.00  0.00    +0.000 S 
BRANCH  22  28
ATOM     23  C   UNL     1       2.030   4.488  20.741  0.00  0.00    +0.000 C 
ATOM     24  C   UNL     1       2.099   5.858  20.131  0.00  0.00    +0.000 A 
ATOM     25  C   UNL     1       2.574   6.015  18.826  0.00  0.00    +0.000 A 
ATOM     26  C   UNL     1       2.550   7.266  18.223  0.00  0.00    +0.000 A 
ATOM     27  C   UNL     1       2.026   8.358  18.913  0.00  0.00    +0.000 A 
ATOM     28  C   UNL     1       1.521   8.228  20.217  0.00  0.00    +0.000 A 
ATOM     29  C   UNL     1       1.584   6.971  20.820  0.00  0.00    +0.000 A 
ENDBRANCH  22  28
ENDBRANCH   1  22
TORSDOF 5
ENDMDL
MODEL 9
REMARK VINA RESULT:      -8.0      0.857      1.055
REMARK  Name = 
REMARK  6 active torsions:
REMARK  status: ('A' for Active; 'I' for Inactive)
REMARK    1  A    between atoms: C_1  and  C_2
REMARK    2  A    between atoms: C_6  and  S_7
REMARK    3  A    between atoms: S_7  and  C_8
REMARK    4  A    between atoms: C_8  and  C_9
REMARK    5  A    between atoms: C_8  and  C_22
REMARK    6  A    between atoms: C_10  and  O_11
REMARK                            x       y       z     vdW  Elec       q    Type
REMARK                         _______ _______ _______ _____ _____    ______ ____
ROOT
ATOM      1  C   UNL     1       2.938   6.140  18.435  0.00  0.00    +0.000 C 
ENDROOT
BRANCH   1   2
ATOM      2  C   UNL     1       2.207   7.316  19.056  0.00  0.00    +0.000 C 
ATOM      3  C   UNL     1       1.877   7.328  20.366  0.00  0.00    +0.000 C 
ATOM      4  C   UNL     1       1.424   8.573  21.058  0.00  0.00    +0.000 C 
ATOM      5  O   UNL     1       1.495   8.715  22.271  0.00  0.00    +0.000 OA
ATOM      6  C   UNL     1       0.815   9.601  20.211  0.00  0.00    +0.000 A 
ATOM      7  C   UNL     1       0.019  10.597  20.789  0.00  0.00    +0.000 A 
ATOM      8  C   UNL     1      -0.700  11.456  19.968  0.00  0.00    +0.000 A 
ATOM      9  C   UNL     1      -0.618  11.332  18.580  0.00  0.00    +0.000 A 
ATOM     10  C   UNL     1       0.233  10.380  18.009  0.00  0.00    +0.000 A 
ATOM     11  C   UNL     1       0.964   9.517  18.833  0.00  0.00    +0.000 A 
ATOM     12  C   UNL     1       1.883   8.520  18.245  0.00  0.00    +0.000 C 
ATOM     13  O   UNL     1       2.289   8.677  17.102  0.00  0.00    +0.000 OA
BRANCH   3  14
ATOM     14  O   UNL     1       1.952   6.195  21.161  0.00  0.00    +0.000 OA
ATOM     15  H   UNL     1       2.507   5.533  20.702  0.00  0.00    +0.000 HD
ENDBRANCH   3  14
ENDBRANCH   1   2
BRANCH   1  16
ATOM     16  C   UNL     1       2.554   4.687  18.714  0.00  0.00    +0.000 A 
ATOM     17  C   UNL     1       1.420   4.066  18.169  0.00  0.00    +0.000 A 
ATOM     18  C   UNL     1       1.032   2.778  18.560  0.00  0.00    +0.000 A 
ATOM     19  C   UNL     1       1.771   2.081  19.509  0.00  0.00    +0.000 A 
ATOM     20  C   UNL     1       2.918   2.658  20.043  0.00  0.00    +0.000 A 
ATOM     21  C   UNL     1       3.313   3.939  19.641  0.00  0.00    +0.000 A 
ENDBRANCH   1  16
BRANCH   1  22
ATOM     22  S   UNL     1       4.719   6.489  18.111  0.00  0.00    +0.000 S 
BRANCH  22  28
ATOM     23  C   UNL     1       7.616   5.468  13.703  0.00  0.00    +0.000 C 
ATOM     24  C   UNL     1       6.581   5.049  14.706  0.00  0.00    +0.000 A 
ATOM     25  C   UNL     1       6.137   3.724  14.735  0.00  0.00    +0.000 A 
ATOM     26  C   UNL     1       5.251   3.308  15.721  0.00  0.00    +0.000 A 
ATOM     27  C   UNL     1       4.828   4.210  16.698  0.00  0.00    +0.000 A 
ATOM     28  C   UNL     1       5.273   5.541  16.708  0.00  0.00    +0.000 A 
ATOM     29  C   UNL     1       6.136   5.951  15.690  0.00  0.00    +0.000 A 
ENDBRANCH  22  28
ENDBRANCH   1  22
TORSDOF 5
ENDMDL
