MODEL 1
REMARK VINA RESULT:      -7.9      0.000      0.000
REMARK  Name = 
REMARK  7 active torsions:
REMARK  status: ('A' for Active; 'I' for Inactive)
REMARK    1  A    between atoms: C_1  and  O_2
REMARK    2  A    between atoms: O_2  and  C_3
REMARK    3  A    between atoms: C_3  and  C_4
REMARK    4  A    between atoms: C_4  and  C_5
REMARK    5  A    between atoms: C_5  and  N_6
REMARK    6  A    between atoms: C_7  and  C_9
REMARK    7  A    between atoms: C_18  and  C_19
REMARK                            x       y       z     vdW  Elec       q    Type
REMARK                         _______ _______ _______ _____ _____    ______ ____
ROOT
ATOM      1  C   UNL     1       5.811   4.661  15.308  0.00  0.00    +0.000 A 
ATOM      2  C   UNL     1       5.276   3.542  15.921  0.00  0.00    +0.000 A 
ATOM      3  C   UNL     1       4.419   3.885  17.010  0.00  0.00    +0.000 A 
ATOM      4  C   UNL     1       3.681   3.027  17.917  0.00  0.00    +0.000 A 
ATOM      5  O   UNL     1       3.724   1.801  17.814  0.00  0.00    +0.000 OA
ATOM      6  N   UNL     1       2.937   3.723  18.890  0.00  0.00    +0.000 N 
ATOM      7  C   UNL     1       2.200   2.986  19.811  0.00  0.00    +0.000 A 
ATOM      8  C   UNL     1       1.468   3.573  20.764  0.00  0.00    +0.000 A 
ATOM      9  C   UNL     1       1.423   5.004  20.862  0.00  0.00    +0.000 A 
ATOM     10  C   UNL     1       2.111   5.782  20.012  0.00  0.00    +0.000 A 
ATOM     11  C   UNL     1       2.103   7.278  20.069  0.00  0.00    +0.000 C 
ATOM     12  C   UNL     1       2.938   5.129  18.937  0.00  0.00    +0.000 A 
ATOM     13  N   UNL     1       3.602   5.893  18.118  0.00  0.00    +0.000 NA
ATOM     14  C   UNL     1       4.322   5.242  17.184  0.00  0.00    +0.000 A 
ATOM     15  S   UNL     1       5.248   6.101  16.051  0.00  0.00    +0.000 S 
ENDROOT
BRANCH   1  17
ATOM     16  N   UNL     1       6.374   3.925  13.105  0.00  0.00    +0.000 N 
ATOM     17  C   UNL     1       6.737   4.703  14.186  0.00  0.00    +0.000 C 
ATOM     18  O   UNL     1       7.758   5.384  14.191  0.00  0.00    +0.000 OA
ATOM     19  H   UNL     1       5.518   3.391  13.171  0.00  0.00    +0.000 HD
BRANCH  16  20
ATOM     20  C   UNL     1       7.145   3.873  11.887  0.00  0.00    +0.000 C 
BRANCH  20  21
ATOM     21  C   UNL     1       7.361   2.440  11.410  0.00  0.00    +0.000 C 
BRANCH  21  22
ATOM     22  C   UNL     1       6.058   1.654  11.465  0.00  0.00    +0.000 C 
BRANCH  22  24
ATOM     23  C   UNL     1       5.999  -0.703  11.377  0.00  0.00    +0.000 C 
ATOM     24  O   UNL     1       6.184   0.497  10.643  0.00  0.00    +0.000 OA
ENDBRANCH  22  24
ENDBRANCH  21  22
ENDBRANCH  20  21
ENDBRANCH  16  20
ENDBRANCH   1  17
TORSDOF 5
ENDMDL
MODEL 2
REMARK VINA RESULT:      -7.8      0.976      1.213
REMARK  Name = 
REMARK  7 active torsions:
REMARK  status: ('A' for Active; 'I' for Inactive)
REMARK    1  A    between atoms: C_1  and  O_2
REMARK    2  A    between atoms: O_2  and  C_3
REMARK    3  A    between atoms: C_3  and  C_4
REMARK    4  A    between atoms: C_4  and  C_5
REMARK    5  A    between atoms: C_5  and  N_6
REMARK    6  A    between atoms: C_7  and  C_9
REMARK    7  A    between atoms: C_18  and  C_19
REMARK                            x       y       z     vdW  Elec       q    Type
REMARK                         _______ _______ _______ _____ _____    ______ ____
ROOT
ATOM      1  C   UNL     1       5.796   4.666  15.413  0.00  0.00    +0.000 A 
ATOM      2  C   UNL     1       5.257   3.577  16.076  0.00  0.00    +0.000 A 
ATOM      3  C   UNL     1       4.395   3.972  17.144  0.00  0.00    +0.000 A 
ATOM      4  C   UNL     1       3.653   3.158  18.087  0.00  0.00    +0.000 A 
ATOM      5  O   UNL     1       3.696   1.928  18.043  0.00  0.00    +0.000 OA
ATOM      6  N   UNL     1       2.905   3.900  19.023  0.00  0.00    +0.000 N 
ATOM      7  C   UNL     1       2.163   3.208  19.974  0.00  0.00    +0.000 A 
ATOM      8  C   UNL     1       1.427   3.839  20.895  0.00  0.00    +0.000 A 
ATOM      9  C   UNL     1       1.383   5.274  20.924  0.00  0.00    +0.000 A 
ATOM     10  C   UNL     1       2.075   6.010  20.041  0.00  0.00    +0.000 A 
ATOM     11  C   UNL     1       2.067   7.507  20.027  0.00  0.00    +0.000 C 
ATOM     12  C   UNL     1       2.906   5.306  19.003  0.00  0.00    +0.000 A 
ATOM     13  N   UNL     1       3.574   6.030  18.151  0.00  0.00    +0.000 NA
ATOM     14  C   UNL     1       4.299   5.335  17.252  0.00  0.00    +0.000 A 
ATOM     15  S   UNL     1       5.230   6.140  16.084  0.00  0.00    +0.000 S 
ENDROOT
BRANCH   1  17
ATOM     16  N   UNL     1       6.446   3.723  13.315  0.00  0.00    +0.000 N 
ATOM     17  C   UNL     1       6.727   4.654  14.294  0.00  0.00    +0.000 C 
ATOM     18  O   UNL     1       7.685   5.419  14.218  0.00  0.00    +0.000 OA
ATOM     19  H   UNL     1       5.639   3.126  13.445  0.00  0.00    +0.000 HD
BRANCH  16  20
ATOM     20  C   UNL     1       7.232   3.593  12.112  0.00  0.00    +0.000 C 
BRANCH  20  21
ATOM     21  C   UNL     1       6.892   2.318  11.346  0.00  0.00    +0.000 C 
BRANCH  21  22
ATOM     22  C   UNL     1       5.391   2.065  11.363  0.00  0.00    +0.000 C 
BRANCH  22  24
ATOM     23  C   UNL     1       3.369   3.106  10.736  0.00  0.00    +0.000 C 
ATOM     24  O   UNL     1       4.714   3.299  11.143  0.00  0.00    +0.000 OA
ENDBRANCH  22  24
ENDBRANCH  21  22
ENDBRANCH  20  21
ENDBRANCH  16  20
ENDBRANCH   1  17
TORSDOF 5
ENDMDL
MODEL 3
REMARK VINA RESULT:      -7.4      1.851      2.646
REMARK  Name = 
REMARK  7 active torsions:
REMARK  status: ('A' for Active; 'I' for Inactive)
REMARK    1  A    between atoms: C_1  and  O_2
REMARK    2  A    between atoms: O_2  and  C_3
REMARK    3  A    between atoms: C_3  and  C_4
REMARK    4  A    between atoms: C_4  and  C_5
REMARK    5  A    between atoms: C_5  and  N_6
REMARK    6  A    between atoms: C_7  and  C_9
REMARK    7  A    between atoms: C_18  and  C_19
REMARK                            x       y       z     vdW  Elec       q    Type
REMARK                         _______ _______ _______ _____ _____    ______ ____
ROOT
ATOM      1  C   UNL     1       5.966   4.987  15.351  0.00  0.00    +0.000 A 
ATOM      2  C   UNL     1       5.307   6.112  15.815  0.00  0.00    +0.000 A 
ATOM      3  C   UNL     1       4.546   5.840  16.992  0.00  0.00    +0.000 A 
ATOM      4  C   UNL     1       3.706   6.722  17.779  0.00  0.00    +0.000 A 
ATOM      5  O   UNL     1       3.565   7.907  17.478  0.00  0.00    +0.000 OA
ATOM      6  N   UNL     1       3.093   6.098  18.884  0.00  0.00    +0.000 N 
ATOM      7  C   UNL     1       2.262   6.861  19.698  0.00  0.00    +0.000 A 
ATOM      8  C   UNL     1       1.646   6.344  20.765  0.00  0.00    +0.000 A 
ATOM      9  C   UNL     1       1.830   4.961  21.105  0.00  0.00    +0.000 A 
ATOM     10  C   UNL     1       2.614   4.161  20.366  0.00  0.00    +0.000 A 
ATOM     11  C   UNL     1       2.840   2.713  20.673  0.00  0.00    +0.000 C 
ATOM     12  C   UNL     1       3.310   4.737  19.163  0.00  0.00    +0.000 A 
ATOM     13  N   UNL     1       4.068   3.951  18.452  0.00  0.00    +0.000 NA
ATOM     14  C   UNL     1       4.657   4.532  17.389  0.00  0.00    +0.000 A 
ATOM     15  S   UNL     1       5.666   3.634  16.362  0.00  0.00    +0.000 S 
ENDROOT
BRANCH   1  17
ATOM     16  N   UNL     1       6.432   3.897  13.275  0.00  0.00    +0.000 N 
ATOM     17  C   UNL     1       6.812   4.875  14.172  0.00  0.00    +0.000 C 
ATOM     18  O   UNL     1       7.784   5.600  13.980  0.00  0.00    +0.000 OA
ATOM     19  H   UNL     1       5.619   3.338  13.499  0.00  0.00    +0.000 HD
BRANCH  16  20
ATOM     20  C   UNL     1       7.124   3.668  12.030  0.00  0.00    +0.000 C 
BRANCH  20  21
ATOM     21  C   UNL     1       6.819   2.288  11.456  0.00  0.00    +0.000 C 
BRANCH  21  22
ATOM     22  C   UNL     1       5.317   2.052  11.391  0.00  0.00    +0.000 C 
BRANCH  22  24
ATOM     23  C   UNL     1       3.378   3.203  10.699  0.00  0.00    +0.000 C 
ATOM     24  O   UNL     1       4.657   3.311  11.301  0.00  0.00    +0.000 OA
ENDBRANCH  22  24
ENDBRANCH  21  22
ENDBRANCH  20  21
ENDBRANCH  16  20
ENDBRANCH   1  17
TORSDOF 5
ENDMDL
MODEL 4
REMARK VINA RESULT:      -7.3      3.548      6.153
REMARK  Name = 
REMARK  7 active torsions:
REMARK  status: ('A' for Active; 'I' for Inactive)
REMARK    1  A    between atoms: C_1  and  O_2
REMARK    2  A    between atoms: O_2  and  C_3
REMARK    3  A    between atoms: C_3  and  C_4
REMARK    4  A    between atoms: C_4  and  C_5
REMARK    5  A    between atoms: C_5  and  N_6
REMARK    6  A    between atoms: C_7  and  C_9
REMARK    7  A    between atoms: C_18  and  C_19
REMARK                            x       y       z     vdW  Elec       q    Type
REMARK                         _______ _______ _______ _____ _____    ______ ____
ROOT
ATOM      1  C   UNL     1       3.086   5.856  18.742  0.00  0.00    +0.000 A 
ATOM      2  C   UNL     1       2.882   7.044  18.062  0.00  0.00    +0.000 A 
ATOM      3  C   UNL     1       2.167   7.997  18.850  0.00  0.00    +0.000 A 
ATOM      4  C   UNL     1       1.736   9.340  18.516  0.00  0.00    +0.000 A 
ATOM      5  O   UNL     1       1.979   9.836  17.416  0.00  0.00    +0.000 OA
ATOM      6  N   UNL     1       1.036   9.993  19.550  0.00  0.00    +0.000 N 
ATOM      7  C   UNL     1       0.575  11.286  19.324  0.00  0.00    +0.000 A 
ATOM      8  C   UNL     1      -0.095  11.972  20.255  0.00  0.00    +0.000 A 
ATOM      9  C   UNL     1      -0.362  11.381  21.536  0.00  0.00    +0.000 A 
ATOM     10  C   UNL     1       0.048  10.137  21.827  0.00  0.00    +0.000 A 
ATOM     11  C   UNL     1      -0.203   9.471  23.145  0.00  0.00    +0.000 C 
ATOM     12  C   UNL     1       0.803   9.358  20.784  0.00  0.00    +0.000 A 
ATOM     13  N   UNL     1       1.195   8.151  21.076  0.00  0.00    +0.000 NA
ATOM     14  C   UNL     1       1.862   7.511  20.095  0.00  0.00    +0.000 A 
ATOM     15  S   UNL     1       2.427   5.929  20.324  0.00  0.00    +0.000 S 
ENDROOT
BRANCH   1  17
ATOM     16  N   UNL     1       4.237   4.745  16.966  0.00  0.00    +0.000 N 
ATOM     17  C   UNL     1       3.752   4.657  18.255  0.00  0.00    +0.000 C 
ATOM     18  O   UNL     1       3.885   3.646  18.939  0.00  0.00    +0.000 OA
ATOM     19  H   UNL     1       4.092   5.610  16.462  0.00  0.00    +0.000 HD
BRANCH  16  20
ATOM     20  C   UNL     1       4.963   3.673  16.329  0.00  0.00    +0.000 C 
BRANCH  20  21
ATOM     21  C   UNL     1       5.976   4.195  15.315  0.00  0.00    +0.000 C 
BRANCH  21  22
ATOM     22  C   UNL     1       7.173   4.816  16.022  0.00  0.00    +0.000 C 
BRANCH  22  24
ATOM     23  C   UNL     1       7.283   6.664  17.485  0.00  0.00    +0.000 C 
ATOM     24  O   UNL     1       6.937   6.212  16.186  0.00  0.00    +0.000 OA
ENDBRANCH  22  24
ENDBRANCH  21  22
ENDBRANCH  20  21
ENDBRANCH  16  20
ENDBRANCH   1  17
TORSDOF 5
ENDMDL
MODEL 5
REMARK VINA RESULT:      -7.3      2.158      3.068
REMARK  Name = 
REMARK  7 active torsions:
REMARK  status: ('A' for Active; 'I' for Inactive)
REMARK    1  A    between atoms: C_1  and  O_2
REMARK    2  A    between atoms: O_2  and  C_3
REMARK    3  A    between atoms: C_3  and  C_4
REMARK    4  A    between atoms: C_4  and  C_5
REMARK    5  A    between atoms: C_5  and  N_6
REMARK    6  A    between atoms: C_7  and  C_9
REMARK    7  A    between atoms: C_18  and  C_19
REMARK                            x       y       z     vdW  Elec       q    Type
REMARK                         _______ _______ _______ _____ _____    ______ ____
ROOT
ATOM      1  C   UNL     1       5.553   5.188  15.656  0.00  0.00    +0.000 A 
ATOM      2  C   UNL     1       5.000   6.425  15.940  0.00  0.00    +0.000 A 
ATOM      3  C   UNL     1       4.191   6.393  17.116  0.00  0.00    +0.000 A 
ATOM      4  C   UNL     1       3.427   7.453  17.745  0.00  0.00    +0.000 A 
ATOM      5  O   UNL     1       3.412   8.593  17.282  0.00  0.00    +0.000 OA
ATOM      6  N   UNL     1       2.731   7.051  18.903  0.00  0.00    +0.000 N 
ATOM      7  C   UNL     1       1.964   7.996  19.575  0.00  0.00    +0.000 A 
ATOM      8  C   UNL     1       1.275   7.693  20.681  0.00  0.00    +0.000 A 
ATOM      9  C   UNL     1       1.312   6.360  21.212  0.00  0.00    +0.000 A 
ATOM     10  C   UNL     1       2.028   5.393  20.616  0.00  0.00    +0.000 A 
ATOM     11  C   UNL     1       2.100   3.986  21.125  0.00  0.00    +0.000 C 
ATOM     12  C   UNL     1       2.804   5.726  19.372  0.00  0.00    +0.000 A 
ATOM     13  N   UNL     1       3.494   4.780  18.801  0.00  0.00    +0.000 NA
ATOM     14  C   UNL     1       4.162   5.148  17.690  0.00  0.00    +0.000 A 
ATOM     15  S   UNL     1       5.097   4.024  16.831  0.00  0.00    +0.000 S 
ENDROOT
BRANCH   1  17
ATOM     16  N   UNL     1       5.866   3.914  13.658  0.00  0.00    +0.000 N 
ATOM     17  C   UNL     1       6.409   4.833  14.534  0.00  0.00    +0.000 C 
ATOM     18  O   UNL     1       7.525   5.318  14.369  0.00  0.00    +0.000 OA
ATOM     19  H   UNL     1       4.941   3.558  13.858  0.00  0.00    +0.000 HD
BRANCH  16  20
ATOM     20  C   UNL     1       6.549   3.475  12.466  0.00  0.00    +0.000 C 
BRANCH  20  21
ATOM     21  C   UNL     1       5.587   2.862  11.452  0.00  0.00    +0.000 C 
BRANCH  21  22
ATOM     22  C   UNL     1       4.176   3.393  11.663  0.00  0.00    +0.000 C 
BRANCH  22  24
ATOM     23  C   UNL     1       3.084   4.046   9.676  0.00  0.00    +0.000 C 
ATOM     24  O   UNL     1       3.362   2.979  10.569  0.00  0.00    +0.000 OA
ENDBRANCH  22  24
ENDBRANCH  21  22
ENDBRANCH  20  21
ENDBRANCH  16  20
ENDBRANCH   1  17
TORSDOF 5
ENDMDL
MODEL 6
REMARK VINA RESULT:      -6.9      4.351      6.985
REMARK  Name = 
REMARK  7 active torsions:
REMARK  status: ('A' for Active; 'I' for Inactive)
REMARK    1  A    between atoms: C_1  and  O_2
REMARK    2  A    between atoms: O_2  and  C_3
REMARK    3  A    between atoms: C_3  and  C_4
REMARK    4  A    between atoms: C_4  and  C_5
REMARK    5  A    between atoms: C_5  and  N_6
REMARK    6  A    between atoms: C_7  and  C_9
REMARK    7  A    between atoms: C_18  and  C_19
REMARK                            x       y       z     vdW  Elec       q    Type
REMARK                         _______ _______ _______ _____ _____    ______ ____
ROOT
ATOM      1  C   UNL     1       3.034   6.451  18.481  0.00  0.00    +0.000 A 
ATOM      2  C   UNL     1       2.824   7.683  17.887  0.00  0.00    +0.000 A 
ATOM      3  C   UNL     1       2.089   8.569  18.733  0.00  0.00    +0.000 A 
ATOM      4  C   UNL     1       1.647   9.929  18.493  0.00  0.00    +0.000 A 
ATOM      5  O   UNL     1       1.897  10.505  17.434  0.00  0.00    +0.000 OA
ATOM      6  N   UNL     1       0.928  10.497  19.563  0.00  0.00    +0.000 N 
ATOM      7  C   UNL     1       0.456  11.798  19.426  0.00  0.00    +0.000 A 
ATOM      8  C   UNL     1      -0.233  12.408  20.396  0.00  0.00    +0.000 A 
ATOM      9  C   UNL     1      -0.506  11.722  21.628  0.00  0.00    +0.000 A 
ATOM     10  C   UNL     1      -0.086  10.465  21.833  0.00  0.00    +0.000 A 
ATOM     11  C   UNL     1      -0.345   9.702  23.095  0.00  0.00    +0.000 C 
ATOM     12  C   UNL     1       0.689   9.772  20.745  0.00  0.00    +0.000 A 
ATOM     13  N   UNL     1       1.091   8.551  20.954  0.00  0.00    +0.000 NA
ATOM     14  C   UNL     1       1.776   7.991  19.937  0.00  0.00    +0.000 A 
ATOM     15  S   UNL     1       2.357   6.402  20.057  0.00  0.00    +0.000 S 
ENDROOT
BRANCH   1  17
ATOM     16  N   UNL     1       3.653   4.152  18.685  0.00  0.00    +0.000 N 
ATOM     17  C   UNL     1       3.719   5.298  17.917  0.00  0.00    +0.000 C 
ATOM     18  O   UNL     1       4.302   5.333  16.838  0.00  0.00    +0.000 OA
ATOM     19  H   UNL     1       3.155   4.197  19.563  0.00  0.00    +0.000 HD
BRANCH  16  20
ATOM     20  C   UNL     1       4.236   2.899  18.269  0.00  0.00    +0.000 C 
BRANCH  20  21
ATOM     21  C   UNL     1       3.176   1.825  18.046  0.00  0.00    +0.000 C 
BRANCH  21  22
ATOM     22  C   UNL     1       1.902   2.161  18.808  0.00  0.00    +0.000 C 
BRANCH  22  24
ATOM     23  C   UNL     1       1.176   2.918  20.921  0.00  0.00    +0.000 C 
ATOM     24  O   UNL     1       2.213   2.281  20.193  0.00  0.00    +0.000 OA
ENDBRANCH  22  24
ENDBRANCH  21  22
ENDBRANCH  20  21
ENDBRANCH  16  20
ENDBRANCH   1  17
TORSDOF 5
ENDMDL
MODEL 7
REMARK VINA RESULT:      -6.9      3.555      5.945
REMARK  Name = 
REMARK  7 active torsions:
REMARK  status: ('A' for Active; 'I' for Inactive)
REMARK    1  A    between atoms: C_1  and  O_2
REMARK    2  A    between atoms: O_2  and  C_3
REMARK    3  A    between atoms: C_3  and  C_4
REMARK    4  A    between atoms: C_4  and  C_5
REMARK    5  A    between atoms: C_5  and  N_6
REMARK    6  A    between atoms: C_7  and  C_9
REMARK    7  A    between atoms: C_18  and  C_19
REMARK                            x       y       z     vdW  Elec       q    Type
REMARK                         _______ _______ _______ _____ _____    ______ ____
ROOT
ATOM      1  C   UNL     1       2.969   6.118  18.439  0.00  0.00    +0.000 A 
ATOM      2  C   UNL     1       2.757   7.357  17.861  0.00  0.00    +0.000 A 
ATOM      3  C   UNL     1       2.089   8.256  18.748  0.00  0.00    +0.000 A 
ATOM      4  C   UNL     1       1.668   9.627  18.536  0.00  0.00    +0.000 A 
ATOM      5  O   UNL     1       1.875  10.202  17.468  0.00  0.00    +0.000 OA
ATOM      6  N   UNL     1       1.020  10.207  19.645  0.00  0.00    +0.000 N 
ATOM      7  C   UNL     1       0.572  11.519  19.537  0.00  0.00    +0.000 A 
ATOM      8  C   UNL     1      -0.050  12.141  20.545  0.00  0.00    +0.000 A 
ATOM      9  C   UNL     1      -0.275  11.456  21.786  0.00  0.00    +0.000 A 
ATOM     10  C   UNL     1       0.126  10.188  21.964  0.00  0.00    +0.000 A 
ATOM     11  C   UNL     1      -0.084   9.425  23.236  0.00  0.00    +0.000 C 
ATOM     12  C   UNL     1       0.826   9.482  20.835  0.00  0.00    +0.000 A 
ATOM     13  N   UNL     1       1.209   8.251  21.018  0.00  0.00    +0.000 NA
ATOM     14  C   UNL     1       1.826   7.680  19.964  0.00  0.00    +0.000 A 
ATOM     15  S   UNL     1       2.374   6.077  20.048  0.00  0.00    +0.000 S 
ENDROOT
BRANCH   1  17
ATOM     16  N   UNL     1       4.844   5.179  17.292  0.00  0.00    +0.000 N 
ATOM     17  C   UNL     1       3.596   4.951  17.836  0.00  0.00    +0.000 C 
ATOM     18  O   UNL     1       3.064   3.845  17.819  0.00  0.00    +0.000 OA
ATOM     19  H   UNL     1       5.219   6.117  17.343  0.00  0.00    +0.000 HD
BRANCH  16  20
ATOM     20  C   UNL     1       5.636   4.135  16.689  0.00  0.00    +0.000 C 
BRANCH  20  21
ATOM     21  C   UNL     1       6.930   4.676  16.090  0.00  0.00    +0.000 C 
BRANCH  21  22
ATOM     22  C   UNL     1       6.829   4.754  14.573  0.00  0.00    +0.000 C 
BRANCH  22  24
ATOM     23  C   UNL     1       8.032   5.442  12.664  0.00  0.00    +0.000 C 
ATOM     24  O   UNL     1       7.930   5.510  14.077  0.00  0.00    +0.000 OA
ENDBRANCH  22  24
ENDBRANCH  21  22
ENDBRANCH  20  21
ENDBRANCH  16  20
ENDBRANCH   1  17
TORSDOF 5
ENDMDL
MODEL 8
REMARK VINA RESULT:      -6.9      3.324      5.277
REMARK  Name = 
REMARK  7 active torsions:
REMARK  status: ('A' for Active; 'I' for Inactive)
REMARK    1  A    between atoms: C_1  and  O_2
REMARK    2  A    between atoms: O_2  and  C_3
REMARK    3  A    between atoms: C_3  and  C_4
REMARK    4  A    between atoms: C_4  and  C_5
REMARK    5  A    between atoms: C_5  and  N_6
REMARK    6  A    between atoms: C_7  and  C_9
REMARK    7  A    between atoms: C_18  and  C_19
REMARK                            x       y       z     vdW  Elec       q    Type
REMARK                         _______ _______ _______ _____ _____    ______ ____
ROOT
ATOM      1  C   UNL     1       3.714   6.082  18.149  0.00  0.00    +0.000 A 
ATOM      2  C   UNL     1       3.428   7.318  17.596  0.00  0.00    +0.000 A 
ATOM      3  C   UNL     1       2.546   8.082  18.419  0.00  0.00    +0.000 A 
ATOM      4  C   UNL     1       1.990   9.404  18.205  0.00  0.00    +0.000 A 
ATOM      5  O   UNL     1       2.261  10.057  17.198  0.00  0.00    +0.000 OA
ATOM      6  N   UNL     1       1.138   9.843  19.239  0.00  0.00    +0.000 N 
ATOM      7  C   UNL     1       0.550  11.098  19.123  0.00  0.00    +0.000 A 
ATOM      8  C   UNL     1      -0.269  11.586  20.060  0.00  0.00    +0.000 A 
ATOM      9  C   UNL     1      -0.566  10.813  21.233  0.00  0.00    +0.000 A 
ATOM     10  C   UNL     1      -0.039   9.592  21.414  0.00  0.00    +0.000 A 
ATOM     11  C   UNL     1      -0.316   8.742  22.615  0.00  0.00    +0.000 C 
ATOM     12  C   UNL     1       0.882   9.036  20.362  0.00  0.00    +0.000 A 
ATOM     13  N   UNL     1       1.388   7.850  20.547  0.00  0.00    +0.000 NA
ATOM     14  C   UNL     1       2.201   7.414  19.565  0.00  0.00    +0.000 A 
ATOM     15  S   UNL     1       2.927   5.884  19.660  0.00  0.00    +0.000 S 
ENDROOT
BRANCH   1  17
ATOM     16  N   UNL     1       5.772   5.459  17.104  0.00  0.00    +0.000 N 
ATOM     17  C   UNL     1       4.553   5.031  17.591  0.00  0.00    +0.000 C 
ATOM     18  O   UNL     1       4.211   3.852  17.562  0.00  0.00    +0.000 OA
ATOM     19  H   UNL     1       5.986   6.445  17.161  0.00  0.00    +0.000 HD
BRANCH  16  20
ATOM     20  C   UNL     1       6.752   4.556  16.552  0.00  0.00    +0.000 C 
BRANCH  20  21
ATOM     21  C   UNL     1       6.966   4.790  15.060  0.00  0.00    +0.000 C 
BRANCH  21  22
ATOM     22  C   UNL     1       5.945   4.011  14.242  0.00  0.00    +0.000 C 
BRANCH  22  24
ATOM     23  C   UNL     1       5.559   3.173  12.070  0.00  0.00    +0.000 C 
ATOM     24  O   UNL     1       6.521   3.681  12.982  0.00  0.00    +0.000 OA
ENDBRANCH  22  24
ENDBRANCH  21  22
ENDBRANCH  20  21
ENDBRANCH  16  20
ENDBRANCH   1  17
TORSDOF 5
ENDMDL
MODEL 9
REMARK VINA RESULT:      -6.8      5.065      8.865
REMARK  Name = 
REMARK  7 active torsions:
REMARK  status: ('A' for Active; 'I' for Inactive)
REMARK    1  A    between atoms: C_1  and  O_2
REMARK    2  A    between atoms: O_2  and  C_3
REMARK    3  A    between atoms: C_3  and  C_4
REMARK    4  A    between atoms: C_4  and  C_5
REMARK    5  A    between atoms: C_5  and  N_6
REMARK    6  A    between atoms: C_7  and  C_9
REMARK    7  A    between atoms: C_18  and  C_19
REMARK                            x       y       z     vdW  Elec       q    Type
REMARK                         _______ _______ _______ _____ _____    ______ ____
ROOT
ATOM      1  C   UNL     1       0.944   9.705  19.360  0.00  0.00    +0.000 A 
ATOM      2  C   UNL     1       1.065   8.542  20.101  0.00  0.00    +0.000 A 
ATOM      3  C   UNL     1       1.965   7.613  19.495  0.00  0.00    +0.000 A 
ATOM      4  C   UNL     1       2.358   6.286  19.928  0.00  0.00    +0.000 A 
ATOM      5  O   UNL     1       1.914   5.793  20.965  0.00  0.00    +0.000 OA
ATOM      6  N   UNL     1       3.270   5.646  19.065  0.00  0.00    +0.000 N 
ATOM      7  C   UNL     1       3.702   4.365  19.391  0.00  0.00    +0.000 A 
ATOM      8  C   UNL     1       4.568   3.693  18.625  0.00  0.00    +0.000 A 
ATOM      9  C   UNL     1       5.081   4.288  17.423  0.00  0.00    +0.000 A 
ATOM     10  C   UNL     1       4.708   5.519  17.041  0.00  0.00    +0.000 A 
ATOM     11  C   UNL     1       5.210   6.186  15.798  0.00  0.00    +0.000 C 
ATOM     12  C   UNL     1       3.734   6.281  17.898  0.00  0.00    +0.000 A 
ATOM     13  N   UNL     1       3.378   7.474  17.518  0.00  0.00    +0.000 NA
ATOM     14  C   UNL     1       2.502   8.097  18.331  0.00  0.00    +0.000 A 
ATOM     15  S   UNL     1       1.937   9.654  17.962  0.00  0.00    +0.000 S 
ENDROOT
BRANCH   1  17
ATOM     16  N   UNL     1      -1.069  10.921  18.930  0.00  0.00    +0.000 N 
ATOM     17  C   UNL     1       0.107  10.860  19.650  0.00  0.00    +0.000 C 
ATOM     18  O   UNL     1       0.414  11.713  20.478  0.00  0.00    +0.000 OA
ATOM     19  H   UNL     1      -1.256  10.182  18.264  0.00  0.00    +0.000 HD
BRANCH  16  20
ATOM     20  C   UNL     1      -2.043  11.969  19.112  0.00  0.00    +0.000 C 
BRANCH  20  21
ATOM     21  C   UNL     1      -3.384  11.617  18.473  0.00  0.00    +0.000 C 
BRANCH  21  22
ATOM     22  C   UNL     1      -3.210  10.525  17.427  0.00  0.00    +0.000 C 
BRANCH  22  24
ATOM     23  C   UNL     1      -2.889  10.376  15.094  0.00  0.00    +0.000 C 
ATOM     24  O   UNL     1      -2.570  11.082  16.282  0.00  0.00    +0.000 OA
ENDBRANCH  22  24
ENDBRANCH  21  22
ENDBRANCH  20  21
ENDBRANCH  16  20
ENDBRANCH   1  17
TORSDOF 5
ENDMDL
