MODEL 1
REMARK VINA RESULT:      -7.9      0.000      0.000
REMARK  Name = 
REMARK  7 active torsions:
REMARK  status: ('A' for Active; 'I' for Inactive)
REMARK    1  A    between atoms: C_1  and  C_2
REMARK    2  A    between atoms: C_2  and  C_3
REMARK    3  A    between atoms: C_11  and  C_13
REMARK    4  A    between atoms: C_13  and  C_14
REMARK    5  A    between atoms: C_14  and  N_15
REMARK    6  A    between atoms: C_14  and  C_16
REMARK    7  A    between atoms: C_16  and  C_17
REMARK                            x       y       z     vdW  Elec       q    Type
REMARK                         _______ _______ _______ _____ _____    ______ ____
ROOT
ATOM      1  C   UNL     1       3.947   3.945  19.485  0.00  0.00    +0.000 C 
ENDROOT
BRANCH   1  10
ATOM      2  C   UNL     1       6.647   4.738  17.743  0.00  0.00    +0.000 C 
ATOM      3  C   UNL     1       7.072   5.687  16.570  0.00  0.00    +0.000 C 
ATOM      4  O   UNL     1       6.754   6.872  16.499  0.00  0.00    +0.000 OA
ATOM      5  N   UNL     1       7.624   5.023  15.484  0.00  0.00    +0.000 N 
ATOM      6  C   UNL     1       6.708   4.942  14.368  0.00  0.00    +0.000 C 
ATOM      7  C   UNL     1       5.329   4.453  14.829  0.00  0.00    +0.000 C 
ATOM      8  C   UNL     1       5.430   3.406  15.950  0.00  0.00    +0.000 C 
ATOM      9  N   UNL     1       5.378   3.993  17.325  0.00  0.00    +0.000 N 
ATOM     10  C   UNL     1       4.278   3.530  18.062  0.00  0.00    +0.000 C 
ATOM     11  O   UNL     1       3.446   2.774  17.535  0.00  0.00    +0.000 OA
ATOM     12  H   UNL     1       8.074   4.143  15.700  0.00  0.00    +0.000 HD
BRANCH   2  14
ATOM     13  C   UNL     1       8.131   5.796  19.526  0.00  0.00    +0.000 C 
ATOM     14  C   UNL     1       6.690   5.634  18.994  0.00  0.00    +0.000 C 
ENDBRANCH   2  14
ENDBRANCH   1  10
BRANCH   1  15
ATOM     15  C   UNL     1       2.730   4.879  19.648  0.00  0.00    +0.000 C 
BRANCH  15  16
ATOM     16  N   UNL     1       1.439   4.271  19.333  0.00  0.00    +0.000 NA
ATOM     17  H   UNL     1       0.753   5.004  19.126  0.00  0.00    +0.000 HD
ATOM     18  H   UNL     1       1.080   3.754  20.132  0.00  0.00    +0.000 HD
ENDBRANCH  15  16
BRANCH  15  19
ATOM     19  C   UNL     1       2.948   6.280  18.990  0.00  0.00    +0.000 C 
BRANCH  19  20
ATOM     20  C   UNL     1       2.179   7.553  19.318  0.00  0.00    +0.000 A 
ATOM     21  C   UNL     1       1.656   7.659  20.630  0.00  0.00    +0.000 A 
ATOM     22  C   UNL     1       0.870   8.747  21.014  0.00  0.00    +0.000 A 
ATOM     23  F   UNL     1       0.367   8.794  22.253  0.00  0.00    +0.000 F 
ATOM     24  C   UNL     1       0.598   9.762  20.106  0.00  0.00    +0.000 A 
ATOM     25  F   UNL     1      -0.168  10.797  20.459  0.00  0.00    +0.000 F 
ATOM     26  C   UNL     1       1.131   9.707  18.825  0.00  0.00    +0.000 A 
ATOM     27  C   UNL     1       1.920   8.622  18.445  0.00  0.00    +0.000 A 
ATOM     28  F   UNL     1       2.431   8.614  17.211  0.00  0.00    +0.000 F 
ENDBRANCH  19  20
ENDBRANCH  15  19
ENDBRANCH   1  15
TORSDOF 6
ENDMDL
MODEL 2
REMARK VINA RESULT:      -7.9      0.863      1.082
REMARK  Name = 
REMARK  7 active torsions:
REMARK  status: ('A' for Active; 'I' for Inactive)
REMARK    1  A    between atoms: C_1  and  C_2
REMARK    2  A    between atoms: C_2  and  C_3
REMARK    3  A    between atoms: C_11  and  C_13
REMARK    4  A    between atoms: C_13  and  C_14
REMARK    5  A    between atoms: C_14  and  N_15
REMARK    6  A    between atoms: C_14  and  C_16
REMARK    7  A    between atoms: C_16  and  C_17
REMARK                            x       y       z     vdW  Elec       q    Type
REMARK                         _______ _______ _______ _____ _____    ______ ____
ROOT
ATOM      1  C   UNL     1       3.933   3.622  19.347  0.00  0.00    +0.000 C 
ENDROOT
BRANCH   1  10
ATOM      2  C   UNL     1       6.584   4.741  17.710  0.00  0.00    +0.000 C 
ATOM      3  C   UNL     1       6.947   5.791  16.605  0.00  0.00    +0.000 C 
ATOM      4  O   UNL     1       6.531   6.948  16.598  0.00  0.00    +0.000 OA
ATOM      5  N   UNL     1       7.569   5.243  15.493  0.00  0.00    +0.000 N 
ATOM      6  C   UNL     1       6.680   5.155  14.356  0.00  0.00    +0.000 C 
ATOM      7  C   UNL     1       5.340   4.527  14.759  0.00  0.00    +0.000 C 
ATOM      8  C   UNL     1       5.511   3.425  15.817  0.00  0.00    +0.000 C 
ATOM      9  N   UNL     1       5.389   3.920  17.223  0.00  0.00    +0.000 N 
ATOM     10  C   UNL     1       4.320   3.324  17.908  0.00  0.00    +0.000 C 
ATOM     11  O   UNL     1       3.563   2.535  17.320  0.00  0.00    +0.000 OA
ATOM     12  H   UNL     1       8.088   4.391  15.665  0.00  0.00    +0.000 HD
BRANCH   2  14
ATOM     13  C   UNL     1       7.942   5.757  19.615  0.00  0.00    +0.000 C 
ATOM     14  C   UNL     1       6.533   5.559  19.013  0.00  0.00    +0.000 C 
ENDBRANCH   2  14
ENDBRANCH   1  10
BRANCH   1  15
ATOM     15  C   UNL     1       2.580   4.334  19.545  0.00  0.00    +0.000 C 
BRANCH  15  16
ATOM     16  N   UNL     1       1.697   4.321  18.381  0.00  0.00    +0.000 NA
ATOM     17  H   UNL     1       1.444   3.355  18.150  0.00  0.00    +0.000 HD
ATOM     18  H   UNL     1       2.172   4.700  17.564  0.00  0.00    +0.000 HD
ENDBRANCH  15  16
BRANCH  15  19
ATOM     19  C   UNL     1       2.726   5.740  20.213  0.00  0.00    +0.000 C 
BRANCH  19  20
ATOM     20  C   UNL     1       2.343   7.074  19.585  0.00  0.00    +0.000 A 
ATOM     21  C   UNL     1       1.548   7.942  20.371  0.00  0.00    +0.000 A 
ATOM     22  C   UNL     1       1.076   9.155  19.866  0.00  0.00    +0.000 A 
ATOM     23  F   UNL     1       0.299   9.932  20.630  0.00  0.00    +0.000 F 
ATOM     24  C   UNL     1       1.397   9.540  18.571  0.00  0.00    +0.000 A 
ATOM     25  F   UNL     1       0.935  10.689  18.072  0.00  0.00    +0.000 F 
ATOM     26  C   UNL     1       2.210   8.730  17.788  0.00  0.00    +0.000 A 
ATOM     27  C   UNL     1       2.684   7.520  18.298  0.00  0.00    +0.000 A 
ATOM     28  F   UNL     1       3.479   6.778  17.523  0.00  0.00    +0.000 F 
ENDBRANCH  19  20
ENDBRANCH  15  19
ENDBRANCH   1  15
TORSDOF 6
ENDMDL
MODEL 3
REMARK VINA RESULT:      -7.5      0.736      1.728
REMARK  Name = 
REMARK  7 active torsions:
REMARK  status: ('A' for Active; 'I' for Inactive)
REMARK    1  A    between atoms: C_1  and  C_2
REMARK    2  A    between atoms: C_2  and  C_3
REMARK    3  A    between atoms: C_11  and  C_13
REMARK    4  A    between atoms: C_13  and  C_14
REMARK    5  A    between atoms: C_14  and  N_15
REMARK    6  A    between atoms: C_14  and  C_16
REMARK    7  A    between atoms: C_16  and  C_17
REMARK                            x       y       z     vdW  Elec       q    Type
REMARK                         _______ _______ _______ _____ _____    ______ ____
ROOT
ATOM      1  C   UNL     1       4.029   3.902  19.431  0.00  0.00    +0.000 C 
ENDROOT
BRANCH   1  10
ATOM      2  C   UNL     1       6.662   4.863  17.670  0.00  0.00    +0.000 C 
ATOM      3  C   UNL     1       7.018   5.833  16.492  0.00  0.00    +0.000 C 
ATOM      4  O   UNL     1       6.622   6.994  16.418  0.00  0.00    +0.000 OA
ATOM      5  N   UNL     1       7.606   5.202  15.405  0.00  0.00    +0.000 N 
ATOM      6  C   UNL     1       6.691   5.057  14.295  0.00  0.00    +0.000 C 
ATOM      7  C   UNL     1       5.350   4.482  14.766  0.00  0.00    +0.000 C 
ATOM      8  C   UNL     1       5.525   3.447  15.889  0.00  0.00    +0.000 C 
ATOM      9  N   UNL     1       5.442   4.035  17.262  0.00  0.00    +0.000 N 
ATOM     10  C   UNL     1       4.379   3.504  18.007  0.00  0.00    +0.000 C 
ATOM     11  O   UNL     1       3.595   2.693  17.487  0.00  0.00    +0.000 OA
ATOM     12  H   UNL     1       8.114   4.354  15.621  0.00  0.00    +0.000 HD
BRANCH   2  14
ATOM     13  C   UNL     1       8.032   5.782  19.615  0.00  0.00    +0.000 C 
ATOM     14  C   UNL     1       6.654   5.764  18.918  0.00  0.00    +0.000 C 
ENDBRANCH   2  14
ENDBRANCH   1  10
BRANCH   1  15
ATOM     15  C   UNL     1       2.781   4.793  19.593  0.00  0.00    +0.000 C 
BRANCH  15  16
ATOM     16  N   UNL     1       1.504   4.107  19.409  0.00  0.00    +0.000 NA
ATOM     17  H   UNL     1       1.602   3.119  19.661  0.00  0.00    +0.000 HD
ATOM     18  H   UNL     1       1.219   4.131  18.432  0.00  0.00    +0.000 HD
ENDBRANCH  15  16
BRANCH  15  19
ATOM     19  C   UNL     1       2.893   6.143  18.813  0.00  0.00    +0.000 C 
BRANCH  19  20
ATOM     20  C   UNL     1       2.194   7.447  19.173  0.00  0.00    +0.000 A 
ATOM     21  C   UNL     1       2.194   8.461  18.186  0.00  0.00    +0.000 A 
ATOM     22  C   UNL     1       1.649   9.722  18.438  0.00  0.00    +0.000 A 
ATOM     23  F   UNL     1       1.698  10.665  17.490  0.00  0.00    +0.000 F 
ATOM     24  C   UNL     1       1.078   9.997  19.674  0.00  0.00    +0.000 A 
ATOM     25  F   UNL     1       0.572  11.206  19.931  0.00  0.00    +0.000 F 
ATOM     26  C   UNL     1       1.025   9.010  20.649  0.00  0.00    +0.000 A 
ATOM     27  C   UNL     1       1.566   7.749  20.392  0.00  0.00    +0.000 A 
ATOM     28  F   UNL     1       1.478   6.819  21.347  0.00  0.00    +0.000 F 
ENDBRANCH  19  20
ENDBRANCH  15  19
ENDBRANCH   1  15
TORSDOF 6
ENDMDL
MODEL 4
REMARK VINA RESULT:      -7.4      1.893      3.350
REMARK  Name = 
REMARK  7 active torsions:
REMARK  status: ('A' for Active; 'I' for Inactive)
REMARK    1  A    between atoms: C_1  and  C_2
REMARK    2  A    between atoms: C_2  and  C_3
REMARK    3  A    between atoms: C_11  and  C_13
REMARK    4  A    between atoms: C_13  and  C_14
REMARK    5  A    between atoms: C_14  and  N_15
REMARK    6  A    between atoms: C_14  and  C_16
REMARK    7  A    between atoms: C_16  and  C_17
REMARK                            x       y       z     vdW  Elec       q    Type
REMARK                         _______ _______ _______ _____ _____    ______ ____
ROOT
ATOM      1  C   UNL     1       4.228   2.772  17.804  0.00  0.00    +0.000 C 
ENDROOT
BRANCH   1  10
ATOM      2  C   UNL     1       5.452   5.725  16.947  0.00  0.00    +0.000 C 
ATOM      3  C   UNL     1       6.828   6.389  16.598  0.00  0.00    +0.000 C 
ATOM      4  O   UNL     1       7.653   5.894  15.833  0.00  0.00    +0.000 OA
ATOM      5  N   UNL     1       7.158   7.457  17.419  0.00  0.00    +0.000 N 
ATOM      6  C   UNL     1       8.180   7.113  18.383  0.00  0.00    +0.000 C 
ATOM      7  C   UNL     1       7.839   5.797  19.092  0.00  0.00    +0.000 C 
ATOM      8  C   UNL     1       6.329   5.642  19.333  0.00  0.00    +0.000 C 
ATOM      9  N   UNL     1       5.618   4.917  18.234  0.00  0.00    +0.000 N 
ATOM     10  C   UNL     1       5.016   3.731  18.680  0.00  0.00    +0.000 C 
ATOM     11  O   UNL     1       5.164   3.358  19.855  0.00  0.00    +0.000 OA
ATOM     12  H   UNL     1       6.372   7.949  17.825  0.00  0.00    +0.000 HD
BRANCH   2  14
ATOM     13  C   UNL     1       5.956   3.940  15.196  0.00  0.00    +0.000 C 
ATOM     14  C   UNL     1       4.999   5.072  15.628  0.00  0.00    +0.000 C 
ENDBRANCH   2  14
ENDBRANCH   1  10
BRANCH   1  15
ATOM     15  C   UNL     1       2.699   2.781  18.003  0.00  0.00    +0.000 C 
BRANCH  15  16
ATOM     16  N   UNL     1       1.991   1.648  17.410  0.00  0.00    +0.000 NA
ATOM     17  H   UNL     1       0.997   1.874  17.312  0.00  0.00    +0.000 HD
ATOM     18  H   UNL     1       2.046   0.832  18.016  0.00  0.00    +0.000 HD
ENDBRANCH  15  16
BRANCH  15  19
ATOM     19  C   UNL     1       2.054   4.168  17.684  0.00  0.00    +0.000 C 
BRANCH  19  20
ATOM     20  C   UNL     1       1.924   5.340  18.649  0.00  0.00    +0.000 A 
ATOM     21  C   UNL     1       2.188   6.627  18.124  0.00  0.00    +0.000 A 
ATOM     22  C   UNL     1       2.174   7.762  18.938  0.00  0.00    +0.000 A 
ATOM     23  F   UNL     1       2.461   8.958  18.410  0.00  0.00    +0.000 F 
ATOM     24  C   UNL     1       1.882   7.643  20.290  0.00  0.00    +0.000 A 
ATOM     25  F   UNL     1       1.885   8.719  21.080  0.00  0.00    +0.000 F 
ATOM     26  C   UNL     1       1.578   6.399  20.827  0.00  0.00    +0.000 A 
ATOM     27  C   UNL     1       1.588   5.267  20.011  0.00  0.00    +0.000 A 
ATOM     28  F   UNL     1       1.270   4.091  20.558  0.00  0.00    +0.000 F 
ENDBRANCH  19  20
ENDBRANCH  15  19
ENDBRANCH   1  15
TORSDOF 6
ENDMDL
MODEL 5
REMARK VINA RESULT:      -7.2      4.894      8.532
REMARK  Name = 
REMARK  7 active torsions:
REMARK  status: ('A' for Active; 'I' for Inactive)
REMARK    1  A    between atoms: C_1  and  C_2
REMARK    2  A    between atoms: C_2  and  C_3
REMARK    3  A    between atoms: C_11  and  C_13
REMARK    4  A    between atoms: C_13  and  C_14
REMARK    5  A    between atoms: C_14  and  N_15
REMARK    6  A    between atoms: C_14  and  C_16
REMARK    7  A    between atoms: C_16  and  C_17
REMARK                            x       y       z     vdW  Elec       q    Type
REMARK                         _______ _______ _______ _____ _____    ______ ____
ROOT
ATOM      1  C   UNL     1      -0.315   8.974  21.718  0.00  0.00    +0.000 C 
ENDROOT
BRANCH   1  10
ATOM      2  C   UNL     1      -1.246  11.499  19.791  0.00  0.00    +0.000 C 
ATOM      3  C   UNL     1      -0.629  12.767  19.107  0.00  0.00    +0.000 C 
ATOM      4  O   UNL     1       0.429  12.760  18.481  0.00  0.00    +0.000 OA
ATOM      5  N   UNL     1      -1.238  13.957  19.479  0.00  0.00    +0.000 N 
ATOM      6  C   UNL     1      -0.428  14.723  20.399  0.00  0.00    +0.000 C 
ATOM      7  C   UNL     1       0.081  13.838  21.544  0.00  0.00    +0.000 C 
ATOM      8  C   UNL     1      -0.954  12.784  21.967  0.00  0.00    +0.000 C 
ATOM      9  N   UNL     1      -0.804  11.477  21.255  0.00  0.00    +0.000 N 
ATOM     10  C   UNL     1      -0.527  10.420  22.134  0.00  0.00    +0.000 C 
ATOM     11  O   UNL     1      -0.370  10.640  23.346  0.00  0.00    +0.000 OA
ATOM     12  H   UNL     1      -2.205  13.875  19.765  0.00  0.00    +0.000 HD
BRANCH   2  14
ATOM     13  C   UNL     1      -2.050  10.132  17.794  0.00  0.00    +0.000 C 
ATOM     14  C   UNL     1      -0.919  10.347  18.825  0.00  0.00    +0.000 C 
ENDBRANCH   2  14
ENDBRANCH   1  10
BRANCH   1  15
ATOM     15  C   UNL     1       1.143   8.472  21.753  0.00  0.00    +0.000 C 
BRANCH  15  16
ATOM     16  N   UNL     1       2.050   9.263  22.582  0.00  0.00    +0.000 NA
ATOM     17  H   UNL     1       3.013   8.943  22.443  0.00  0.00    +0.000 HD
ATOM     18  H   UNL     1       1.840   9.135  23.569  0.00  0.00    +0.000 HD
ENDBRANCH  15  16
BRANCH  15  19
ATOM     19  C   UNL     1       1.706   8.145  20.331  0.00  0.00    +0.000 C 
BRANCH  19  20
ATOM     20  C   UNL     1       2.113   6.768  19.824  0.00  0.00    +0.000 A 
ATOM     21  C   UNL     1       1.786   5.665  20.649  0.00  0.00    +0.000 A 
ATOM     22  C   UNL     1       2.179   4.367  20.318  0.00  0.00    +0.000 A 
ATOM     23  F   UNL     1       1.880   3.355  21.141  0.00  0.00    +0.000 F 
ATOM     24  C   UNL     1       2.894   4.134  19.150  0.00  0.00    +0.000 A 
ATOM     25  F   UNL     1       3.291   2.899  18.834  0.00  0.00    +0.000 F 
ATOM     26  C   UNL     1       3.194   5.190  18.299  0.00  0.00    +0.000 A 
ATOM     27  C   UNL     1       2.795   6.485  18.630  0.00  0.00    +0.000 A 
ATOM     28  F   UNL     1       3.084   7.472  17.776  0.00  0.00    +0.000 F 
ENDBRANCH  19  20
ENDBRANCH  15  19
ENDBRANCH   1  15
TORSDOF 6
ENDMDL
MODEL 6
REMARK VINA RESULT:      -7.1      1.258      1.737
REMARK  Name = 
REMARK  7 active torsions:
REMARK  status: ('A' for Active; 'I' for Inactive)
REMARK    1  A    between atoms: C_1  and  C_2
REMARK    2  A    between atoms: C_2  and  C_3
REMARK    3  A    between atoms: C_11  and  C_13
REMARK    4  A    between atoms: C_13  and  C_14
REMARK    5  A    between atoms: C_14  and  N_15
REMARK    6  A    between atoms: C_14  and  C_16
REMARK    7  A    between atoms: C_16  and  C_17
REMARK                            x       y       z     vdW  Elec       q    Type
REMARK                         _______ _______ _______ _____ _____    ______ ____
ROOT
ATOM      1  C   UNL     1       4.204   3.379  19.463  0.00  0.00    +0.000 C 
ENDROOT
BRANCH   1  10
ATOM      2  C   UNL     1       6.703   4.730  17.763  0.00  0.00    +0.000 C 
ATOM      3  C   UNL     1       6.947   5.832  16.676  0.00  0.00    +0.000 C 
ATOM      4  O   UNL     1       6.449   6.955  16.716  0.00  0.00    +0.000 OA
ATOM      5  N   UNL     1       7.564   5.358  15.527  0.00  0.00    +0.000 N 
ATOM      6  C   UNL     1       6.642   5.234  14.421  0.00  0.00    +0.000 C 
ATOM      7  C   UNL     1       5.367   4.499  14.854  0.00  0.00    +0.000 C 
ATOM      8  C   UNL     1       5.657   3.387  15.874  0.00  0.00    +0.000 C 
ATOM      9  N   UNL     1       5.553   3.837  17.297  0.00  0.00    +0.000 N 
ATOM     10  C   UNL     1       4.557   3.147  18.003  0.00  0.00    +0.000 C 
ATOM     11  O   UNL     1       3.837   2.319  17.421  0.00  0.00    +0.000 OA
ATOM     12  H   UNL     1       8.150   4.543  15.657  0.00  0.00    +0.000 HD
BRANCH   2  14
ATOM     13  C   UNL     1       8.055   5.806  19.639  0.00  0.00    +0.000 C 
ATOM     14  C   UNL     1       6.643   5.509  19.090  0.00  0.00    +0.000 C 
ENDBRANCH   2  14
ENDBRANCH   1  10
BRANCH   1  15
ATOM     15  C   UNL     1       2.833   2.840  19.917  0.00  0.00    +0.000 C 
BRANCH  15  16
ATOM     16  N   UNL     1       2.451   1.554  19.337  0.00  0.00    +0.000 NA
ATOM     17  H   UNL     1       3.278   0.955  19.249  0.00  0.00    +0.000 HD
ATOM     18  H   UNL     1       2.081   1.679  18.397  0.00  0.00    +0.000 HD
ENDBRANCH  15  16
BRANCH  15  19
ATOM     19  C   UNL     1       1.706   3.921  19.860  0.00  0.00    +0.000 C 
BRANCH  19  20
ATOM     20  C   UNL     1       1.895   5.395  19.526  0.00  0.00    +0.000 A 
ATOM     21  C   UNL     1       1.715   6.315  20.587  0.00  0.00    +0.000 A 
ATOM     22  C   UNL     1       1.788   7.693  20.375  0.00  0.00    +0.000 A 
ATOM     23  F   UNL     1       1.579   8.531  21.398  0.00  0.00    +0.000 F 
ATOM     24  C   UNL     1       2.057   8.188  19.106  0.00  0.00    +0.000 A 
ATOM     25  F   UNL     1       2.109   9.504  18.890  0.00  0.00    +0.000 F 
ATOM     26  C   UNL     1       2.279   7.310  18.053  0.00  0.00    +0.000 A 
ATOM     27  C   UNL     1       2.210   5.933  18.268  0.00  0.00    +0.000 A 
ATOM     28  F   UNL     1       2.450   5.121  17.235  0.00  0.00    +0.000 F 
ENDBRANCH  19  20
ENDBRANCH  15  19
ENDBRANCH   1  15
TORSDOF 6
ENDMDL
MODEL 7
REMARK VINA RESULT:      -7.0      4.722      8.672
REMARK  Name = 
REMARK  7 active torsions:
REMARK  status: ('A' for Active; 'I' for Inactive)
REMARK    1  A    between atoms: C_1  and  C_2
REMARK    2  A    between atoms: C_2  and  C_3
REMARK    3  A    between atoms: C_11  and  C_13
REMARK    4  A    between atoms: C_13  and  C_14
REMARK    5  A    between atoms: C_14  and  N_15
REMARK    6  A    between atoms: C_14  and  C_16
REMARK    7  A    between atoms: C_16  and  C_17
REMARK                            x       y       z     vdW  Elec       q    Type
REMARK                         _______ _______ _______ _____ _____    ______ ____
ROOT
ATOM      1  C   UNL     1      -0.291   8.928  21.614  0.00  0.00    +0.000 C 
ENDROOT
BRANCH   1  10
ATOM      2  C   UNL     1      -1.351  11.486  19.801  0.00  0.00    +0.000 C 
ATOM      3  C   UNL     1      -0.784  12.775  19.112  0.00  0.00    +0.000 C 
ATOM      4  O   UNL     1       0.236  12.792  18.427  0.00  0.00    +0.000 OA
ATOM      5  N   UNL     1      -1.382  13.950  19.545  0.00  0.00    +0.000 N 
ATOM      6  C   UNL     1      -0.528  14.704  20.435  0.00  0.00    +0.000 C 
ATOM      7  C   UNL     1       0.053  13.799  21.529  0.00  0.00    +0.000 C 
ATOM      8  C   UNL     1      -0.948  12.725  21.985  0.00  0.00    +0.000 C 
ATOM      9  N   UNL     1      -0.827  11.436  21.237  0.00  0.00    +0.000 N 
ATOM     10  C   UNL     1      -0.492  10.362  22.074  0.00  0.00    +0.000 C 
ATOM     11  O   UNL     1      -0.268  10.556  23.281  0.00  0.00    +0.000 OA
ATOM     12  H   UNL     1      -2.330  13.852  19.883  0.00  0.00    +0.000 HD
BRANCH   2  14
ATOM     13  C   UNL     1      -2.270  10.129  17.847  0.00  0.00    +0.000 C 
ATOM     14  C   UNL     1      -1.070  10.358  18.792  0.00  0.00    +0.000 C 
ENDBRANCH   2  14
ENDBRANCH   1  10
BRANCH   1  15
ATOM     15  C   UNL     1       1.171   8.442  21.548  0.00  0.00    +0.000 C 
BRANCH  15  16
ATOM     16  N   UNL     1       2.085   9.103  22.476  0.00  0.00    +0.000 NA
ATOM     17  H   UNL     1       3.032   9.108  22.085  0.00  0.00    +0.000 HD
ATOM     18  H   UNL     1       2.136   8.595  23.356  0.00  0.00    +0.000 HD
ENDBRANCH  15  16
BRANCH  15  19
ATOM     19  C   UNL     1       1.713   8.348  20.084  0.00  0.00    +0.000 C 
BRANCH  19  20
ATOM     20  C   UNL     1       2.305   7.108  19.427  0.00  0.00    +0.000 A 
ATOM     21  C   UNL     1       3.154   7.324  18.314  0.00  0.00    +0.000 A 
ATOM     22  C   UNL     1       3.688   6.257  17.590  0.00  0.00    +0.000 A 
ATOM     23  F   UNL     1       4.460   6.502  16.523  0.00  0.00    +0.000 F 
ATOM     24  C   UNL     1       3.403   4.950  17.964  0.00  0.00    +0.000 A 
ATOM     25  F   UNL     1       3.894   3.924  17.266  0.00  0.00    +0.000 F 
ATOM     26  C   UNL     1       2.608   4.706  19.076  0.00  0.00    +0.000 A 
ATOM     27  C   UNL     1       2.079   5.774  19.801  0.00  0.00    +0.000 A 
ATOM     28  F   UNL     1       1.335   5.500  20.876  0.00  0.00    +0.000 F 
ENDBRANCH  19  20
ENDBRANCH  15  19
ENDBRANCH   1  15
TORSDOF 6
ENDMDL
MODEL 8
REMARK VINA RESULT:      -7.0      3.396      7.273
REMARK  Name = 
REMARK  7 active torsions:
REMARK  status: ('A' for Active; 'I' for Inactive)
REMARK    1  A    between atoms: C_1  and  C_2
REMARK    2  A    between atoms: C_2  and  C_3
REMARK    3  A    between atoms: C_11  and  C_13
REMARK    4  A    between atoms: C_13  and  C_14
REMARK    5  A    between atoms: C_14  and  N_15
REMARK    6  A    between atoms: C_14  and  C_16
REMARK    7  A    between atoms: C_16  and  C_17
REMARK                            x       y       z     vdW  Elec       q    Type
REMARK                         _______ _______ _______ _____ _____    ______ ____
ROOT
ATOM      1  C   UNL     1       5.888   6.078  19.032  0.00  0.00    +0.000 C 
ENDROOT
BRANCH   1  10
ATOM      2  C   UNL     1       2.648   5.406  19.053  0.00  0.00    +0.000 C 
ATOM      3  C   UNL     1       1.523   4.989  20.062  0.00  0.00    +0.000 C 
ATOM      4  O   UNL     1       1.358   5.519  21.159  0.00  0.00    +0.000 OA
ATOM      5  N   UNL     1       0.887   3.801  19.733  0.00  0.00    +0.000 N 
ATOM      6  C   UNL     1       1.303   2.704  20.577  0.00  0.00    +0.000 C 
ATOM      7  C   UNL     1       2.832   2.645  20.680  0.00  0.00    +0.000 C 
ATOM      8  C   UNL     1       3.518   3.035  19.361  0.00  0.00    +0.000 C 
ATOM      9  N   UNL     1       3.854   4.490  19.268  0.00  0.00    +0.000 N 
ATOM     10  C   UNL     1       5.232   4.712  19.141  0.00  0.00    +0.000 C 
ATOM     11  O   UNL     1       6.026   3.757  19.181  0.00  0.00    +0.000 OA
ATOM     12  H   UNL     1       0.884   3.572  18.747  0.00  0.00    +0.000 HD
BRANCH   2  14
ATOM     13  C   UNL     1       2.790   7.639  17.830  0.00  0.00    +0.000 C 
ATOM     14  C   UNL     1       2.749   6.934  19.203  0.00  0.00    +0.000 C 
ENDBRANCH   2  14
ENDBRANCH   1  10
BRANCH   1  15
ATOM     15  C   UNL     1       6.845   6.272  17.838  0.00  0.00    +0.000 C 
BRANCH  15  16
ATOM     16  N   UNL     1       7.889   7.275  18.038  0.00  0.00    +0.000 NA
ATOM     17  H   UNL     1       7.891   7.932  17.252  0.00  0.00    +0.000 HD
ATOM     18  H   UNL     1       8.808   6.840  18.057  0.00  0.00    +0.000 HD
ENDBRANCH  15  16
BRANCH  15  19
ATOM     19  C   UNL     1       6.094   6.403  16.473  0.00  0.00    +0.000 C 
BRANCH  19  20
ATOM     20  C   UNL     1       6.122   5.392  15.334  0.00  0.00    +0.000 A 
ATOM     21  C   UNL     1       7.111   5.583  14.340  0.00  0.00    +0.000 A 
ATOM     22  C   UNL     1       7.178   4.761  13.213  0.00  0.00    +0.000 A 
ATOM     23  F   UNL     1       8.108   4.995  12.279  0.00  0.00    +0.000 F 
ATOM     24  C   UNL     1       6.271   3.721  13.056  0.00  0.00    +0.000 A 
ATOM     25  F   UNL     1       6.315   2.943  11.973  0.00  0.00    +0.000 F 
ATOM     26  C   UNL     1       5.315   3.483  14.035  0.00  0.00    +0.000 A 
ATOM     27  C   UNL     1       5.254   4.302  15.162  0.00  0.00    +0.000 A 
ATOM     28  F   UNL     1       4.333   4.028  16.091  0.00  0.00    +0.000 F 
ENDBRANCH  19  20
ENDBRANCH  15  19
ENDBRANCH   1  15
TORSDOF 6
ENDMDL
MODEL 9
REMARK VINA RESULT:      -7.0      3.160      4.648
REMARK  Name = 
REMARK  7 active torsions:
REMARK  status: ('A' for Active; 'I' for Inactive)
REMARK    1  A    between atoms: C_1  and  C_2
REMARK    2  A    between atoms: C_2  and  C_3
REMARK    3  A    between atoms: C_11  and  C_13
REMARK    4  A    between atoms: C_13  and  C_14
REMARK    5  A    between atoms: C_14  and  N_15
REMARK    6  A    between atoms: C_14  and  C_16
REMARK    7  A    between atoms: C_16  and  C_17
REMARK                            x       y       z     vdW  Elec       q    Type
REMARK                         _______ _______ _______ _____ _____    ______ ____
ROOT
ATOM      1  C   UNL     1       2.314   8.022  18.452  0.00  0.00    +0.000 C 
ENDROOT
BRANCH   1  10
ATOM      2  C   UNL     1       3.986   5.176  18.686  0.00  0.00    +0.000 C 
ATOM      3  C   UNL     1       5.432   4.666  19.015  0.00  0.00    +0.000 C 
ATOM      4  O   UNL     1       6.097   5.064  19.968  0.00  0.00    +0.000 OA
ATOM      5  N   UNL     1       6.006   3.917  17.998  0.00  0.00    +0.000 N 
ATOM      6  C   UNL     1       7.014   4.658  17.273  0.00  0.00    +0.000 C 
ATOM      7  C   UNL     1       6.492   6.045  16.878  0.00  0.00    +0.000 C 
ATOM      8  C   UNL     1       5.000   6.020  16.512  0.00  0.00    +0.000 C 
ATOM      9  N   UNL     1       4.094   6.310  17.667  0.00  0.00    +0.000 N 
ATOM     10  C   UNL     1       3.322   7.463  17.463  0.00  0.00    +0.000 C 
ATOM     11  O   UNL     1       3.482   8.151  16.441  0.00  0.00    +0.000 OA
ATOM     12  H   UNL     1       5.352   3.433  17.396  0.00  0.00    +0.000 HD
BRANCH   2  14
ATOM     13  C   UNL     1       2.621   4.096  20.551  0.00  0.00    +0.000 C 
ATOM     14  C   UNL     1       3.331   5.379  20.064  0.00  0.00    +0.000 C 
ENDBRANCH   2  14
ENDBRANCH   1  10
BRANCH   1  15
ATOM     15  C   UNL     1       1.522   9.259  17.980  0.00  0.00    +0.000 C 
BRANCH  15  16
ATOM     16  N   UNL     1       2.340  10.416  17.622  0.00  0.00    +0.000 NA
ATOM     17  H   UNL     1       1.854  10.977  16.915  0.00  0.00    +0.000 HD
ATOM     18  H   UNL     1       3.219  10.121  17.205  0.00  0.00    +0.000 HD
ENDBRANCH  15  16
BRANCH  15  19
ATOM     19  C   UNL     1       0.315   9.600  18.913  0.00  0.00    +0.000 C 
BRANCH  19  20
ATOM     20  C   UNL     1      -0.998  10.238  18.481  0.00  0.00    +0.000 A 
ATOM     21  C   UNL     1      -1.556   9.782  17.262  0.00  0.00    +0.000 A 
ATOM     22  C   UNL     1      -2.716  10.352  16.734  0.00  0.00    +0.000 A 
ATOM     23  F   UNL     1      -3.193   9.915  15.563  0.00  0.00    +0.000 F 
ATOM     24  C   UNL     1      -3.356  11.380  17.414  0.00  0.00    +0.000 A 
ATOM     25  F   UNL     1      -4.455  11.945  16.907  0.00  0.00    +0.000 F 
ATOM     26  C   UNL     1      -2.857  11.822  18.632  0.00  0.00    +0.000 A 
ATOM     27  C   UNL     1      -1.700  11.247  19.160  0.00  0.00    +0.000 A 
ATOM     28  F   UNL     1      -1.262  11.685  20.343  0.00  0.00    +0.000 F 
ENDBRANCH  19  20
ENDBRANCH  15  19
ENDBRANCH   1  15
TORSDOF 6
ENDMDL
