MODEL 1
REMARK VINA RESULT:      -8.4      0.000      0.000
REMARK  Name = 
REMARK  7 active torsions:
REMARK  status: ('A' for Active; 'I' for Inactive)
REMARK    1  A    between atoms: C_2  and  C_3
REMARK    2  A    between atoms: C_8  and  C_9
REMARK    3  A    between atoms: C_9  and  N_10
REMARK    4  A    between atoms: N_13  and  C_14
REMARK    5  A    between atoms: C_14  and  C_15
REMARK    6  A    between atoms: C_18  and  C_19
REMARK    7  A    between atoms: N_21  and  C_22
REMARK                            x       y       z     vdW  Elec       q    Type
REMARK                         _______ _______ _______ _____ _____    ______ ____
ROOT
ATOM      1  N   UNL     1       3.163   5.972  18.183  0.00  0.00    +0.000 N 
ATOM      2  C   UNL     1       2.814   7.280  18.290  0.00  0.00    +0.000 A 
ATOM      3  O   UNL     1       3.225   7.882  17.360  0.00  0.00    +0.000 OA
ATOM      4  N   UNL     1       2.112   7.727  19.385  0.00  0.00    +0.000 N 
ATOM      5  C   UNL     1       1.682   6.859  20.395  0.00  0.00    +0.000 A 
ATOM      6  O   UNL     1       1.075   7.231  21.402  0.00  0.00    +0.000 OA
ATOM      7  C   UNL     1       2.068   5.426  20.254  0.00  0.00    +0.000 A 
ATOM      8  N   UNL     1       1.767   4.589  21.268  0.00  0.00    +0.000 NA
ATOM      9  C   UNL     1       2.196   3.315  21.159  0.00  0.00    +0.000 A 
ATOM     10  C   UNL     1       2.886   2.830  20.065  0.00  0.00    +0.000 A 
ATOM     11  C   UNL     1       3.165   3.693  19.030  0.00  0.00    +0.000 A 
ATOM     12  C   UNL     1       2.795   5.030  19.136  0.00  0.00    +0.000 A 
ENDROOT
BRANCH   1  13
ATOM     13  C   UNL     1       4.058   5.682  17.063  0.00  0.00    +0.000 C 
BRANCH  13  19
ATOM     14  C   UNL     1       6.461   4.714  16.611  0.00  0.00    +0.000 A 
ATOM     15  C   UNL     1       7.708   4.383  17.169  0.00  0.00    +0.000 A 
ATOM     16  C   UNL     1       8.089   4.869  18.417  0.00  0.00    +0.000 A 
ATOM     17  C   UNL     1       7.227   5.693  19.124  0.00  0.00    +0.000 A 
ATOM     18  C   UNL     1       5.961   5.978  18.614  0.00  0.00    +0.000 A 
ATOM     19  C   UNL     1       5.535   5.462  17.370  0.00  0.00    +0.000 A 
BRANCH  14  21
ATOM     20  N   UNL     1       6.106   3.839  14.193  0.00  0.00    +0.000 NA
ATOM     21  C   UNL     1       6.232   4.225  15.281  0.00  0.00    +0.000 C 
ENDBRANCH  14  21
ENDBRANCH  13  19
ENDBRANCH   1  13
BRANCH   4  22
ATOM     22  C   UNL     1       1.836   9.163  19.616  0.00  0.00    +0.000 C 
BRANCH  22  23
ATOM     23  C   UNL     1       0.426   9.678  19.275  0.00  0.00    +0.000 C 
ATOM     24  C   UNL     1       0.202  11.100  19.815  0.00  0.00    +0.000 C 
ATOM     25  C   UNL     1      -1.278  11.431  19.723  0.00  0.00    +0.000 C 
ATOM     26  C   UNL     1      -1.704  11.446  18.256  0.00  0.00    +0.000 C 
ATOM     27  C   UNL     1      -1.397  10.101  17.572  0.00  0.00    +0.000 C 
ATOM     28  C   UNL     1       0.002   9.605  17.806  0.00  0.00    +0.000 C 
BRANCH  26  29
ATOM     29  C   UNL     1      -3.190  11.725  18.172  0.00  0.00    +0.000 C 
ATOM     30  O   UNL     1      -3.828  11.554  17.137  0.00  0.00    +0.000 OA
ATOM     31  N   UNL     1      -3.741  12.212  19.347  0.00  0.00    +0.000 N 
ATOM     32  H   UNL     1      -3.123  12.713  19.972  0.00  0.00    +0.000 HD
BRANCH  31  33
ATOM     33  C   UNL     1      -5.119  12.480  19.434  0.00  0.00    +0.000 A 
ATOM     34  C   UNL     1      -6.026  11.429  19.517  0.00  0.00    +0.000 A 
ATOM     35  C   UNL     1      -7.346  11.743  19.772  0.00  0.00    +0.000 A 
ATOM     36  N   UNL     1      -7.817  13.006  19.874  0.00  0.00    +0.000 NA
ATOM     37  C   UNL     1      -6.919  14.001  19.720  0.00  0.00    +0.000 A 
ATOM     38  C   UNL     1      -5.566  13.792  19.524  0.00  0.00    +0.000 A 
ENDBRANCH  31  33
ENDBRANCH  26  29
ENDBRANCH  22  23
ENDBRANCH   4  22
TORSDOF 7
ENDMDL
MODEL 2
REMARK VINA RESULT:      -8.0      1.352      1.641
REMARK  Name = 
REMARK  7 active torsions:
REMARK  status: ('A' for Active; 'I' for Inactive)
REMARK    1  A    between atoms: C_2  and  C_3
REMARK    2  A    between atoms: C_8  and  C_9
REMARK    3  A    between atoms: C_9  and  N_10
REMARK    4  A    between atoms: N_13  and  C_14
REMARK    5  A    between atoms: C_14  and  C_15
REMARK    6  A    between atoms: C_18  and  C_19
REMARK    7  A    between atoms: N_21  and  C_22
REMARK                            x       y       z     vdW  Elec       q    Type
REMARK                         _______ _______ _______ _____ _____    ______ ____
ROOT
ATOM      1  N   UNL     1       3.252   5.913  17.721  0.00  0.00    +0.000 N 
ATOM      2  C   UNL     1       2.942   7.002  18.469  0.00  0.00    +0.000 A 
ATOM      3  O   UNL     1       3.454   7.962  18.010  0.00  0.00    +0.000 OA
ATOM      4  N   UNL     1       2.164   6.875  19.596  0.00  0.00    +0.000 N 
ATOM      5  C   UNL     1       1.617   5.647  19.986  0.00  0.00    +0.000 A 
ATOM      6  O   UNL     1       0.939   5.494  21.004  0.00  0.00    +0.000 OA
ATOM      7  C   UNL     1       1.961   4.465  19.145  0.00  0.00    +0.000 A 
ATOM      8  N   UNL     1       1.544   3.252  19.560  0.00  0.00    +0.000 NA
ATOM      9  C   UNL     1       1.934   2.187  18.832  0.00  0.00    +0.000 A 
ATOM     10  C   UNL     1       2.698   2.282  17.685  0.00  0.00    +0.000 A 
ATOM     11  C   UNL     1       3.097   3.529  17.264  0.00  0.00    +0.000 A 
ATOM     12  C   UNL     1       2.768   4.646  18.026  0.00  0.00    +0.000 A 
ENDROOT
BRANCH   1  13
ATOM     13  C   UNL     1       4.230   6.171  16.664  0.00  0.00    +0.000 C 
BRANCH  13  19
ATOM     14  C   UNL     1       6.369   4.769  16.054  0.00  0.00    +0.000 A 
ATOM     15  C   UNL     1       7.563   4.199  16.528  0.00  0.00    +0.000 A 
ATOM     16  C   UNL     1       8.108   4.585  17.749  0.00  0.00    +0.000 A 
ATOM     17  C   UNL     1       7.467   5.549  18.513  0.00  0.00    +0.000 A 
ATOM     18  C   UNL     1       6.250   6.078  18.087  0.00  0.00    +0.000 A 
ATOM     19  C   UNL     1       5.654   5.670  16.873  0.00  0.00    +0.000 A 
BRANCH  14  21
ATOM     20  N   UNL     1       5.695   4.030  13.659  0.00  0.00    +0.000 NA
ATOM     21  C   UNL     1       5.966   4.351  14.741  0.00  0.00    +0.000 C 
ENDBRANCH  14  21
ENDBRANCH  13  19
ENDBRANCH   1  13
BRANCH   4  22
ATOM     22  C   UNL     1       1.922   8.005  20.522  0.00  0.00    +0.000 C 
BRANCH  22  23
ATOM     23  C   UNL     1       0.801   8.995  20.153  0.00  0.00    +0.000 C 
ATOM     24  C   UNL     1       0.520   9.977  21.303  0.00  0.00    +0.000 C 
ATOM     25  C   UNL     1      -0.777  10.714  21.010  0.00  0.00    +0.000 C 
ATOM     26  C   UNL     1      -0.607  11.555  19.745  0.00  0.00    +0.000 C 
ATOM     27  C   UNL     1      -0.186  10.683  18.547  0.00  0.00    +0.000 C 
ATOM     28  C   UNL     1       0.965   9.763  18.839  0.00  0.00    +0.000 C 
BRANCH  26  29
ATOM     29  C   UNL     1      -1.916  12.247  19.428  0.00  0.00    +0.000 C 
ATOM     30  O   UNL     1      -2.025  13.470  19.435  0.00  0.00    +0.000 OA
ATOM     31  N   UNL     1      -2.966  11.379  19.167  0.00  0.00    +0.000 N 
ATOM     32  H   UNL     1      -2.918  10.460  19.587  0.00  0.00    +0.000 HD
BRANCH  31  33
ATOM     33  C   UNL     1      -4.234  11.876  18.818  0.00  0.00    +0.000 A 
ATOM     34  C   UNL     1      -5.031  12.483  19.782  0.00  0.00    +0.000 A 
ATOM     35  C   UNL     1      -6.188  13.105  19.356  0.00  0.00    +0.000 A 
ATOM     36  N   UNL     1      -6.623  13.097  18.075  0.00  0.00    +0.000 NA
ATOM     37  C   UNL     1      -5.857  12.440  17.179  0.00  0.00    +0.000 A 
ATOM     38  C   UNL     1      -4.651  11.840  17.493  0.00  0.00    +0.000 A 
ENDBRANCH  31  33
ENDBRANCH  26  29
ENDBRANCH  22  23
ENDBRANCH   4  22
TORSDOF 7
ENDMDL
MODEL 3
REMARK VINA RESULT:      -8.0      1.468      1.631
REMARK  Name = 
REMARK  7 active torsions:
REMARK  status: ('A' for Active; 'I' for Inactive)
REMARK    1  A    between atoms: C_2  and  C_3
REMARK    2  A    between atoms: C_8  and  C_9
REMARK    3  A    between atoms: C_9  and  N_10
REMARK    4  A    between atoms: N_13  and  C_14
REMARK    5  A    between atoms: C_14  and  C_15
REMARK    6  A    between atoms: C_18  and  C_19
REMARK    7  A    between atoms: N_21  and  C_22
REMARK                            x       y       z     vdW  Elec       q    Type
REMARK                         _______ _______ _______ _____ _____    ______ ____
ROOT
ATOM      1  N   UNL     1       3.186   6.031  17.735  0.00  0.00    +0.000 N 
ATOM      2  C   UNL     1       2.913   7.121  18.497  0.00  0.00    +0.000 A 
ATOM      3  O   UNL     1       3.436   8.074  18.035  0.00  0.00    +0.000 OA
ATOM      4  N   UNL     1       2.153   7.002  19.637  0.00  0.00    +0.000 N 
ATOM      5  C   UNL     1       1.589   5.782  20.028  0.00  0.00    +0.000 A 
ATOM      6  O   UNL     1       0.926   5.636  21.058  0.00  0.00    +0.000 OA
ATOM      7  C   UNL     1       1.893   4.600  19.174  0.00  0.00    +0.000 A 
ATOM      8  N   UNL     1       1.459   3.393  19.589  0.00  0.00    +0.000 NA
ATOM      9  C   UNL     1       1.814   2.325  18.846  0.00  0.00    +0.000 A 
ATOM     10  C   UNL     1       2.559   2.412  17.686  0.00  0.00    +0.000 A 
ATOM     11  C   UNL     1       2.975   3.654  17.265  0.00  0.00    +0.000 A 
ATOM     12  C   UNL     1       2.683   4.772  18.041  0.00  0.00    +0.000 A 
ENDROOT
BRANCH   1  13
ATOM     13  C   UNL     1       4.150   6.277  16.663  0.00  0.00    +0.000 C 
BRANCH  13  19
ATOM     14  C   UNL     1       6.227   4.806  16.001  0.00  0.00    +0.000 A 
ATOM     15  C   UNL     1       7.415   4.200  16.445  0.00  0.00    +0.000 A 
ATOM     16  C   UNL     1       8.005   4.573  17.649  0.00  0.00    +0.000 A 
ATOM     17  C   UNL     1       7.416   5.560  18.425  0.00  0.00    +0.000 A 
ATOM     18  C   UNL     1       6.205   6.125  18.031  0.00  0.00    +0.000 A 
ATOM     19  C   UNL     1       5.563   5.731  16.835  0.00  0.00    +0.000 A 
BRANCH  14  21
ATOM     20  N   UNL     1       5.412   4.124  13.632  0.00  0.00    +0.000 NA
ATOM     21  C   UNL     1       5.775   4.397  14.701  0.00  0.00    +0.000 C 
ENDBRANCH  14  21
ENDBRANCH  13  19
ENDBRANCH   1  13
BRANCH   4  22
ATOM     22  C   UNL     1       1.951   8.130  20.574  0.00  0.00    +0.000 C 
BRANCH  22  23
ATOM     23  C   UNL     1       0.736   9.044  20.331  0.00  0.00    +0.000 C 
ATOM     24  C   UNL     1       0.535  10.032  21.493  0.00  0.00    +0.000 C 
ATOM     25  C   UNL     1      -0.830  10.684  21.350  0.00  0.00    +0.000 C 
ATOM     26  C   UNL     1      -0.866  11.506  20.063  0.00  0.00    +0.000 C 
ATOM     27  C   UNL     1      -0.541  10.635  18.835  0.00  0.00    +0.000 C 
ATOM     28  C   UNL     1       0.692   9.792  18.997  0.00  0.00    +0.000 C 
BRANCH  26  29
ATOM     29  C   UNL     1      -2.245  12.112  19.899  0.00  0.00    +0.000 C 
ATOM     30  O   UNL     1      -2.876  12.021  18.849  0.00  0.00    +0.000 OA
ATOM     31  N   UNL     1      -2.700  12.793  21.018  0.00  0.00    +0.000 N 
ATOM     32  H   UNL     1      -2.000  13.181  21.637  0.00  0.00    +0.000 HD
BRANCH  31  33
ATOM     33  C   UNL     1      -3.980  13.374  21.029  0.00  0.00    +0.000 A 
ATOM     34  C   UNL     1      -5.093  12.596  21.327  0.00  0.00    +0.000 A 
ATOM     35  C   UNL     1      -6.301  13.245  21.494  0.00  0.00    +0.000 A 
ATOM     36  N   UNL     1      -6.476  14.574  21.315  0.00  0.00    +0.000 NA
ATOM     37  C   UNL     1      -5.386  15.286  20.959  0.00  0.00    +0.000 A 
ATOM     38  C   UNL     1      -4.122  14.742  20.829  0.00  0.00    +0.000 A 
ENDBRANCH  31  33
ENDBRANCH  26  29
ENDBRANCH  22  23
ENDBRANCH   4  22
TORSDOF 7
ENDMDL
MODEL 4
REMARK VINA RESULT:      -7.9      1.009      1.156
REMARK  Name = 
REMARK  7 active torsions:
REMARK  status: ('A' for Active; 'I' for Inactive)
REMARK    1  A    between atoms: C_2  and  C_3
REMARK    2  A    between atoms: C_8  and  C_9
REMARK    3  A    between atoms: C_9  and  N_10
REMARK    4  A    between atoms: N_13  and  C_14
REMARK    5  A    between atoms: C_14  and  C_15
REMARK    6  A    between atoms: C_18  and  C_19
REMARK    7  A    between atoms: N_21  and  C_22
REMARK                            x       y       z     vdW  Elec       q    Type
REMARK                         _______ _______ _______ _____ _____    ______ ____
ROOT
ATOM      1  N   UNL     1       3.026   5.614  18.118  0.00  0.00    +0.000 N 
ATOM      2  C   UNL     1       2.869   6.961  18.181  0.00  0.00    +0.000 A 
ATOM      3  O   UNL     1       3.382   7.468  17.246  0.00  0.00    +0.000 OA
ATOM      4  N   UNL     1       2.218   7.538  19.246  0.00  0.00    +0.000 N 
ATOM      5  C   UNL     1       1.646   6.773  20.269  0.00  0.00    +0.000 A 
ATOM      6  O   UNL     1       1.079   7.259  21.251  0.00  0.00    +0.000 OA
ATOM      7  C   UNL     1       1.820   5.296  20.176  0.00  0.00    +0.000 A 
ATOM      8  N   UNL     1       1.381   4.542  21.204  0.00  0.00    +0.000 NA
ATOM      9  C   UNL     1       1.621   3.217  21.140  0.00  0.00    +0.000 A 
ATOM     10  C   UNL     1       2.255   2.604  20.076  0.00  0.00    +0.000 A 
ATOM     11  C   UNL     1       2.678   3.385  19.026  0.00  0.00    +0.000 A 
ATOM     12  C   UNL     1       2.505   4.764  19.087  0.00  0.00    +0.000 A 
ENDROOT
BRANCH   1  13
ATOM     13  C   UNL     1       3.891   5.163  17.028  0.00  0.00    +0.000 C 
BRANCH  13  19
ATOM     14  C   UNL     1       6.391   4.619  16.421  0.00  0.00    +0.000 A 
ATOM     15  C   UNL     1       7.692   4.412  16.912  0.00  0.00    +0.000 A 
ATOM     16  C   UNL     1       8.042   4.799  18.202  0.00  0.00    +0.000 A 
ATOM     17  C   UNL     1       7.096   5.399  19.020  0.00  0.00    +0.000 A 
ATOM     18  C   UNL     1       5.785   5.552  18.570  0.00  0.00    +0.000 A 
ATOM     19  C   UNL     1       5.394   5.128  17.280  0.00  0.00    +0.000 A 
BRANCH  14  21
ATOM     20  N   UNL     1       5.966   3.961  13.946  0.00  0.00    +0.000 NA
ATOM     21  C   UNL     1       6.188   4.262  15.045  0.00  0.00    +0.000 C 
ENDBRANCH  14  21
ENDBRANCH  13  19
ENDBRANCH   1  13
BRANCH   4  22
ATOM     22  C   UNL     1       2.151   9.006  19.431  0.00  0.00    +0.000 C 
BRANCH  22  23
ATOM     23  C   UNL     1       0.756   9.658  19.420  0.00  0.00    +0.000 C 
ATOM     24  C   UNL     1       0.762  11.007  20.159  0.00  0.00    +0.000 C 
ATOM     25  C   UNL     1      -0.675  11.448  20.382  0.00  0.00    +0.000 C 
ATOM     26  C   UNL     1      -1.346  11.690  19.031  0.00  0.00    +0.000 C 
ATOM     27  C   UNL     1      -1.288  10.432  18.145  0.00  0.00    +0.000 C 
ATOM     28  C   UNL     1       0.078   9.813  18.057  0.00  0.00    +0.000 C 
BRANCH  26  29
ATOM     29  C   UNL     1      -2.792  12.081  19.257  0.00  0.00    +0.000 C 
ATOM     30  O   UNL     1      -3.154  12.685  20.262  0.00  0.00    +0.000 OA
ATOM     31  N   UNL     1      -3.653  11.668  18.251  0.00  0.00    +0.000 N 
ATOM     32  H   UNL     1      -3.381  10.852  17.719  0.00  0.00    +0.000 HD
BRANCH  31  33
ATOM     33  C   UNL     1      -5.020  11.993  18.303  0.00  0.00    +0.000 A 
ATOM     34  C   UNL     1      -5.614  12.663  17.239  0.00  0.00    +0.000 A 
ATOM     35  C   UNL     1      -6.988  12.806  17.261  0.00  0.00    +0.000 A 
ATOM     36  N   UNL     1      -7.774  12.398  18.284  0.00  0.00    +0.000 NA
ATOM     37  C   UNL     1      -7.153  11.814  19.329  0.00  0.00    +0.000 A 
ATOM     38  C   UNL     1      -5.793  11.568  19.376  0.00  0.00    +0.000 A 
ENDBRANCH  31  33
ENDBRANCH  26  29
ENDBRANCH  22  23
ENDBRANCH   4  22
TORSDOF 7
ENDMDL
MODEL 5
REMARK VINA RESULT:      -7.9      2.685     11.277
REMARK  Name = 
REMARK  7 active torsions:
REMARK  status: ('A' for Active; 'I' for Inactive)
REMARK    1  A    between atoms: C_2  and  C_3
REMARK    2  A    between atoms: C_8  and  C_9
REMARK    3  A    between atoms: C_9  and  N_10
REMARK    4  A    between atoms: N_13  and  C_14
REMARK    5  A    between atoms: C_14  and  C_15
REMARK    6  A    between atoms: C_18  and  C_19
REMARK    7  A    between atoms: N_21  and  C_22
REMARK                            x       y       z     vdW  Elec       q    Type
REMARK                         _______ _______ _______ _____ _____    ______ ____
ROOT
ATOM      1  N   UNL     1      -3.008  12.942  20.985  0.00  0.00    +0.000 N 
ATOM      2  C   UNL     1      -2.232  12.454  19.983  0.00  0.00    +0.000 A 
ATOM      3  O   UNL     1      -2.909  11.911  19.181  0.00  0.00    +0.000 OA
ATOM      4  N   UNL     1      -0.865  12.603  20.023  0.00  0.00    +0.000 N 
ATOM      5  C   UNL     1      -0.226  13.302  21.053  0.00  0.00    +0.000 A 
ATOM      6  O   UNL     1       0.998  13.431  21.133  0.00  0.00    +0.000 OA
ATOM      7  C   UNL     1      -1.096  13.839  22.138  0.00  0.00    +0.000 A 
ATOM      8  N   UNL     1      -0.497  14.416  23.200  0.00  0.00    +0.000 NA
ATOM      9  C   UNL     1      -1.295  14.821  24.208  0.00  0.00    +0.000 A 
ATOM     10  C   UNL     1      -2.672  14.704  24.190  0.00  0.00    +0.000 A 
ATOM     11  C   UNL     1      -3.267  14.132  23.090  0.00  0.00    +0.000 A 
ATOM     12  C   UNL     1      -2.471  13.644  22.058  0.00  0.00    +0.000 A 
ENDROOT
BRANCH   1  13
ATOM     13  C   UNL     1      -4.415  12.551  20.897  0.00  0.00    +0.000 C 
BRANCH  13  19
ATOM     14  C   UNL     1      -6.227  13.096  19.072  0.00  0.00    +0.000 A 
ATOM     15  C   UNL     1      -6.826  14.095  18.285  0.00  0.00    +0.000 A 
ATOM     16  C   UNL     1      -6.661  15.444  18.590  0.00  0.00    +0.000 A 
ATOM     17  C   UNL     1      -5.896  15.811  19.686  0.00  0.00    +0.000 A 
ATOM     18  C   UNL     1      -5.244  14.836  20.438  0.00  0.00    +0.000 A 
ATOM     19  C   UNL     1      -5.360  13.463  20.123  0.00  0.00    +0.000 A 
BRANCH  14  21
ATOM     20  N   UNL     1      -6.760  10.638  18.427  0.00  0.00    +0.000 NA
ATOM     21  C   UNL     1      -6.553  11.747  18.705  0.00  0.00    +0.000 C 
ENDBRANCH  14  21
ENDBRANCH  13  19
ENDBRANCH   1  13
BRANCH   4  22
ATOM     22  C   UNL     1       0.029  11.963  19.032  0.00  0.00    +0.000 C 
BRANCH  22  23
ATOM     23  C   UNL     1       0.396  10.485  19.260  0.00  0.00    +0.000 C 
ATOM     24  C   UNL     1       1.543  10.042  18.335  0.00  0.00    +0.000 C 
ATOM     25  C   UNL     1       1.651   8.528  18.381  0.00  0.00    +0.000 C 
ATOM     26  C   UNL     1       2.033   8.090  19.794  0.00  0.00    +0.000 C 
ATOM     27  C   UNL     1       1.015   8.601  20.831  0.00  0.00    +0.000 C 
ATOM     28  C   UNL     1       0.695  10.063  20.700  0.00  0.00    +0.000 C 
BRANCH  26  29
ATOM     29  C   UNL     1       2.090   6.577  19.848  0.00  0.00    +0.000 C 
ATOM     30  O   UNL     1       1.538   5.936  20.738  0.00  0.00    +0.000 OA
ATOM     31  N   UNL     1       2.838   6.003  18.831  0.00  0.00    +0.000 N 
ATOM     32  H   UNL     1       3.576   6.567  18.429  0.00  0.00    +0.000 HD
BRANCH  31  33
ATOM     33  C   UNL     1       2.948   4.605  18.727  0.00  0.00    +0.000 A 
ATOM     34  C   UNL     1       2.115   3.906  17.861  0.00  0.00    +0.000 A 
ATOM     35  C   UNL     1       2.376   2.564  17.667  0.00  0.00    +0.000 A 
ATOM     36  N   UNL     1       3.343   1.880  18.320  0.00  0.00    +0.000 NA
ATOM     37  C   UNL     1       4.087   2.577  19.203  0.00  0.00    +0.000 A 
ATOM     38  C   UNL     1       3.946   3.936  19.423  0.00  0.00    +0.000 A 
ENDBRANCH  31  33
ENDBRANCH  26  29
ENDBRANCH  22  23
ENDBRANCH   4  22
TORSDOF 7
ENDMDL
MODEL 6
REMARK VINA RESULT:      -7.8      2.424     11.573
REMARK  Name = 
REMARK  7 active torsions:
REMARK  status: ('A' for Active; 'I' for Inactive)
REMARK    1  A    between atoms: C_2  and  C_3
REMARK    2  A    between atoms: C_8  and  C_9
REMARK    3  A    between atoms: C_9  and  N_10
REMARK    4  A    between atoms: N_13  and  C_14
REMARK    5  A    between atoms: C_14  and  C_15
REMARK    6  A    between atoms: C_18  and  C_19
REMARK    7  A    between atoms: N_21  and  C_22
REMARK                            x       y       z     vdW  Elec       q    Type
REMARK                         _______ _______ _______ _____ _____    ______ ____
ROOT
ATOM      1  N   UNL     1      -3.768  12.571  20.645  0.00  0.00    +0.000 N 
ATOM      2  C   UNL     1      -2.450  12.264  20.550  0.00  0.00    +0.000 A 
ATOM      3  O   UNL     1      -1.917  12.458  21.587  0.00  0.00    +0.000 OA
ATOM      4  N   UNL     1      -1.919  11.830  19.358  0.00  0.00    +0.000 N 
ATOM      5  C   UNL     1      -2.711  11.634  18.221  0.00  0.00    +0.000 A 
ATOM      6  O   UNL     1      -2.262  11.273  17.130  0.00  0.00    +0.000 OA
ATOM      7  C   UNL     1      -4.158  11.968  18.348  0.00  0.00    +0.000 A 
ATOM      8  N   UNL     1      -4.922  11.899  17.239  0.00  0.00    +0.000 NA
ATOM      9  C   UNL     1      -6.209  12.284  17.356  0.00  0.00    +0.000 A 
ATOM     10  C   UNL     1      -6.778  12.705  18.543  0.00  0.00    +0.000 A 
ATOM     11  C   UNL     1      -5.989  12.749  19.669  0.00  0.00    +0.000 A 
ATOM     12  C   UNL     1      -4.640  12.421  19.573  0.00  0.00    +0.000 A 
ENDROOT
BRANCH   1  13
ATOM     13  C   UNL     1      -4.149  13.188  21.915  0.00  0.00    +0.000 C 
BRANCH  13  19
ATOM     14  C   UNL     1      -3.909  15.775  21.506  0.00  0.00    +0.000 A 
ATOM     15  C   UNL     1      -4.416  17.053  21.796  0.00  0.00    +0.000 A 
ATOM     16  C   UNL     1      -5.679  17.213  22.359  0.00  0.00    +0.000 A 
ATOM     17  C   UNL     1      -6.452  16.097  22.640  0.00  0.00    +0.000 A 
ATOM     18  C   UNL     1      -5.938  14.820  22.418  0.00  0.00    +0.000 A 
ATOM     19  C   UNL     1      -4.642  14.630  21.888  0.00  0.00    +0.000 A 
BRANCH  14  21
ATOM     20  N   UNL     1      -1.637  15.735  20.250  0.00  0.00    +0.000 NA
ATOM     21  C   UNL     1      -2.636  15.753  20.841  0.00  0.00    +0.000 C 
ENDBRANCH  14  21
ENDBRANCH  13  19
ENDBRANCH   1  13
BRANCH   4  22
ATOM     22  C   UNL     1      -0.465  11.624  19.168  0.00  0.00    +0.000 C 
BRANCH  22  23
ATOM     23  C   UNL     1       0.076  10.193  19.343  0.00  0.00    +0.000 C 
ATOM     24  C   UNL     1       1.244   9.913  18.381  0.00  0.00    +0.000 C 
ATOM     25  C   UNL     1       1.528   8.420  18.378  0.00  0.00    +0.000 C 
ATOM     26  C   UNL     1       1.992   7.991  19.769  0.00  0.00    +0.000 C 
ATOM     27  C   UNL     1       0.947   8.350  20.842  0.00  0.00    +0.000 C 
ATOM     28  C   UNL     1       0.457   9.769  20.763  0.00  0.00    +0.000 C 
BRANCH  26  29
ATOM     29  C   UNL     1       2.225   6.494  19.776  0.00  0.00    +0.000 C 
ATOM     30  O   UNL     1       1.910   5.790  20.731  0.00  0.00    +0.000 OA
ATOM     31  N   UNL     1       2.846   6.014  18.633  0.00  0.00    +0.000 N 
ATOM     32  H   UNL     1       3.436   6.659  18.124  0.00  0.00    +0.000 HD
BRANCH  31  33
ATOM     33  C   UNL     1       3.092   4.638  18.478  0.00  0.00    +0.000 A 
ATOM     34  C   UNL     1       4.175   4.050  19.120  0.00  0.00    +0.000 A 
ATOM     35  C   UNL     1       4.274   2.673  19.077  0.00  0.00    +0.000 A 
ATOM     36  N   UNL     1       3.424   1.876  18.390  0.00  0.00    +0.000 NA
ATOM     37  C   UNL     1       2.424   2.488  17.723  0.00  0.00    +0.000 A 
ATOM     38  C   UNL     1       2.202   3.853  17.755  0.00  0.00    +0.000 A 
ENDBRANCH  31  33
ENDBRANCH  26  29
ENDBRANCH  22  23
ENDBRANCH   4  22
TORSDOF 7
ENDMDL
MODEL 7
REMARK VINA RESULT:      -7.8      4.270     10.766
REMARK  Name = 
REMARK  7 active torsions:
REMARK  status: ('A' for Active; 'I' for Inactive)
REMARK    1  A    between atoms: C_2  and  C_3
REMARK    2  A    between atoms: C_8  and  C_9
REMARK    3  A    between atoms: C_9  and  N_10
REMARK    4  A    between atoms: N_13  and  C_14
REMARK    5  A    between atoms: C_14  and  C_15
REMARK    6  A    between atoms: C_18  and  C_19
REMARK    7  A    between atoms: N_21  and  C_22
REMARK                            x       y       z     vdW  Elec       q    Type
REMARK                         _______ _______ _______ _____ _____    ______ ____
ROOT
ATOM      1  N   UNL     1       1.131  13.999  20.930  0.00  0.00    +0.000 N 
ATOM      2  C   UNL     1       0.897  12.788  20.365  0.00  0.00    +0.000 A 
ATOM      3  O   UNL     1       1.623  12.627  19.446  0.00  0.00    +0.000 OA
ATOM      4  N   UNL     1      -0.091  11.967  20.857  0.00  0.00    +0.000 N 
ATOM      5  C   UNL     1      -0.850  12.313  21.980  0.00  0.00    +0.000 A 
ATOM      6  O   UNL     1      -1.761  11.613  22.430  0.00  0.00    +0.000 OA
ATOM      7  C   UNL     1      -0.572  13.642  22.593  0.00  0.00    +0.000 A 
ATOM      8  N   UNL     1      -1.365  14.051  23.604  0.00  0.00    +0.000 NA
ATOM      9  C   UNL     1      -1.151  15.289  24.090  0.00  0.00    +0.000 A 
ATOM     10  C   UNL     1      -0.155  16.131  23.632  0.00  0.00    +0.000 A 
ATOM     11  C   UNL     1       0.659  15.690  22.614  0.00  0.00    +0.000 A 
ATOM     12  C   UNL     1       0.426  14.442  22.044  0.00  0.00    +0.000 A 
ENDROOT
BRANCH   1  13
ATOM     13  C   UNL     1       2.081  14.831  20.192  0.00  0.00    +0.000 C 
BRANCH  13  19
ATOM     14  C   UNL     1       2.240  16.773  18.425  0.00  0.00    +0.000 A 
ATOM     15  C   UNL     1       1.541  17.768  17.720  0.00  0.00    +0.000 A 
ATOM     16  C   UNL     1       0.151  17.753  17.646  0.00  0.00    +0.000 A 
ATOM     17  C   UNL     1      -0.559  16.742  18.276  0.00  0.00    +0.000 A 
ATOM     18  C   UNL     1       0.115  15.785  19.032  0.00  0.00    +0.000 A 
ATOM     19  C   UNL     1       1.523  15.803  19.159  0.00  0.00    +0.000 A 
BRANCH  14  21
ATOM     20  N   UNL     1       4.829  16.951  18.329  0.00  0.00    +0.000 NA
ATOM     21  C   UNL     1       3.672  16.851  18.345  0.00  0.00    +0.000 C 
ENDBRANCH  14  21
ENDBRANCH  13  19
ENDBRANCH   1  13
BRANCH   4  22
ATOM     22  C   UNL     1      -0.479  10.706  20.185  0.00  0.00    +0.000 C 
BRANCH  22  23
ATOM     23  C   UNL     1       0.652   9.745  19.774  0.00  0.00    +0.000 C 
ATOM     24  C   UNL     1       0.607   8.443  20.591  0.00  0.00    +0.000 C 
ATOM     25  C   UNL     1       1.902   7.680  20.366  0.00  0.00    +0.000 C 
ATOM     26  C   UNL     1       2.003   7.274  18.897  0.00  0.00    +0.000 C 
ATOM     27  C   UNL     1       1.921   8.503  17.972  0.00  0.00    +0.000 C 
ATOM     28  C   UNL     1       0.774   9.423  18.283  0.00  0.00    +0.000 C 
BRANCH  26  29
ATOM     29  C   UNL     1       3.319   6.559  18.668  0.00  0.00    +0.000 C 
ATOM     30  O   UNL     1       3.814   5.820  19.514  0.00  0.00    +0.000 OA
ATOM     31  N   UNL     1       3.911   6.842  17.446  0.00  0.00    +0.000 N 
ATOM     32  H   UNL     1       3.690   7.734  17.024  0.00  0.00    +0.000 HD
BRANCH  31  33
ATOM     33  C   UNL     1       5.116   6.220  17.076  0.00  0.00    +0.000 A 
ATOM     34  C   UNL     1       6.331   6.808  17.411  0.00  0.00    +0.000 A 
ATOM     35  C   UNL     1       7.480   6.077  17.178  0.00  0.00    +0.000 A 
ATOM     36  N   UNL     1       7.496   4.863  16.582  0.00  0.00    +0.000 NA
ATOM     37  C   UNL     1       6.303   4.355  16.209  0.00  0.00    +0.000 A 
ATOM     38  C   UNL     1       5.093   4.978  16.454  0.00  0.00    +0.000 A 
ENDBRANCH  31  33
ENDBRANCH  26  29
ENDBRANCH  22  23
ENDBRANCH   4  22
TORSDOF 7
ENDMDL
MODEL 8
REMARK VINA RESULT:      -7.7      2.646     11.416
REMARK  Name = 
REMARK  7 active torsions:
REMARK  status: ('A' for Active; 'I' for Inactive)
REMARK    1  A    between atoms: C_2  and  C_3
REMARK    2  A    between atoms: C_8  and  C_9
REMARK    3  A    between atoms: C_9  and  N_10
REMARK    4  A    between atoms: N_13  and  C_14
REMARK    5  A    between atoms: C_14  and  C_15
REMARK    6  A    between atoms: C_18  and  C_19
REMARK    7  A    between atoms: N_21  and  C_22
REMARK                            x       y       z     vdW  Elec       q    Type
REMARK                         _______ _______ _______ _____ _____    ______ ____
ROOT
ATOM      1  N   UNL     1      -3.035  12.181  21.019  0.00  0.00    +0.000 N 
ATOM      2  C   UNL     1      -1.730  11.947  20.727  0.00  0.00    +0.000 A 
ATOM      3  O   UNL     1      -1.082  12.000  21.714  0.00  0.00    +0.000 OA
ATOM      4  N   UNL     1      -1.335  11.726  19.428  0.00  0.00    +0.000 N 
ATOM      5  C   UNL     1      -2.253  11.676  18.373  0.00  0.00    +0.000 A 
ATOM      6  O   UNL     1      -1.929  11.507  17.194  0.00  0.00    +0.000 OA
ATOM      7  C   UNL     1      -3.681  11.926  18.716  0.00  0.00    +0.000 A 
ATOM      8  N   UNL     1      -4.570  11.998  17.704  0.00  0.00    +0.000 NA
ATOM      9  C   UNL     1      -5.843  12.306  18.027  0.00  0.00    +0.000 A 
ATOM     10  C   UNL     1      -6.275  12.515  19.323  0.00  0.00    +0.000 A 
ATOM     11  C   UNL     1      -5.359  12.416  20.344  0.00  0.00    +0.000 A 
ATOM     12  C   UNL     1      -4.025  12.163  20.043  0.00  0.00    +0.000 A 
ENDROOT
BRANCH   1  13
ATOM     13  C   UNL     1      -3.275  12.577  22.407  0.00  0.00    +0.000 C 
BRANCH  13  19
ATOM     14  C   UNL     1      -5.246  14.154  23.144  0.00  0.00    +0.000 A 
ATOM     15  C   UNL     1      -5.803  15.442  23.060  0.00  0.00    +0.000 A 
ATOM     16  C   UNL     1      -5.052  16.520  22.600  0.00  0.00    +0.000 A 
ATOM     17  C   UNL     1      -3.733  16.325  22.219  0.00  0.00    +0.000 A 
ATOM     18  C   UNL     1      -3.186  15.043  22.236  0.00  0.00    +0.000 A 
ATOM     19  C   UNL     1      -3.941  13.925  22.657  0.00  0.00    +0.000 A 
BRANCH  14  21
ATOM     20  N   UNL     1      -6.747  12.299  24.168  0.00  0.00    +0.000 NA
ATOM     21  C   UNL     1      -6.097  13.152  23.722  0.00  0.00    +0.000 C 
ENDBRANCH  14  21
ENDBRANCH  13  19
ENDBRANCH   1  13
BRANCH   4  22
ATOM     22  C   UNL     1       0.090  11.611  19.043  0.00  0.00    +0.000 C 
BRANCH  22  23
ATOM     23  C   UNL     1       0.675  10.194  18.907  0.00  0.00    +0.000 C 
ATOM     24  C   UNL     1       1.867  10.170  17.934  0.00  0.00    +0.000 C 
ATOM     25  C   UNL     1       2.201   8.725  17.605  0.00  0.00    +0.000 C 
ATOM     26  C   UNL     1       2.656   8.009  18.876  0.00  0.00    +0.000 C 
ATOM     27  C   UNL     1       1.582   8.088  19.977  0.00  0.00    +0.000 C 
ATOM     28  C   UNL     1       1.047   9.474  20.205  0.00  0.00    +0.000 C 
BRANCH  26  29
ATOM     29  C   UNL     1       2.939   6.556  18.553  0.00  0.00    +0.000 C 
ATOM     30  O   UNL     1       3.682   6.226  17.633  0.00  0.00    +0.000 OA
ATOM     31  N   UNL     1       2.264   5.655  19.362  0.00  0.00    +0.000 N 
ATOM     32  H   UNL     1       1.393   5.967  19.771  0.00  0.00    +0.000 HD
BRANCH  31  33
ATOM     33  C   UNL     1       2.459   4.271  19.208  0.00  0.00    +0.000 A 
ATOM     34  C   UNL     1       1.538   3.518  18.487  0.00  0.00    +0.000 A 
ATOM     35  C   UNL     1       1.861   2.201  18.219  0.00  0.00    +0.000 A 
ATOM     36  N   UNL     1       2.977   1.589  18.674  0.00  0.00    +0.000 NA
ATOM     37  C   UNL     1       3.813   2.333  19.427  0.00  0.00    +0.000 A 
ATOM     38  C   UNL     1       3.612   3.674  19.700  0.00  0.00    +0.000 A 
ENDBRANCH  31  33
ENDBRANCH  26  29
ENDBRANCH  22  23
ENDBRANCH   4  22
TORSDOF 7
ENDMDL
MODEL 9
REMARK VINA RESULT:      -7.7      2.371     11.859
REMARK  Name = 
REMARK  7 active torsions:
REMARK  status: ('A' for Active; 'I' for Inactive)
REMARK    1  A    between atoms: C_2  and  C_3
REMARK    2  A    between atoms: C_8  and  C_9
REMARK    3  A    between atoms: C_9  and  N_10
REMARK    4  A    between atoms: N_13  and  C_14
REMARK    5  A    between atoms: C_14  and  C_15
REMARK    6  A    between atoms: C_18  and  C_19
REMARK    7  A    between atoms: N_21  and  C_22
REMARK                            x       y       z     vdW  Elec       q    Type
REMARK                         _______ _______ _______ _____ _____    ______ ____
ROOT
ATOM      1  N   UNL     1      -3.821  12.628  20.825  0.00  0.00    +0.000 N 
ATOM      2  C   UNL     1      -2.499  12.408  20.615  0.00  0.00    +0.000 A 
ATOM      3  O   UNL     1      -1.891  12.651  21.598  0.00  0.00    +0.000 OA
ATOM      4  N   UNL     1      -2.047  11.995  19.383  0.00  0.00    +0.000 N 
ATOM      5  C   UNL     1      -2.922  11.733  18.322  0.00  0.00    +0.000 A 
ATOM      6  O   UNL     1      -2.549  11.389  17.198  0.00  0.00    +0.000 OA
ATOM      7  C   UNL     1      -4.371  11.971  18.576  0.00  0.00    +0.000 A 
ATOM      8  N   UNL     1      -5.224  11.837  17.541  0.00  0.00    +0.000 NA
ATOM      9  C   UNL     1      -6.519  12.136  17.769  0.00  0.00    +0.000 A 
ATOM     10  C   UNL     1      -7.007  12.535  18.999  0.00  0.00    +0.000 A 
ATOM     11  C   UNL     1      -6.126  12.645  20.051  0.00  0.00    +0.000 A 
ATOM     12  C   UNL     1      -4.773  12.407  19.836  0.00  0.00    +0.000 A 
ENDROOT
BRANCH   1  13
ATOM     13  C   UNL     1      -4.129  13.234  22.120  0.00  0.00    +0.000 C 
BRANCH  13  19
ATOM     14  C   UNL     1      -5.915  15.079  22.687  0.00  0.00    +0.000 A 
ATOM     15  C   UNL     1      -6.413  16.355  22.372  0.00  0.00    +0.000 A 
ATOM     16  C   UNL     1      -5.670  17.246  21.603  0.00  0.00    +0.000 A 
ATOM     17  C   UNL     1      -4.418  16.873  21.137  0.00  0.00    +0.000 A 
ATOM     18  C   UNL     1      -3.938  15.588  21.387  0.00  0.00    +0.000 A 
ATOM     19  C   UNL     1      -4.691  14.651  22.128  0.00  0.00    +0.000 A 
BRANCH  14  21
ATOM     20  N   UNL     1      -7.446  13.708  24.273  0.00  0.00    +0.000 NA
ATOM     21  C   UNL     1      -6.739  14.296  23.564  0.00  0.00    +0.000 C 
ENDBRANCH  14  21
ENDBRANCH  13  19
ENDBRANCH   1  13
BRANCH   4  22
ATOM     22  C   UNL     1      -0.605  11.884  19.065  0.00  0.00    +0.000 C 
BRANCH  22  23
ATOM     23  C   UNL     1       0.006  10.471  19.034  0.00  0.00    +0.000 C 
ATOM     24  C   UNL     1       1.216  10.404  18.086  0.00  0.00    +0.000 C 
ATOM     25  C   UNL     1       1.580   8.946  17.861  0.00  0.00    +0.000 C 
ATOM     26  C   UNL     1       2.023   8.325  19.184  0.00  0.00    +0.000 C 
ATOM     27  C   UNL     1       0.928   8.459  20.259  0.00  0.00    +0.000 C 
ATOM     28  C   UNL     1       0.366   9.846  20.384  0.00  0.00    +0.000 C 
BRANCH  26  29
ATOM     29  C   UNL     1       2.336   6.859  18.965  0.00  0.00    +0.000 C 
ATOM     30  O   UNL     1       2.120   6.300  17.893  0.00  0.00    +0.000 OA
ATOM     31  N   UNL     1       2.851   6.217  20.081  0.00  0.00    +0.000 N 
ATOM     32  H   UNL     1       2.601   6.596  20.985  0.00  0.00    +0.000 HD
BRANCH  31  33
ATOM     33  C   UNL     1       3.227   4.864  20.017  0.00  0.00    +0.000 A 
ATOM     34  C   UNL     1       4.375   4.495  19.325  0.00  0.00    +0.000 A 
ATOM     35  C   UNL     1       4.794   3.183  19.435  0.00  0.00    +0.000 A 
ATOM     36  N   UNL     1       4.119   2.229  20.114  0.00  0.00    +0.000 NA
ATOM     37  C   UNL     1       2.973   2.609  20.716  0.00  0.00    +0.000 A 
ATOM     38  C   UNL     1       2.501   3.910  20.718  0.00  0.00    +0.000 A 
ENDBRANCH  31  33
ENDBRANCH  26  29
ENDBRANCH  22  23
ENDBRANCH   4  22
TORSDOF 7
ENDMDL
