MODEL 1
REMARK VINA RESULT:      -8.1      0.000      0.000
REMARK  Name = 
REMARK  5 active torsions:
REMARK  status: ('A' for Active; 'I' for Inactive)
REMARK    1  A    between atoms: C_1  and  C_2
REMARK    2  A    between atoms: C_2  and  C_3
REMARK    3  A    between atoms: C_2  and  C_4
REMARK    4  A    between atoms: C_2  and  C_16
REMARK    5  A    between atoms: N_6  and  C_7
REMARK                            x       y       z     vdW  Elec       q    Type
REMARK                         _______ _______ _______ _____ _____    ______ ____
ROOT
ATOM      1  C   UNL     1       3.738   3.418  18.609  0.00  0.00    +0.000 C 
ATOM      2  O   UNL     1       4.468   2.552  19.081  0.00  0.00    +0.000 OA
ATOM      3  N   UNL     1       4.091   4.118  17.478  0.00  0.00    +0.000 N 
ATOM      4  H   UNL     1       3.539   4.930  17.230  0.00  0.00    +0.000 HD
ENDROOT
BRANCH   3   5
ATOM      5  C   UNL     1       5.373   3.943  16.817  0.00  0.00    +0.000 C 
ATOM      6  C   UNL     1       5.398   4.350  15.327  0.00  0.00    +0.000 C 
ATOM      7  O   UNL     1       6.162   5.569  15.150  0.00  0.00    +0.000 OA
ATOM      8  C   UNL     1       6.723   5.808  16.387  0.00  0.00    +0.000 A 
ATOM      9  N   UNL     1       7.493   6.886  16.581  0.00  0.00    +0.000 NA
ATOM     10  C   UNL     1       7.898   7.072  17.859  0.00  0.00    +0.000 A 
ATOM     11  C   UNL     1       7.572   6.223  18.917  0.00  0.00    +0.000 A 
ATOM     12  C   UNL     1       6.778   5.109  18.662  0.00  0.00    +0.000 A 
ATOM     13  C   UNL     1       6.341   4.918  17.363  0.00  0.00    +0.000 A 
ENDBRANCH   3   5
BRANCH   1  15
ATOM     14  C   UNL     1       1.274   3.183  18.327  0.00  0.00    +0.000 C 
ATOM     15  C   UNL     1       2.364   3.824  19.217  0.00  0.00    +0.000 C 
ATOM     16  C   UNL     1       2.240   3.223  20.630  0.00  0.00    +0.000 C 
BRANCH  15  17
ATOM     17  C   UNL     1       2.217   5.355  19.357  0.00  0.00    +0.000 A 
ATOM     18  C   UNL     1       2.419   6.221  18.262  0.00  0.00    +0.000 A 
ATOM     19  C   UNL     1       2.192   7.595  18.373  0.00  0.00    +0.000 A 
ATOM     20  C   UNL     1       1.755   8.134  19.579  0.00  0.00    +0.000 A 
ATOM     21 CL   UNL     1       1.442   9.820  19.703  0.00  0.00    +0.000 Cl
ATOM     22  C   UNL     1       1.548   7.304  20.676  0.00  0.00    +0.000 A 
ATOM     23  C   UNL     1       1.772   5.927  20.562  0.00  0.00    +0.000 A 
ENDBRANCH  15  17
ENDBRANCH   1  15
TORSDOF 3
ENDMDL
MODEL 2
REMARK VINA RESULT:      -7.9      3.147      6.461
REMARK  Name = 
REMARK  5 active torsions:
REMARK  status: ('A' for Active; 'I' for Inactive)
REMARK    1  A    between atoms: C_1  and  C_2
REMARK    2  A    between atoms: C_2  and  C_3
REMARK    3  A    between atoms: C_2  and  C_4
REMARK    4  A    between atoms: C_2  and  C_16
REMARK    5  A    between atoms: N_6  and  C_7
REMARK                            x       y       z     vdW  Elec       q    Type
REMARK                         _______ _______ _______ _____ _____    ______ ____
ROOT
ATOM      1  C   UNL     1       5.505   5.414  18.638  0.00  0.00    +0.000 C 
ATOM      2  O   UNL     1       6.267   4.674  19.251  0.00  0.00    +0.000 OA
ATOM      3  N   UNL     1       4.190   5.566  19.015  0.00  0.00    +0.000 N 
ATOM      4  H   UNL     1       3.568   6.052  18.381  0.00  0.00    +0.000 HD
ENDROOT
BRANCH   3   5
ATOM      5  C   UNL     1       3.595   4.808  20.102  0.00  0.00    +0.000 C 
ATOM      6  C   UNL     1       2.424   5.513  20.821  0.00  0.00    +0.000 C 
ATOM      7  O   UNL     1       1.169   4.865  20.495  0.00  0.00    +0.000 OA
ATOM      8  C   UNL     1       1.535   3.741  19.783  0.00  0.00    +0.000 A 
ATOM      9  N   UNL     1       0.600   2.909  19.308  0.00  0.00    +0.000 NA
ATOM     10  C   UNL     1       1.074   1.904  18.537  0.00  0.00    +0.000 A 
ATOM     11  C   UNL     1       2.424   1.705  18.247  0.00  0.00    +0.000 A 
ATOM     12  C   UNL     1       3.359   2.591  18.774  0.00  0.00    +0.000 A 
ATOM     13  C   UNL     1       2.886   3.635  19.549  0.00  0.00    +0.000 A 
ENDBRANCH   3   5
BRANCH   1  15
ATOM     14  C   UNL     1       4.875   7.377  17.238  0.00  0.00    +0.000 C 
ATOM     15  C   UNL     1       5.918   6.246  17.389  0.00  0.00    +0.000 C 
ATOM     16  C   UNL     1       7.291   6.896  17.646  0.00  0.00    +0.000 C 
BRANCH  15  17
ATOM     17  C   UNL     1       6.058   5.370  16.124  0.00  0.00    +0.000 A 
ATOM     18  C   UNL     1       5.093   4.399  15.787  0.00  0.00    +0.000 A 
ATOM     19  C   UNL     1       5.177   3.677  14.593  0.00  0.00    +0.000 A 
ATOM     20  C   UNL     1       6.225   3.913  13.709  0.00  0.00    +0.000 A 
ATOM     21 CL   UNL     1       6.306   3.049  12.225  0.00  0.00    +0.000 Cl
ATOM     22  C   UNL     1       7.191   4.865  14.015  0.00  0.00    +0.000 A 
ATOM     23  C   UNL     1       7.104   5.590  15.210  0.00  0.00    +0.000 A 
ENDBRANCH  15  17
ENDBRANCH   1  15
TORSDOF 3
ENDMDL
MODEL 3
REMARK VINA RESULT:      -7.9      3.215      6.518
REMARK  Name = 
REMARK  5 active torsions:
REMARK  status: ('A' for Active; 'I' for Inactive)
REMARK    1  A    between atoms: C_1  and  C_2
REMARK    2  A    between atoms: C_2  and  C_3
REMARK    3  A    between atoms: C_2  and  C_4
REMARK    4  A    between atoms: C_2  and  C_16
REMARK    5  A    between atoms: N_6  and  C_7
REMARK                            x       y       z     vdW  Elec       q    Type
REMARK                         _______ _______ _______ _____ _____    ______ ____
ROOT
ATOM      1  C   UNL     1       4.432   6.175  17.543  0.00  0.00    +0.000 C 
ATOM      2  O   UNL     1       3.929   7.289  17.442  0.00  0.00    +0.000 OA
ATOM      3  N   UNL     1       3.682   5.077  17.900  0.00  0.00    +0.000 N 
ATOM      4  H   UNL     1       4.172   4.222  18.132  0.00  0.00    +0.000 HD
ENDROOT
BRANCH   3   5
ATOM      5  C   UNL     1       2.278   5.172  18.259  0.00  0.00    +0.000 C 
ATOM      6  C   UNL     1       1.318   4.377  17.345  0.00  0.00    +0.000 C 
ATOM      7  O   UNL     1       0.792   3.224  18.049  0.00  0.00    +0.000 OA
ATOM      8  C   UNL     1       1.233   3.379  19.346  0.00  0.00    +0.000 A 
ATOM      9  N   UNL     1       0.931   2.464  20.275  0.00  0.00    +0.000 NA
ATOM     10  C   UNL     1       1.508   2.669  21.482  0.00  0.00    +0.000 A 
ATOM     11  C   UNL     1       2.346   3.743  21.780  0.00  0.00    +0.000 A 
ATOM     12  C   UNL     1       2.620   4.675  20.783  0.00  0.00    +0.000 A 
ATOM     13  C   UNL     1       2.052   4.467  19.539  0.00  0.00    +0.000 A 
ENDBRANCH   3   5
BRANCH   1  15
ATOM     14  C   UNL     1       6.690   7.219  17.409  0.00  0.00    +0.000 C 
ATOM     15  C   UNL     1       5.938   5.873  17.292  0.00  0.00    +0.000 C 
ATOM     16  C   UNL     1       6.458   4.940  18.402  0.00  0.00    +0.000 C 
BRANCH  15  17
ATOM     17  C   UNL     1       6.173   5.156  15.944  0.00  0.00    +0.000 A 
ATOM     18  C   UNL     1       5.246   4.226  15.430  0.00  0.00    +0.000 A 
ATOM     19  C   UNL     1       5.419   3.652  14.167  0.00  0.00    +0.000 A 
ATOM     20  C   UNL     1       6.521   3.998  13.391  0.00  0.00    +0.000 A 
ATOM     21 CL   UNL     1       6.713   3.317  11.824  0.00  0.00    +0.000 Cl
ATOM     22  C   UNL     1       7.452   4.911  13.873  0.00  0.00    +0.000 A 
ATOM     23  C   UNL     1       7.275   5.488  15.136  0.00  0.00    +0.000 A 
ENDBRANCH  15  17
ENDBRANCH   1  15
TORSDOF 3
ENDMDL
MODEL 4
REMARK VINA RESULT:      -7.8      3.258      6.528
REMARK  Name = 
REMARK  5 active torsions:
REMARK  status: ('A' for Active; 'I' for Inactive)
REMARK    1  A    between atoms: C_1  and  C_2
REMARK    2  A    between atoms: C_2  and  C_3
REMARK    3  A    between atoms: C_2  and  C_4
REMARK    4  A    between atoms: C_2  and  C_16
REMARK    5  A    between atoms: N_6  and  C_7
REMARK                            x       y       z     vdW  Elec       q    Type
REMARK                         _______ _______ _______ _____ _____    ______ ____
ROOT
ATOM      1  C   UNL     1       4.408   6.123  17.460  0.00  0.00    +0.000 C 
ATOM      2  O   UNL     1       3.917   7.243  17.366  0.00  0.00    +0.000 OA
ATOM      3  N   UNL     1       3.654   5.037  17.846  0.00  0.00    +0.000 N 
ATOM      4  H   UNL     1       4.139   4.178  18.069  0.00  0.00    +0.000 HD
ENDROOT
BRANCH   3   5
ATOM      5  C   UNL     1       2.261   5.153  18.243  0.00  0.00    +0.000 C 
ATOM      6  C   UNL     1       1.265   4.375  17.354  0.00  0.00    +0.000 C 
ATOM      7  O   UNL     1       0.740   3.229  18.069  0.00  0.00    +0.000 OA
ATOM      8  C   UNL     1       1.219   3.374  19.354  0.00  0.00    +0.000 A 
ATOM      9  N   UNL     1       0.929   2.461  20.289  0.00  0.00    +0.000 NA
ATOM     10  C   UNL     1       1.541   2.653  21.480  0.00  0.00    +0.000 A 
ATOM     11  C   UNL     1       2.404   3.714  21.758  0.00  0.00    +0.000 A 
ATOM     12  C   UNL     1       2.665   4.644  20.756  0.00  0.00    +0.000 A 
ATOM     13  C   UNL     1       2.060   4.448  19.527  0.00  0.00    +0.000 A 
ENDBRANCH   3   5
BRANCH   1  15
ATOM     14  C   UNL     1       6.699   7.101  17.420  0.00  0.00    +0.000 C 
ATOM     15  C   UNL     1       5.902   5.800  17.169  0.00  0.00    +0.000 C 
ATOM     16  C   UNL     1       6.395   4.740  18.173  0.00  0.00    +0.000 C 
BRANCH  15  17
ATOM     17  C   UNL     1       6.109   5.219  15.753  0.00  0.00    +0.000 A 
ATOM     18  C   UNL     1       7.271   5.497  15.003  0.00  0.00    +0.000 A 
ATOM     19  C   UNL     1       7.495   4.893  13.763  0.00  0.00    +0.000 A 
ATOM     20  C   UNL     1       6.565   3.996  13.247  0.00  0.00    +0.000 A 
ATOM     21 CL   UNL     1       6.860   3.227  11.738  0.00  0.00    +0.000 Cl
ATOM     22  C   UNL     1       5.410   3.703  13.965  0.00  0.00    +0.000 A 
ATOM     23  C   UNL     1       5.189   4.306  15.209  0.00  0.00    +0.000 A 
ENDBRANCH  15  17
ENDBRANCH   1  15
TORSDOF 3
ENDMDL
MODEL 5
REMARK VINA RESULT:      -7.8      0.287      1.058
REMARK  Name = 
REMARK  5 active torsions:
REMARK  status: ('A' for Active; 'I' for Inactive)
REMARK    1  A    between atoms: C_1  and  C_2
REMARK    2  A    between atoms: C_2  and  C_3
REMARK    3  A    between atoms: C_2  and  C_4
REMARK    4  A    between atoms: C_2  and  C_16
REMARK    5  A    between atoms: N_6  and  C_7
REMARK                            x       y       z     vdW  Elec       q    Type
REMARK                         _______ _______ _______ _____ _____    ______ ____
ROOT
ATOM      1  C   UNL     1       3.781   3.419  18.717  0.00  0.00    +0.000 C 
ATOM      2  O   UNL     1       4.499   2.518  19.138  0.00  0.00    +0.000 OA
ATOM      3  N   UNL     1       4.131   4.162  17.612  0.00  0.00    +0.000 N 
ATOM      4  H   UNL     1       3.593   4.995  17.410  0.00  0.00    +0.000 HD
ENDROOT
BRANCH   3   5
ATOM      5  C   UNL     1       5.398   3.989  16.923  0.00  0.00    +0.000 C 
ATOM      6  C   UNL     1       5.391   4.410  15.436  0.00  0.00    +0.000 C 
ATOM      7  O   UNL     1       6.155   5.628  15.254  0.00  0.00    +0.000 OA
ATOM      8  C   UNL     1       6.743   5.854  16.480  0.00  0.00    +0.000 A 
ATOM      9  N   UNL     1       7.521   6.928  16.668  0.00  0.00    +0.000 NA
ATOM     10  C   UNL     1       7.954   7.100  17.938  0.00  0.00    +0.000 A 
ATOM     11  C   UNL     1       7.648   6.244  18.995  0.00  0.00    +0.000 A 
ATOM     12  C   UNL     1       6.845   5.134  18.747  0.00  0.00    +0.000 A 
ATOM     13  C   UNL     1       6.380   4.956  17.456  0.00  0.00    +0.000 A 
ENDBRANCH   3   5
BRANCH   1  15
ATOM     14  C   UNL     1       1.328   2.980  18.681  0.00  0.00    +0.000 C 
ATOM     15  C   UNL     1       2.426   3.827  19.366  0.00  0.00    +0.000 C 
ATOM     16  C   UNL     1       2.450   3.456  20.861  0.00  0.00    +0.000 C 
BRANCH  15  17
ATOM     17  C   UNL     1       2.169   5.347  19.276  0.00  0.00    +0.000 A 
ATOM     18  C   UNL     1       1.888   6.118  20.423  0.00  0.00    +0.000 A 
ATOM     19  C   UNL     1       1.750   7.507  20.348  0.00  0.00    +0.000 A 
ATOM     20  C   UNL     1       1.895   8.155  19.126  0.00  0.00    +0.000 A 
ATOM     21 CL   UNL     1       1.760   9.867  19.042  0.00  0.00    +0.000 Cl
ATOM     22  C   UNL     1       2.172   7.421  17.978  0.00  0.00    +0.000 A 
ATOM     23  C   UNL     1       2.313   6.030  18.056  0.00  0.00    +0.000 A 
ENDBRANCH  15  17
ENDBRANCH   1  15
TORSDOF 3
ENDMDL
MODEL 6
REMARK VINA RESULT:      -7.6      3.160      6.418
REMARK  Name = 
REMARK  5 active torsions:
REMARK  status: ('A' for Active; 'I' for Inactive)
REMARK    1  A    between atoms: C_1  and  C_2
REMARK    2  A    between atoms: C_2  and  C_3
REMARK    3  A    between atoms: C_2  and  C_4
REMARK    4  A    between atoms: C_2  and  C_16
REMARK    5  A    between atoms: N_6  and  C_7
REMARK                            x       y       z     vdW  Elec       q    Type
REMARK                         _______ _______ _______ _____ _____    ______ ____
ROOT
ATOM      1  C   UNL     1       5.459   5.333  18.587  0.00  0.00    +0.000 C 
ATOM      2  O   UNL     1       6.206   4.490  19.075  0.00  0.00    +0.000 OA
ATOM      3  N   UNL     1       4.184   5.529  19.068  0.00  0.00    +0.000 N 
ATOM      4  H   UNL     1       3.558   6.112  18.527  0.00  0.00    +0.000 HD
ENDROOT
BRANCH   3   5
ATOM      5  C   UNL     1       3.609   4.709  20.120  0.00  0.00    +0.000 C 
ATOM      6  C   UNL     1       2.485   5.388  20.932  0.00  0.00    +0.000 C 
ATOM      7  O   UNL     1       1.202   4.796  20.609  0.00  0.00    +0.000 OA
ATOM      8  C   UNL     1       1.510   3.720  19.804  0.00  0.00    +0.000 A 
ATOM      9  N   UNL     1       0.535   2.948  19.307  0.00  0.00    +0.000 NA
ATOM     10  C   UNL     1       0.952   1.990  18.448  0.00  0.00    +0.000 A 
ATOM     11  C   UNL     1       2.285   1.780  18.091  0.00  0.00    +0.000 A 
ATOM     12  C   UNL     1       3.263   2.601  18.645  0.00  0.00    +0.000 A 
ATOM     13  C   UNL     1       2.848   3.598  19.511  0.00  0.00    +0.000 A 
ENDBRANCH   3   5
BRANCH   1  15
ATOM     14  C   UNL     1       4.815   7.403  17.360  0.00  0.00    +0.000 C 
ATOM     15  C   UNL     1       5.848   6.253  17.394  0.00  0.00    +0.000 C 
ATOM     16  C   UNL     1       7.235   6.868  17.662  0.00  0.00    +0.000 C 
BRANCH  15  17
ATOM     17  C   UNL     1       5.942   5.476  16.063  0.00  0.00    +0.000 A 
ATOM     18  C   UNL     1       7.044   5.626  15.195  0.00  0.00    +0.000 A 
ATOM     19  C   UNL     1       7.168   4.850  14.040  0.00  0.00    +0.000 A 
ATOM     20  C   UNL     1       6.195   3.906  13.727  0.00  0.00    +0.000 A 
ATOM     21 CL   UNL     1       6.368   2.929  12.323  0.00  0.00    +0.000 Cl
ATOM     22  C   UNL     1       5.097   3.737  14.563  0.00  0.00    +0.000 A 
ATOM     23  C   UNL     1       4.976   4.512  15.723  0.00  0.00    +0.000 A 
ENDBRANCH  15  17
ENDBRANCH   1  15
TORSDOF 3
ENDMDL
MODEL 7
REMARK VINA RESULT:      -7.5      2.989      6.186
REMARK  Name = 
REMARK  5 active torsions:
REMARK  status: ('A' for Active; 'I' for Inactive)
REMARK    1  A    between atoms: C_1  and  C_2
REMARK    2  A    between atoms: C_2  and  C_3
REMARK    3  A    between atoms: C_2  and  C_4
REMARK    4  A    between atoms: C_2  and  C_16
REMARK    5  A    between atoms: N_6  and  C_7
REMARK                            x       y       z     vdW  Elec       q    Type
REMARK                         _______ _______ _______ _____ _____    ______ ____
ROOT
ATOM      1  C   UNL     1       6.088   5.429  18.756  0.00  0.00    +0.000 C 
ATOM      2  O   UNL     1       6.239   5.092  19.925  0.00  0.00    +0.000 OA
ATOM      3  N   UNL     1       4.853   5.782  18.262  0.00  0.00    +0.000 N 
ATOM      4  H   UNL     1       4.754   5.888  17.261  0.00  0.00    +0.000 HD
ENDROOT
BRANCH   3   5
ATOM      5  C   UNL     1       3.640   5.703  19.059  0.00  0.00    +0.000 C 
ATOM      6  C   UNL     1       2.453   6.530  18.520  0.00  0.00    +0.000 C 
ATOM      7  O   UNL     1       1.430   5.655  17.984  0.00  0.00    +0.000 OA
ATOM      8  C   UNL     1       1.850   4.385  18.322  0.00  0.00    +0.000 A 
ATOM      9  N   UNL     1       1.129   3.317  17.959  0.00  0.00    +0.000 NA
ATOM     10  C   UNL     1       1.695   2.124  18.252  0.00  0.00    +0.000 A 
ATOM     11  C   UNL     1       2.925   1.974  18.893  0.00  0.00    +0.000 A 
ATOM     12  C   UNL     1       3.631   3.115  19.261  0.00  0.00    +0.000 A 
ATOM     13  C   UNL     1       3.072   4.343  18.950  0.00  0.00    +0.000 A 
ENDBRANCH   3   5
BRANCH   1  15
ATOM     14  C   UNL     1       7.756   6.951  17.701  0.00  0.00    +0.000 C 
ATOM     15  C   UNL     1       7.241   5.493  17.713  0.00  0.00    +0.000 C 
ATOM     16  C   UNL     1       8.395   4.585  18.179  0.00  0.00    +0.000 C 
BRANCH  15  17
ATOM     17  C   UNL     1       6.799   4.990  16.321  0.00  0.00    +0.000 A 
ATOM     18  C   UNL     1       7.402   5.464  15.137  0.00  0.00    +0.000 A 
ATOM     19  C   UNL     1       7.063   4.936  13.889  0.00  0.00    +0.000 A 
ATOM     20  C   UNL     1       6.116   3.920  13.796  0.00  0.00    +0.000 A 
ATOM     21 CL   UNL     1       5.727   3.248  12.263  0.00  0.00    +0.000 Cl
ATOM     22  C   UNL     1       5.505   3.433  14.947  0.00  0.00    +0.000 A 
ATOM     23  C   UNL     1       5.849   3.961  16.197  0.00  0.00    +0.000 A 
ENDBRANCH  15  17
ENDBRANCH   1  15
TORSDOF 3
ENDMDL
MODEL 8
REMARK VINA RESULT:      -7.5      2.962      6.211
REMARK  Name = 
REMARK  5 active torsions:
REMARK  status: ('A' for Active; 'I' for Inactive)
REMARK    1  A    between atoms: C_1  and  C_2
REMARK    2  A    between atoms: C_2  and  C_3
REMARK    3  A    between atoms: C_2  and  C_4
REMARK    4  A    between atoms: C_2  and  C_16
REMARK    5  A    between atoms: N_6  and  C_7
REMARK                            x       y       z     vdW  Elec       q    Type
REMARK                         _______ _______ _______ _____ _____    ______ ____
ROOT
ATOM      1  C   UNL     1       6.105   5.435  18.776  0.00  0.00    +0.000 C 
ATOM      2  O   UNL     1       6.233   5.103  19.950  0.00  0.00    +0.000 OA
ATOM      3  N   UNL     1       4.881   5.796  18.260  0.00  0.00    +0.000 N 
ATOM      4  H   UNL     1       4.799   5.896  17.257  0.00  0.00    +0.000 HD
ENDROOT
BRANCH   3   5
ATOM      5  C   UNL     1       3.655   5.732  19.037  0.00  0.00    +0.000 C 
ATOM      6  C   UNL     1       2.480   6.557  18.467  0.00  0.00    +0.000 C 
ATOM      7  O   UNL     1       1.462   5.678  17.926  0.00  0.00    +0.000 OA
ATOM      8  C   UNL     1       1.872   4.411  18.288  0.00  0.00    +0.000 A 
ATOM      9  N   UNL     1       1.152   3.341  17.928  0.00  0.00    +0.000 NA
ATOM     10  C   UNL     1       1.708   2.150  18.247  0.00  0.00    +0.000 A 
ATOM     11  C   UNL     1       2.926   2.004  18.911  0.00  0.00    +0.000 A 
ATOM     12  C   UNL     1       3.631   3.148  19.275  0.00  0.00    +0.000 A 
ATOM     13  C   UNL     1       3.083   4.373  18.937  0.00  0.00    +0.000 A 
ENDBRANCH   3   5
BRANCH   1  15
ATOM     14  C   UNL     1       7.729   6.957  17.657  0.00  0.00    +0.000 C 
ATOM     15  C   UNL     1       7.275   5.482  17.752  0.00  0.00    +0.000 C 
ATOM     16  C   UNL     1       8.456   4.655  18.296  0.00  0.00    +0.000 C 
BRANCH  15  17
ATOM     17  C   UNL     1       6.883   4.873  16.388  0.00  0.00    +0.000 A 
ATOM     18  C   UNL     1       5.882   3.886  16.279  0.00  0.00    +0.000 A 
ATOM     19  C   UNL     1       5.466   3.408  15.033  0.00  0.00    +0.000 A 
ATOM     20  C   UNL     1       6.039   3.910  13.869  0.00  0.00    +0.000 A 
ATOM     21 CL   UNL     1       5.501   3.347  12.336  0.00  0.00    +0.000 Cl
ATOM     22  C   UNL     1       7.029   4.884  13.945  0.00  0.00    +0.000 A 
ATOM     23  C   UNL     1       7.442   5.364  15.194  0.00  0.00    +0.000 A 
ENDBRANCH  15  17
ENDBRANCH   1  15
TORSDOF 3
ENDMDL
MODEL 9
REMARK VINA RESULT:      -7.4      1.194      1.657
REMARK  Name = 
REMARK  5 active torsions:
REMARK  status: ('A' for Active; 'I' for Inactive)
REMARK    1  A    between atoms: C_1  and  C_2
REMARK    2  A    between atoms: C_2  and  C_3
REMARK    3  A    between atoms: C_2  and  C_4
REMARK    4  A    between atoms: C_2  and  C_16
REMARK    5  A    between atoms: N_6  and  C_7
REMARK                            x       y       z     vdW  Elec       q    Type
REMARK                         _______ _______ _______ _____ _____    ______ ____
ROOT
ATOM      1  C   UNL     1       4.214   3.655  17.588  0.00  0.00    +0.000 C 
ATOM      2  O   UNL     1       4.027   3.539  16.382  0.00  0.00    +0.000 OA
ATOM      3  N   UNL     1       5.433   4.048  18.093  0.00  0.00    +0.000 N 
ATOM      4  H   UNL     1       5.583   3.965  19.090  0.00  0.00    +0.000 HD
ENDROOT
BRANCH   3   5
ATOM      5  C   UNL     1       6.594   4.271  17.249  0.00  0.00    +0.000 C 
ATOM      6  C   UNL     1       6.272   4.680  15.794  0.00  0.00    +0.000 C 
ATOM      7  O   UNL     1       6.606   6.073  15.576  0.00  0.00    +0.000 OA
ATOM      8  C   UNL     1       7.252   6.459  16.732  0.00  0.00    +0.000 A 
ATOM      9  N   UNL     1       7.691   7.716  16.873  0.00  0.00    +0.000 NA
ATOM     10  C   UNL     1       8.211   8.003  18.088  0.00  0.00    +0.000 A 
ATOM     11  C   UNL     1       8.314   7.087  19.135  0.00  0.00    +0.000 A 
ATOM     12  C   UNL     1       7.855   5.788  18.935  0.00  0.00    +0.000 A 
ATOM     13  C   UNL     1       7.303   5.486  17.703  0.00  0.00    +0.000 A 
ENDBRANCH   3   5
BRANCH   1  15
ATOM     14  C   UNL     1       2.060   2.474  18.007  0.00  0.00    +0.000 C 
ATOM     15  C   UNL     1       3.129   3.376  18.668  0.00  0.00    +0.000 C 
ATOM     16  C   UNL     1       3.764   2.587  19.830  0.00  0.00    +0.000 C 
BRANCH  15  17
ATOM     17  C   UNL     1       2.548   4.677  19.264  0.00  0.00    +0.000 A 
ATOM     18  C   UNL     1       1.860   4.684  20.495  0.00  0.00    +0.000 A 
ATOM     19  C   UNL     1       1.420   5.878  21.073  0.00  0.00    +0.000 A 
ATOM     20  C   UNL     1       1.662   7.091  20.435  0.00  0.00    +0.000 A 
ATOM     21 CL   UNL     1       1.150   8.561  21.166  0.00  0.00    +0.000 Cl
ATOM     22  C   UNL     1       2.338   7.114  19.220  0.00  0.00    +0.000 A 
ATOM     23  C   UNL     1       2.781   5.918  18.644  0.00  0.00    +0.000 A 
ENDBRANCH  15  17
ENDBRANCH   1  15
TORSDOF 3
ENDMDL
