MODEL 1
REMARK VINA RESULT:      -7.9      0.000      0.000
REMARK  Name = 
REMARK  5 active torsions:
REMARK  status: ('A' for Active; 'I' for Inactive)
REMARK    1  A    between atoms: C_1  and  C_2
REMARK    2  A    between atoms: C_2  and  C_3
REMARK    3  A    between atoms: C_2  and  C_4
REMARK    4  A    between atoms: C_4  and  C_5
REMARK    5  A    between atoms: C_10  and  C_11
REMARK                            x       y       z     vdW  Elec       q    Type
REMARK                         _______ _______ _______ _____ _____    ______ ____
ROOT
ATOM      1  C   UNL     1       4.469   5.816  17.112  0.00  0.00    +0.000 A 
ATOM      2  C   UNL     1       3.752   6.985  17.242  0.00  0.00    +0.000 A 
ATOM      3  N   UNL     1       2.978   6.959  18.394  0.00  0.00    +0.000 N 
ATOM      4  C   UNL     1       2.211   8.035  18.900  0.00  0.00    +0.000 A 
ATOM      5  N   UNL     1       1.597   8.043  20.065  0.00  0.00    +0.000 NA
ATOM      6  C   UNL     1       0.961   9.282  20.255  0.00  0.00    +0.000 A 
ATOM      7  C   UNL     1       1.090  10.153  19.187  0.00  0.00    +0.000 A 
ATOM      8  S   UNL     1       2.062   9.460  17.967  0.00  0.00    +0.000 S 
ATOM      9  C   UNL     1       3.128   5.684  18.957  0.00  0.00    +0.000 A 
ATOM     10  C   UNL     1       2.538   5.094  20.096  0.00  0.00    +0.000 A 
ATOM     11  C   UNL     1       2.879   3.776  20.420  0.00  0.00    +0.000 A 
ATOM     12 CL   UNL     1       2.160   3.030  21.796  0.00  0.00    +0.000 Cl
ATOM     13  C   UNL     1       3.782   3.054  19.652  0.00  0.00    +0.000 A 
ATOM     14  C   UNL     1       4.373   3.641  18.530  0.00  0.00    +0.000 A 
ATOM     15  C   UNL     1       4.042   4.965  18.169  0.00  0.00    +0.000 A 
ENDROOT
BRANCH   6  16
ATOM     16  C   UNL     1       0.245   9.564  21.497  0.00  0.00    +0.000 C 
ATOM     17  N   UNL     1       0.363  10.712  22.072  0.00  0.00    +0.000 NA
ATOM     18  N   UNL     1      -0.556   8.588  22.000  0.00  0.00    +0.000 N 
ATOM     19  H   UNL     1       1.014  11.275  21.504  0.00  0.00    +0.000 HD
ATOM     20  H   UNL     1      -1.026   7.982  21.343  0.00  0.00    +0.000 HD
ATOM     21  H   UNL     1      -1.188   8.962  22.702  0.00  0.00    +0.000 HD
ENDBRANCH   6  16
BRANCH   1  22
ATOM     22  C   UNL     1       5.511   5.540  16.070  0.00  0.00    +0.000 C 
BRANCH  22  24
ATOM     23  C   UNL     1       7.000   7.032  17.503  0.00  0.00    +0.000 C 
ATOM     24  C   UNL     1       6.945   5.815  16.574  0.00  0.00    +0.000 C 
ATOM     25  C   UNL     1       7.503   4.588  17.296  0.00  0.00    +0.000 C 
ENDBRANCH  22  24
ENDBRANCH   1  22
TORSDOF 3
ENDMDL
MODEL 2
REMARK VINA RESULT:      -7.9      0.832      1.291
REMARK  Name = 
REMARK  5 active torsions:
REMARK  status: ('A' for Active; 'I' for Inactive)
REMARK    1  A    between atoms: C_1  and  C_2
REMARK    2  A    between atoms: C_2  and  C_3
REMARK    3  A    between atoms: C_2  and  C_4
REMARK    4  A    between atoms: C_4  and  C_5
REMARK    5  A    between atoms: C_10  and  C_11
REMARK                            x       y       z     vdW  Elec       q    Type
REMARK                         _______ _______ _______ _____ _____    ______ ____
ROOT
ATOM      1  C   UNL     1       3.987   6.519  17.428  0.00  0.00    +0.000 A 
ATOM      2  C   UNL     1       3.223   7.634  17.686  0.00  0.00    +0.000 A 
ATOM      3  N   UNL     1       2.469   7.456  18.838  0.00  0.00    +0.000 N 
ATOM      4  C   UNL     1       1.663   8.439  19.460  0.00  0.00    +0.000 A 
ATOM      5  N   UNL     1       1.068   8.300  20.627  0.00  0.00    +0.000 NA
ATOM      6  C   UNL     1       0.382   9.483  20.951  0.00  0.00    +0.000 A 
ATOM      7  C   UNL     1       0.457  10.464  19.977  0.00  0.00    +0.000 A 
ATOM      8  S   UNL     1       1.438   9.944  18.681  0.00  0.00    +0.000 S 
ATOM      9  C   UNL     1       2.683   6.138  19.264  0.00  0.00    +0.000 A 
ATOM     10  C   UNL     1       2.137   5.408  20.343  0.00  0.00    +0.000 A 
ATOM     11  C   UNL     1       2.540   4.081  20.525  0.00  0.00    +0.000 A 
ATOM     12 CL   UNL     1       1.876   3.166  21.825  0.00  0.00    +0.000 Cl
ATOM     13  C   UNL     1       3.461   3.483  19.676  0.00  0.00    +0.000 A 
ATOM     14  C   UNL     1       4.009   4.207  18.615  0.00  0.00    +0.000 A 
ATOM     15  C   UNL     1       3.615   5.545  18.396  0.00  0.00    +0.000 A 
ENDROOT
BRANCH   6  16
ATOM     16  C   UNL     1      -0.326   9.604  22.223  0.00  0.00    +0.000 C 
ATOM     17  N   UNL     1      -0.736   8.552  22.845  0.00  0.00    +0.000 NA
ATOM     18  N   UNL     1      -0.511  10.853  22.726  0.00  0.00    +0.000 N 
ATOM     19  H   UNL     1      -0.477   7.735  22.271  0.00  0.00    +0.000 HD
ATOM     20  H   UNL     1       0.206  11.542  22.547  0.00  0.00    +0.000 HD
ATOM     21  H   UNL     1      -0.776  10.815  23.706  0.00  0.00    +0.000 HD
ENDBRANCH   6  16
BRANCH   1  22
ATOM     22  C   UNL     1       5.024   6.398  16.351  0.00  0.00    +0.000 C 
BRANCH  22  24
ATOM     23  C   UNL     1       7.101   5.016  15.824  0.00  0.00    +0.000 C 
ATOM     24  C   UNL     1       6.370   5.853  16.879  0.00  0.00    +0.000 C 
ATOM     25  C   UNL     1       7.267   7.001  17.341  0.00  0.00    +0.000 C 
ENDBRANCH  22  24
ENDBRANCH   1  22
TORSDOF 3
ENDMDL
MODEL 3
REMARK VINA RESULT:      -7.8      0.928      1.132
REMARK  Name = 
REMARK  5 active torsions:
REMARK  status: ('A' for Active; 'I' for Inactive)
REMARK    1  A    between atoms: C_1  and  C_2
REMARK    2  A    between atoms: C_2  and  C_3
REMARK    3  A    between atoms: C_2  and  C_4
REMARK    4  A    between atoms: C_4  and  C_5
REMARK    5  A    between atoms: C_10  and  C_11
REMARK                            x       y       z     vdW  Elec       q    Type
REMARK                         _______ _______ _______ _____ _____    ______ ____
ROOT
ATOM      1  C   UNL     1       4.163   4.700  17.241  0.00  0.00    +0.000 A 
ATOM      2  C   UNL     1       3.641   5.972  17.300  0.00  0.00    +0.000 A 
ATOM      3  N   UNL     1       2.881   6.137  18.452  0.00  0.00    +0.000 N 
ATOM      4  C   UNL     1       2.297   7.347  18.892  0.00  0.00    +0.000 A 
ATOM      5  N   UNL     1       1.701   7.521  20.054  0.00  0.00    +0.000 NA
ATOM      6  C   UNL     1       1.269   8.853  20.169  0.00  0.00    +0.000 A 
ATOM      7  C   UNL     1       1.526   9.629  19.052  0.00  0.00    +0.000 A 
ATOM      8  S   UNL     1       2.366   8.721  17.876  0.00  0.00    +0.000 S 
ATOM      9  C   UNL     1       2.833   4.889  19.088  0.00  0.00    +0.000 A 
ATOM     10  C   UNL     1       2.167   4.467  20.259  0.00  0.00    +0.000 A 
ATOM     11  C   UNL     1       2.298   3.133  20.661  0.00  0.00    +0.000 A 
ATOM     12 CL   UNL     1       1.482   2.591  22.077  0.00  0.00    +0.000 Cl
ATOM     13  C   UNL     1       3.070   2.234  19.938  0.00  0.00    +0.000 A 
ATOM     14  C   UNL     1       3.738   2.653  18.784  0.00  0.00    +0.000 A 
ATOM     15  C   UNL     1       3.617   3.990  18.346  0.00  0.00    +0.000 A 
ENDROOT
BRANCH   6  16
ATOM     16  C   UNL     1       0.616   9.317  21.391  0.00  0.00    +0.000 C 
ATOM     17  N   UNL     1       1.009  10.399  21.970  0.00  0.00    +0.000 NA
ATOM     18  N   UNL     1      -0.421   8.581  21.872  0.00  0.00    +0.000 N 
ATOM     19  H   UNL     1       1.798  10.774  21.420  0.00  0.00    +0.000 HD
ATOM     20  H   UNL     1      -1.012   8.111  21.201  0.00  0.00    +0.000 HD
ATOM     21  H   UNL     1      -0.954   9.108  22.556  0.00  0.00    +0.000 HD
ENDBRANCH   6  16
BRANCH   1  22
ATOM     22  C   UNL     1       5.141   4.203  16.218  0.00  0.00    +0.000 C 
BRANCH  22  24
ATOM     23  C   UNL     1       7.425   4.641  17.263  0.00  0.00    +0.000 C 
ATOM     24  C   UNL     1       6.432   5.048  16.169  0.00  0.00    +0.000 C 
ATOM     25  C   UNL     1       7.098   4.930  14.797  0.00  0.00    +0.000 C 
ENDBRANCH  22  24
ENDBRANCH   1  22
TORSDOF 3
ENDMDL
MODEL 4
REMARK VINA RESULT:      -7.6      0.852      1.180
REMARK  Name = 
REMARK  5 active torsions:
REMARK  status: ('A' for Active; 'I' for Inactive)
REMARK    1  A    between atoms: C_1  and  C_2
REMARK    2  A    between atoms: C_2  and  C_3
REMARK    3  A    between atoms: C_2  and  C_4
REMARK    4  A    between atoms: C_4  and  C_5
REMARK    5  A    between atoms: C_10  and  C_11
REMARK                            x       y       z     vdW  Elec       q    Type
REMARK                         _______ _______ _______ _____ _____    ______ ____
ROOT
ATOM      1  C   UNL     1       4.261   6.035  17.060  0.00  0.00    +0.000 A 
ATOM      2  C   UNL     1       3.517   7.147  17.383  0.00  0.00    +0.000 A 
ATOM      3  N   UNL     1       2.874   6.970  18.601  0.00  0.00    +0.000 N 
ATOM      4  C   UNL     1       2.123   7.951  19.291  0.00  0.00    +0.000 A 
ATOM      5  N   UNL     1       1.640   7.814  20.509  0.00  0.00    +0.000 NA
ATOM      6  C   UNL     1       0.979   8.994  20.890  0.00  0.00    +0.000 A 
ATOM      7  C   UNL     1       0.957   9.972  19.909  0.00  0.00    +0.000 A 
ATOM      8  S   UNL     1       1.817   9.451  18.530  0.00  0.00    +0.000 S 
ATOM      9  C   UNL     1       3.135   5.655  19.011  0.00  0.00    +0.000 A 
ATOM     10  C   UNL     1       2.696   4.928  20.139  0.00  0.00    +0.000 A 
ATOM     11  C   UNL     1       3.121   3.604  20.288  0.00  0.00    +0.000 A 
ATOM     12 CL   UNL     1       2.586   2.691  21.647  0.00  0.00    +0.000 Cl
ATOM     13  C   UNL     1       3.964   3.006  19.360  0.00  0.00    +0.000 A 
ATOM     14  C   UNL     1       4.407   3.729  18.249  0.00  0.00    +0.000 A 
ATOM     15  C   UNL     1       3.986   5.064  18.063  0.00  0.00    +0.000 A 
ENDROOT
BRANCH   6  16
ATOM     16  C   UNL     1       0.391   9.118  22.222  0.00  0.00    +0.000 C 
ATOM     17  N   UNL     1       1.032   9.718  23.165  0.00  0.00    +0.000 NA
ATOM     18  N   UNL     1      -0.850   8.599  22.415  0.00  0.00    +0.000 N 
ATOM     19  H   UNL     1       1.938  10.023  22.776  0.00  0.00    +0.000 HD
ATOM     20  H   UNL     1      -1.496   8.627  21.638  0.00  0.00    +0.000 HD
ATOM     21  H   UNL     1      -1.262   8.952  23.273  0.00  0.00    +0.000 HD
ENDBRANCH   6  16
BRANCH   1  22
ATOM     22  C   UNL     1       5.194   5.915  15.893  0.00  0.00    +0.000 C 
BRANCH  22  24
ATOM     23  C   UNL     1       5.969   3.987  14.416  0.00  0.00    +0.000 C 
ATOM     24  C   UNL     1       5.910   4.547  15.840  0.00  0.00    +0.000 C 
ATOM     25  C   UNL     1       7.324   4.661  16.409  0.00  0.00    +0.000 C 
ENDBRANCH  22  24
ENDBRANCH   1  22
TORSDOF 3
ENDMDL
MODEL 5
REMARK VINA RESULT:      -7.1      2.561      4.388
REMARK  Name = 
REMARK  5 active torsions:
REMARK  status: ('A' for Active; 'I' for Inactive)
REMARK    1  A    between atoms: C_1  and  C_2
REMARK    2  A    between atoms: C_2  and  C_3
REMARK    3  A    between atoms: C_2  and  C_4
REMARK    4  A    between atoms: C_4  and  C_5
REMARK    5  A    between atoms: C_10  and  C_11
REMARK                            x       y       z     vdW  Elec       q    Type
REMARK                         _______ _______ _______ _____ _____    ______ ____
ROOT
ATOM      1  C   UNL     1       2.544   4.696  20.427  0.00  0.00    +0.000 A 
ATOM      2  C   UNL     1       1.963   5.871  20.850  0.00  0.00    +0.000 A 
ATOM      3  N   UNL     1       2.176   6.883  19.924  0.00  0.00    +0.000 N 
ATOM      4  C   UNL     1       1.624   8.184  19.978  0.00  0.00    +0.000 A 
ATOM      5  N   UNL     1       1.719   9.087  19.023  0.00  0.00    +0.000 NA
ATOM      6  C   UNL     1       1.026  10.249  19.401  0.00  0.00    +0.000 A 
ATOM      7  C   UNL     1       0.463  10.186  20.664  0.00  0.00    +0.000 A 
ATOM      8  S   UNL     1       0.738   8.654  21.363  0.00  0.00    +0.000 S 
ATOM      9  C   UNL     1       3.015   6.357  18.932  0.00  0.00    +0.000 A 
ATOM     10  C   UNL     1       3.588   6.951  17.786  0.00  0.00    +0.000 A 
ATOM     11  C   UNL     1       4.405   6.168  16.964  0.00  0.00    +0.000 A 
ATOM     12 CL   UNL     1       5.128   6.875  15.569  0.00  0.00    +0.000 Cl
ATOM     13  C   UNL     1       4.650   4.832  17.250  0.00  0.00    +0.000 A 
ATOM     14  C   UNL     1       4.075   4.241  18.378  0.00  0.00    +0.000 A 
ATOM     15  C   UNL     1       3.255   5.006  19.235  0.00  0.00    +0.000 A 
ENDROOT
BRANCH   6  16
ATOM     16  C   UNL     1       0.939  11.389  18.490  0.00  0.00    +0.000 C 
ATOM     17  N   UNL     1      -0.196  11.951  18.254  0.00  0.00    +0.000 NA
ATOM     18  N   UNL     1       2.093  11.838  17.930  0.00  0.00    +0.000 N 
ATOM     19  H   UNL     1      -0.911  11.438  18.793  0.00  0.00    +0.000 HD
ATOM     20  H   UNL     1       2.939  11.767  18.477  0.00  0.00    +0.000 HD
ATOM     21  H   UNL     1       1.967  12.762  17.529  0.00  0.00    +0.000 HD
ENDBRANCH   6  16
BRANCH   1  22
ATOM     22  C   UNL     1       2.405   3.361  21.097  0.00  0.00    +0.000 C 
BRANCH  22  24
ATOM     23  C   UNL     1       0.426   3.118  19.508  0.00  0.00    +0.000 C 
ATOM     24  C   UNL     1       1.515   2.384  20.297  0.00  0.00    +0.000 C 
ATOM     25  C   UNL     1       2.365   1.542  19.346  0.00  0.00    +0.000 C 
ENDBRANCH  22  24
ENDBRANCH   1  22
TORSDOF 3
ENDMDL
MODEL 6
REMARK VINA RESULT:      -7.1      0.838      1.195
REMARK  Name = 
REMARK  5 active torsions:
REMARK  status: ('A' for Active; 'I' for Inactive)
REMARK    1  A    between atoms: C_1  and  C_2
REMARK    2  A    between atoms: C_2  and  C_3
REMARK    3  A    between atoms: C_2  and  C_4
REMARK    4  A    between atoms: C_4  and  C_5
REMARK    5  A    between atoms: C_10  and  C_11
REMARK                            x       y       z     vdW  Elec       q    Type
REMARK                         _______ _______ _______ _____ _____    ______ ____
ROOT
ATOM      1  C   UNL     1       4.806   5.877  17.463  0.00  0.00    +0.000 A 
ATOM      2  C   UNL     1       4.058   7.033  17.450  0.00  0.00    +0.000 A 
ATOM      3  N   UNL     1       3.102   7.010  18.457  0.00  0.00    +0.000 N 
ATOM      4  C   UNL     1       2.243   8.077  18.807  0.00  0.00    +0.000 A 
ATOM      5  N   UNL     1       1.442   8.092  19.854  0.00  0.00    +0.000 NA
ATOM      6  C   UNL     1       0.762   9.320  19.912  0.00  0.00    +0.000 A 
ATOM      7  C   UNL     1       1.055  10.178  18.864  0.00  0.00    +0.000 A 
ATOM      8  S   UNL     1       2.228   9.485  17.837  0.00  0.00    +0.000 S 
ATOM      9  C   UNL     1       3.177   5.746  19.060  0.00  0.00    +0.000 A 
ATOM     10  C   UNL     1       2.415   5.162  20.095  0.00  0.00    +0.000 A 
ATOM     11  C   UNL     1       2.718   3.857  20.495  0.00  0.00    +0.000 A 
ATOM     12 CL   UNL     1       1.792   3.117  21.744  0.00  0.00    +0.000 Cl
ATOM     13  C   UNL     1       3.749   3.141  19.902  0.00  0.00    +0.000 A 
ATOM     14  C   UNL     1       4.511   3.722  18.884  0.00  0.00    +0.000 A 
ATOM     15  C   UNL     1       4.223   5.034  18.449  0.00  0.00    +0.000 A 
ENDROOT
BRANCH   6  16
ATOM     16  C   UNL     1      -0.156   9.607  21.011  0.00  0.00    +0.000 C 
ATOM     17  N   UNL     1      -0.672  10.781  21.141  0.00  0.00    +0.000 NA
ATOM     18  N   UNL     1      -0.457   8.593  21.864  0.00  0.00    +0.000 N 
ATOM     19  H   UNL     1      -0.297  11.368  20.379  0.00  0.00    +0.000 HD
ATOM     20  H   UNL     1      -0.493   7.657  21.485  0.00  0.00    +0.000 HD
ATOM     21  H   UNL     1      -1.275   8.817  22.422  0.00  0.00    +0.000 HD
ENDBRANCH   6  16
BRANCH   1  22
ATOM     22  C   UNL     1       6.012   5.606  16.615  0.00  0.00    +0.000 C 
BRANCH  22  24
ATOM     23  C   UNL     1       6.711   5.100  14.216  0.00  0.00    +0.000 C 
ATOM     24  C   UNL     1       5.667   4.855  15.310  0.00  0.00    +0.000 C 
ATOM     25  C   UNL     1       5.537   3.355  15.575  0.00  0.00    +0.000 C 
ENDBRANCH  22  24
ENDBRANCH   1  22
TORSDOF 3
ENDMDL
MODEL 7
REMARK VINA RESULT:      -6.9      2.587      4.435
REMARK  Name = 
REMARK  5 active torsions:
REMARK  status: ('A' for Active; 'I' for Inactive)
REMARK    1  A    between atoms: C_1  and  C_2
REMARK    2  A    between atoms: C_2  and  C_3
REMARK    3  A    between atoms: C_2  and  C_4
REMARK    4  A    between atoms: C_4  and  C_5
REMARK    5  A    between atoms: C_10  and  C_11
REMARK                            x       y       z     vdW  Elec       q    Type
REMARK                         _______ _______ _______ _____ _____    ______ ____
ROOT
ATOM      1  C   UNL     1       3.274   4.237  19.846  0.00  0.00    +0.000 A 
ATOM      2  C   UNL     1       2.635   5.336  20.375  0.00  0.00    +0.000 A 
ATOM      3  N   UNL     1       2.702   6.410  19.498  0.00  0.00    +0.000 N 
ATOM      4  C   UNL     1       2.056   7.657  19.666  0.00  0.00    +0.000 A 
ATOM      5  N   UNL     1       2.011   8.614  18.761  0.00  0.00    +0.000 NA
ATOM      6  C   UNL     1       1.259   9.694  19.252  0.00  0.00    +0.000 A 
ATOM      7  C   UNL     1       0.794   9.518  20.545  0.00  0.00    +0.000 A 
ATOM      8  S   UNL     1       1.237   7.978  21.132  0.00  0.00    +0.000 S 
ATOM      9  C   UNL     1       3.506   6.008  18.422  0.00  0.00    +0.000 A 
ATOM     10  C   UNL     1       3.948   6.707  17.278  0.00  0.00    +0.000 A 
ATOM     11  C   UNL     1       4.762   6.038  16.358  0.00  0.00    +0.000 A 
ATOM     12 CL   UNL     1       5.325   6.875  14.962  0.00  0.00    +0.000 Cl
ATOM     13  C   UNL     1       5.130   4.713  16.548  0.00  0.00    +0.000 A 
ATOM     14  C   UNL     1       4.685   4.018  17.675  0.00  0.00    +0.000 A 
ATOM     15  C   UNL     1       3.872   4.667  18.629  0.00  0.00    +0.000 A 
ENDROOT
BRANCH   6  16
ATOM     16  C   UNL     1       1.019  10.870  18.418  0.00  0.00    +0.000 C 
ATOM     17  N   UNL     1       2.007  11.566  17.973  0.00  0.00    +0.000 NA
ATOM     18  N   UNL     1      -0.270  11.179  18.119  0.00  0.00    +0.000 N 
ATOM     19  H   UNL     1       2.874  11.134  18.329  0.00  0.00    +0.000 HD
ATOM     20  H   UNL     1      -0.923  10.416  18.012  0.00  0.00    +0.000 HD
ATOM     21  H   UNL     1      -0.317  11.839  17.349  0.00  0.00    +0.000 HD
ENDBRANCH   6  16
BRANCH   1  22
ATOM     22  C   UNL     1       3.288   2.861  20.444  0.00  0.00    +0.000 C 
BRANCH  22  24
ATOM     23  C   UNL     1       1.156   2.616  21.820  0.00  0.00    +0.000 C 
ATOM     24  C   UNL     1       1.880   2.233  20.525  0.00  0.00    +0.000 C 
ATOM     25  C   UNL     1       1.037   2.650  19.320  0.00  0.00    +0.000 C 
ENDBRANCH  22  24
ENDBRANCH   1  22
TORSDOF 3
ENDMDL
MODEL 8
REMARK VINA RESULT:      -6.8      0.797      1.377
REMARK  Name = 
REMARK  5 active torsions:
REMARK  status: ('A' for Active; 'I' for Inactive)
REMARK    1  A    between atoms: C_1  and  C_2
REMARK    2  A    between atoms: C_2  and  C_3
REMARK    3  A    between atoms: C_2  and  C_4
REMARK    4  A    between atoms: C_4  and  C_5
REMARK    5  A    between atoms: C_10  and  C_11
REMARK                            x       y       z     vdW  Elec       q    Type
REMARK                         _______ _______ _______ _____ _____    ______ ____
ROOT
ATOM      1  C   UNL     1       4.928   6.059  17.467  0.00  0.00    +0.000 A 
ATOM      2  C   UNL     1       4.126   7.178  17.477  0.00  0.00    +0.000 A 
ATOM      3  N   UNL     1       3.175   7.090  18.485  0.00  0.00    +0.000 N 
ATOM      4  C   UNL     1       2.266   8.108  18.856  0.00  0.00    +0.000 A 
ATOM      5  N   UNL     1       1.468   8.064  19.903  0.00  0.00    +0.000 NA
ATOM      6  C   UNL     1       0.730   9.257  19.986  0.00  0.00    +0.000 A 
ATOM      7  C   UNL     1       0.978  10.148  18.955  0.00  0.00    +0.000 A 
ATOM      8  S   UNL     1       2.182   9.532  17.913  0.00  0.00    +0.000 S 
ATOM      9  C   UNL     1       3.311   5.820  19.063  0.00  0.00    +0.000 A 
ATOM     10  C   UNL     1       2.580   5.181  20.087  0.00  0.00    +0.000 A 
ATOM     11  C   UNL     1       2.946   3.884  20.462  0.00  0.00    +0.000 A 
ATOM     12 CL   UNL     1       2.059   3.077  21.698  0.00  0.00    +0.000 Cl
ATOM     13  C   UNL     1       4.009   3.229  19.854  0.00  0.00    +0.000 A 
ATOM     14  C   UNL     1       4.740   3.866  18.847  0.00  0.00    +0.000 A 
ATOM     15  C   UNL     1       4.388   5.170  18.437  0.00  0.00    +0.000 A 
ENDROOT
BRANCH   6  16
ATOM     16  C   UNL     1      -0.199   9.479  21.091  0.00  0.00    +0.000 C 
ATOM     17  N   UNL     1      -0.498   8.518  21.896  0.00  0.00    +0.000 NA
ATOM     18  N   UNL     1      -0.709  10.729  21.246  0.00  0.00    +0.000 N 
ATOM     19  H   UNL     1       0.012   7.679  21.576  0.00  0.00    +0.000 HD
ATOM     20  H   UNL     1      -0.120  11.511  20.995  0.00  0.00    +0.000 HD
ATOM     21  H   UNL     1      -1.128  10.840  22.165  0.00  0.00    +0.000 HD
ENDBRANCH   6  16
BRANCH   1  22
ATOM     22  C   UNL     1       6.145   5.862  16.612  0.00  0.00    +0.000 C 
BRANCH  22  24
ATOM     23  C   UNL     1       4.680   4.401  15.122  0.00  0.00    +0.000 C 
ATOM     24  C   UNL     1       6.066   4.583  15.750  0.00  0.00    +0.000 C 
ATOM     25  C   UNL     1       7.131   4.611  14.653  0.00  0.00    +0.000 C 
ENDBRANCH  22  24
ENDBRANCH   1  22
TORSDOF 3
ENDMDL
MODEL 9
REMARK VINA RESULT:      -6.7      5.141      7.280
REMARK  Name = 
REMARK  5 active torsions:
REMARK  status: ('A' for Active; 'I' for Inactive)
REMARK    1  A    between atoms: C_1  and  C_2
REMARK    2  A    between atoms: C_2  and  C_3
REMARK    3  A    between atoms: C_2  and  C_4
REMARK    4  A    between atoms: C_4  and  C_5
REMARK    5  A    between atoms: C_10  and  C_11
REMARK                            x       y       z     vdW  Elec       q    Type
REMARK                         _______ _______ _______ _____ _____    ______ ____
ROOT
ATOM      1  C   UNL     1       7.254   6.048  17.720  0.00  0.00    +0.000 A 
ATOM      2  C   UNL     1       7.594   5.811  16.407  0.00  0.00    +0.000 A 
ATOM      3  N   UNL     1       6.738   4.876  15.841  0.00  0.00    +0.000 N 
ATOM      4  C   UNL     1       6.723   4.484  14.481  0.00  0.00    +0.000 A 
ATOM      5  N   UNL     1       5.815   3.705  13.929  0.00  0.00    +0.000 NA
ATOM      6  C   UNL     1       6.092   3.555  12.560  0.00  0.00    +0.000 A 
ATOM      7  C   UNL     1       7.239   4.206  12.140  0.00  0.00    +0.000 A 
ATOM      8  S   UNL     1       7.945   5.064  13.436  0.00  0.00    +0.000 S 
ATOM      9  C   UNL     1       5.893   4.426  16.865  0.00  0.00    +0.000 A 
ATOM     10  C   UNL     1       4.873   3.449  16.867  0.00  0.00    +0.000 A 
ATOM     11  C   UNL     1       4.187   3.202  18.061  0.00  0.00    +0.000 A 
ATOM     12 CL   UNL     1       2.949   2.004  18.093  0.00  0.00    +0.000 Cl
ATOM     13  C   UNL     1       4.485   3.899  19.224  0.00  0.00    +0.000 A 
ATOM     14  C   UNL     1       5.487   4.873  19.219  0.00  0.00    +0.000 A 
ATOM     15  C   UNL     1       6.207   5.138  18.034  0.00  0.00    +0.000 A 
ENDROOT
BRANCH   6  16
ATOM     16  C   UNL     1       5.202   2.771  11.706  0.00  0.00    +0.000 C 
ATOM     17  N   UNL     1       4.083   3.265  11.302  0.00  0.00    +0.000 NA
ATOM     18  N   UNL     1       5.610   1.526  11.344  0.00  0.00    +0.000 N 
ATOM     19  H   UNL     1       4.001   4.212  11.702  0.00  0.00    +0.000 HD
ATOM     20  H   UNL     1       6.601   1.377  11.212  0.00  0.00    +0.000 HD
ATOM     21  H   UNL     1       5.059   1.174  10.567  0.00  0.00    +0.000 HD
ENDBRANCH   6  16
BRANCH   1  22
ATOM     22  C   UNL     1       7.864   7.092  18.607  0.00  0.00    +0.000 C 
BRANCH  22  24
ATOM     23  C   UNL     1       6.868   9.063  17.334  0.00  0.00    +0.000 C 
ATOM     24  C   UNL     1       8.151   8.414  17.861  0.00  0.00    +0.000 C 
ATOM     25  C   UNL     1       8.890   9.394  18.773  0.00  0.00    +0.000 C 
ENDBRANCH  22  24
ENDBRANCH   1  22
TORSDOF 3
ENDMDL
