MODEL 1
REMARK VINA RESULT:      -5.6      0.000      0.000
REMARK  Name = 
REMARK  1 active torsions:
REMARK  status: ('A' for Active; 'I' for Inactive)
REMARK    1  A    between atoms: N_4  and  C_5
REMARK                            x       y       z     vdW  Elec       q    Type
REMARK                         _______ _______ _______ _____ _____    ______ ____
ROOT
ATOM      1  N   UNL     1       7.052   5.028  18.922  0.00  0.00    +0.000 NA
ATOM      2  C   UNL     1       6.879   4.459  17.780  0.00  0.00    +0.000 C 
ATOM      3  N   UNL     1       7.909   4.330  16.913  0.00  0.00    +0.000 N 
ATOM      4  N   UNL     1       5.710   3.965  17.290  0.00  0.00    +0.000 N 
ATOM      5  H   UNL     1       8.023   5.306  19.045  0.00  0.00    +0.000 HD
ATOM      6  H   UNL     1       8.728   4.879  17.149  0.00  0.00    +0.000 HD
ATOM      7  H   UNL     1       7.668   4.462  15.939  0.00  0.00    +0.000 HD
ATOM      8  H   UNL     1       5.749   3.469  16.414  0.00  0.00    +0.000 HD
ENDROOT
BRANCH   4   9
ATOM      9  C   UNL     1       4.470   3.906  17.948  0.00  0.00    +0.000 A 
ATOM     10  C   UNL     1       3.499   4.874  17.657  0.00  0.00    +0.000 A 
ATOM     11  C   UNL     1       2.312   4.926  18.388  0.00  0.00    +0.000 A 
ATOM     12  C   UNL     1       2.124   3.990  19.390  0.00  0.00    +0.000 A 
ATOM     13 CL   UNL     1       0.713   4.013  20.363  0.00  0.00    +0.000 Cl
ATOM     14  N   UNL     1       3.004   3.026  19.698  0.00  0.00    +0.000 NA
ATOM     15  C   UNL     1       4.159   3.019  18.982  0.00  0.00    +0.000 A 
ENDBRANCH   4   9
TORSDOF 1
ENDMDL
MODEL 2
REMARK VINA RESULT:      -5.5      1.284      1.855
REMARK  Name = 
REMARK  1 active torsions:
REMARK  status: ('A' for Active; 'I' for Inactive)
REMARK    1  A    between atoms: N_4  and  C_5
REMARK                            x       y       z     vdW  Elec       q    Type
REMARK                         _______ _______ _______ _____ _____    ______ ____
ROOT
ATOM      1  N   UNL     1       5.774   4.543  16.237  0.00  0.00    +0.000 NA
ATOM      2  C   UNL     1       6.611   4.371  17.199  0.00  0.00    +0.000 C 
ATOM      3  N   UNL     1       7.942   4.355  16.959  0.00  0.00    +0.000 N 
ATOM      4  N   UNL     1       6.308   4.161  18.509  0.00  0.00    +0.000 N 
ATOM      5  H   UNL     1       6.261   4.681  15.354  0.00  0.00    +0.000 HD
ATOM      6  H   UNL     1       8.191   4.284  15.979  0.00  0.00    +0.000 HD
ATOM      7  H   UNL     1       8.467   3.681  17.503  0.00  0.00    +0.000 HD
ATOM      8  H   UNL     1       7.075   4.129  19.162  0.00  0.00    +0.000 HD
ENDROOT
BRANCH   4   9
ATOM      9  C   UNL     1       5.031   4.158  19.096  0.00  0.00    +0.000 A 
ATOM     10  C   UNL     1       4.369   2.936  19.278  0.00  0.00    +0.000 A 
ATOM     11  C   UNL     1       3.050   2.909  19.731  0.00  0.00    +0.000 A 
ATOM     12  C   UNL     1       2.430   4.116  20.003  0.00  0.00    +0.000 A 
ATOM     13 CL   UNL     1       0.797   4.170  20.520  0.00  0.00    +0.000 Cl
ATOM     14  N   UNL     1       3.020   5.313  19.872  0.00  0.00    +0.000 NA
ATOM     15  C   UNL     1       4.296   5.305  19.407  0.00  0.00    +0.000 A 
ENDBRANCH   4   9
TORSDOF 1
ENDMDL
MODEL 3
REMARK VINA RESULT:      -5.5      1.531      1.791
REMARK  Name = 
REMARK  1 active torsions:
REMARK  status: ('A' for Active; 'I' for Inactive)
REMARK    1  A    between atoms: N_4  and  C_5
REMARK                            x       y       z     vdW  Elec       q    Type
REMARK                         _______ _______ _______ _____ _____    ______ ____
ROOT
ATOM      1  N   UNL     1       7.834   4.223  17.102  0.00  0.00    +0.000 NA
ATOM      2  C   UNL     1       7.092   4.806  16.226  0.00  0.00    +0.000 C 
ATOM      3  N   UNL     1       7.607   5.194  15.037  0.00  0.00    +0.000 N 
ATOM      4  N   UNL     1       5.777   5.127  16.364  0.00  0.00    +0.000 N 
ATOM      5  H   UNL     1       8.780   4.098  16.750  0.00  0.00    +0.000 HD
ATOM      6  H   UNL     1       8.619   5.173  14.991  0.00  0.00    +0.000 HD
ATOM      7  H   UNL     1       7.259   6.078  14.688  0.00  0.00    +0.000 HD
ATOM      8  H   UNL     1       5.307   5.504  15.556  0.00  0.00    +0.000 HD
ENDROOT
BRANCH   4   9
ATOM      9  C   UNL     1       4.938   4.832  17.452  0.00  0.00    +0.000 A 
ATOM     10  C   UNL     1       3.987   3.811  17.319  0.00  0.00    +0.000 A 
ATOM     11  C   UNL     1       3.050   3.585  18.327  0.00  0.00    +0.000 A 
ATOM     12  C   UNL     1       3.101   4.386  19.455  0.00  0.00    +0.000 A 
ATOM     13 CL   UNL     1       1.957   4.201  20.718  0.00  0.00    +0.000 Cl
ATOM     14  N   UNL     1       4.001   5.360  19.648  0.00  0.00    +0.000 NA
ATOM     15  C   UNL     1       4.884   5.569  18.637  0.00  0.00    +0.000 A 
ENDBRANCH   4   9
TORSDOF 1
ENDMDL
MODEL 4
REMARK VINA RESULT:      -5.5      1.178      1.487
REMARK  Name = 
REMARK  1 active torsions:
REMARK  status: ('A' for Active; 'I' for Inactive)
REMARK    1  A    between atoms: N_4  and  C_5
REMARK                            x       y       z     vdW  Elec       q    Type
REMARK                         _______ _______ _______ _____ _____    ______ ____
ROOT
ATOM      1  N   UNL     1       5.754   4.120  16.131  0.00  0.00    +0.000 NA
ATOM      2  C   UNL     1       6.563   4.292  17.117  0.00  0.00    +0.000 C 
ATOM      3  N   UNL     1       7.870   4.557  16.896  0.00  0.00    +0.000 N 
ATOM      4  N   UNL     1       6.256   4.209  18.440  0.00  0.00    +0.000 N 
ATOM      5  H   UNL     1       6.235   4.239  15.243  0.00  0.00    +0.000 HD
ATOM      6  H   UNL     1       8.173   4.405  15.941  0.00  0.00    +0.000 HD
ATOM      7  H   UNL     1       8.512   4.112  17.542  0.00  0.00    +0.000 HD
ATOM      8  H   UNL     1       6.978   4.456  19.099  0.00  0.00    +0.000 HD
ENDROOT
BRANCH   4   9
ATOM      9  C   UNL     1       4.989   3.990  19.008  0.00  0.00    +0.000 A 
ATOM     10  C   UNL     1       4.206   5.095  19.369  0.00  0.00    +0.000 A 
ATOM     11  C   UNL     1       3.006   4.914  20.059  0.00  0.00    +0.000 A 
ATOM     12  C   UNL     1       2.616   3.621  20.358  0.00  0.00    +0.000 A 
ATOM     13 CL   UNL     1       1.179   3.317  21.241  0.00  0.00    +0.000 Cl
ATOM     14  N   UNL     1       3.311   2.525  20.018  0.00  0.00    +0.000 NA
ATOM     15  C   UNL     1       4.485   2.738  19.368  0.00  0.00    +0.000 A 
ENDBRANCH   4   9
TORSDOF 1
ENDMDL
MODEL 5
REMARK VINA RESULT:      -5.4      1.276      1.599
REMARK  Name = 
REMARK  1 active torsions:
REMARK  status: ('A' for Active; 'I' for Inactive)
REMARK    1  A    between atoms: N_4  and  C_5
REMARK                            x       y       z     vdW  Elec       q    Type
REMARK                         _______ _______ _______ _____ _____    ______ ____
ROOT
ATOM      1  N   UNL     1       7.474   4.346  17.880  0.00  0.00    +0.000 NA
ATOM      2  C   UNL     1       7.148   5.225  18.763  0.00  0.00    +0.000 C 
ATOM      3  N   UNL     1       8.061   6.111  19.221  0.00  0.00    +0.000 N 
ATOM      4  N   UNL     1       5.930   5.367  19.353  0.00  0.00    +0.000 N 
ATOM      5  H   UNL     1       8.446   4.456  17.601  0.00  0.00    +0.000 HD
ATOM      6  H   UNL     1       9.019   5.892  18.973  0.00  0.00    +0.000 HD
ATOM      7  H   UNL     1       7.994   6.321  20.210  0.00  0.00    +0.000 HD
ATOM      8  H   UNL     1       5.802   6.158  19.963  0.00  0.00    +0.000 HD
ENDROOT
BRANCH   4   9
ATOM      9  C   UNL     1       4.761   4.639  19.076  0.00  0.00    +0.000 A 
ATOM     10  C   UNL     1       3.702   5.279  18.417  0.00  0.00    +0.000 A 
ATOM     11  C   UNL     1       2.479   4.628  18.249  0.00  0.00    +0.000 A 
ATOM     12  C   UNL     1       2.354   3.341  18.739  0.00  0.00    +0.000 A 
ATOM     13 CL   UNL     1       0.871   2.490  18.613  0.00  0.00    +0.000 Cl
ATOM     14  N   UNL     1       3.338   2.669  19.357  0.00  0.00    +0.000 NA
ATOM     15  C   UNL     1       4.508   3.340  19.523  0.00  0.00    +0.000 A 
ENDBRANCH   4   9
TORSDOF 1
ENDMDL
MODEL 6
REMARK VINA RESULT:      -5.4      1.124      1.124
REMARK  Name = 
REMARK  1 active torsions:
REMARK  status: ('A' for Active; 'I' for Inactive)
REMARK    1  A    between atoms: N_4  and  C_5
REMARK                            x       y       z     vdW  Elec       q    Type
REMARK                         _______ _______ _______ _____ _____    ______ ____
ROOT
ATOM      1  N   UNL     1       6.027   6.190  16.956  0.00  0.00    +0.000 NA
ATOM      2  C   UNL     1       6.366   4.981  16.675  0.00  0.00    +0.000 C 
ATOM      3  N   UNL     1       7.483   4.728  15.956  0.00  0.00    +0.000 N 
ATOM      4  N   UNL     1       5.684   3.851  17.008  0.00  0.00    +0.000 N 
ATOM      5  H   UNL     1       6.711   6.852  16.593  0.00  0.00    +0.000 HD
ATOM      6  H   UNL     1       7.886   5.542  15.508  0.00  0.00    +0.000 HD
ATOM      7  H   UNL     1       7.402   3.967  15.293  0.00  0.00    +0.000 HD
ATOM      8  H   UNL     1       6.120   2.968  16.794  0.00  0.00    +0.000 HD
ENDROOT
BRANCH   4   9
ATOM      9  C   UNL     1       4.515   3.760  17.782  0.00  0.00    +0.000 A 
ATOM     10  C   UNL     1       3.270   3.795  17.139  0.00  0.00    +0.000 A 
ATOM     11  C   UNL     1       2.091   3.844  17.885  0.00  0.00    +0.000 A 
ATOM     12  C   UNL     1       2.194   3.845  19.264  0.00  0.00    +0.000 A 
ATOM     13 CL   UNL     1       0.797   3.949  20.251  0.00  0.00    +0.000 Cl
ATOM     14  N   UNL     1       3.354   3.789  19.935  0.00  0.00    +0.000 NA
ATOM     15  C   UNL     1       4.483   3.764  19.179  0.00  0.00    +0.000 A 
ENDBRANCH   4   9
TORSDOF 1
ENDMDL
MODEL 7
REMARK VINA RESULT:      -5.4      2.975      4.873
REMARK  Name = 
REMARK  1 active torsions:
REMARK  status: ('A' for Active; 'I' for Inactive)
REMARK    1  A    between atoms: N_4  and  C_5
REMARK                            x       y       z     vdW  Elec       q    Type
REMARK                         _______ _______ _______ _____ _____    ______ ____
ROOT
ATOM      1  N   UNL     1       0.579   3.490  20.283  0.00  0.00    +0.000 NA
ATOM      2  C   UNL     1       1.656   3.150  20.901  0.00  0.00    +0.000 C 
ATOM      3  N   UNL     1       1.594   2.447  22.055  0.00  0.00    +0.000 N 
ATOM      4  N   UNL     1       2.931   3.449  20.531  0.00  0.00    +0.000 N 
ATOM      5  H   UNL     1      -0.243   3.138  20.767  0.00  0.00    +0.000 HD
ATOM      6  H   UNL     1       0.671   2.402  22.470  0.00  0.00    +0.000 HD
ATOM      7  H   UNL     1       2.280   2.710  22.753  0.00  0.00    +0.000 HD
ATOM      8  H   UNL     1       3.677   3.038  21.070  0.00  0.00    +0.000 HD
ENDROOT
BRANCH   4   9
ATOM      9  C   UNL     1       3.344   4.127  19.371  0.00  0.00    +0.000 A 
ATOM     10  C   UNL     1       3.593   3.389  18.206  0.00  0.00    +0.000 A 
ATOM     11  C   UNL     1       4.134   4.011  17.080  0.00  0.00    +0.000 A 
ATOM     12  C   UNL     1       4.400   5.367  17.150  0.00  0.00    +0.000 A 
ATOM     13 CL   UNL     1       5.106   6.195  15.825  0.00  0.00    +0.000 Cl
ATOM     14  N   UNL     1       4.161   6.128  18.227  0.00  0.00    +0.000 NA
ATOM     15  C   UNL     1       3.656   5.487  19.313  0.00  0.00    +0.000 A 
ENDBRANCH   4   9
TORSDOF 1
ENDMDL
MODEL 8
REMARK VINA RESULT:      -5.3      2.719      4.827
REMARK  Name = 
REMARK  1 active torsions:
REMARK  status: ('A' for Active; 'I' for Inactive)
REMARK    1  A    between atoms: N_4  and  C_5
REMARK                            x       y       z     vdW  Elec       q    Type
REMARK                         _______ _______ _______ _____ _____    ______ ____
ROOT
ATOM      1  N   UNL     1       1.925   1.731  18.899  0.00  0.00    +0.000 NA
ATOM      2  C   UNL     1       1.557   2.855  19.406  0.00  0.00    +0.000 C 
ATOM      3  N   UNL     1       0.388   2.957  20.078  0.00  0.00    +0.000 N 
ATOM      4  N   UNL     1       2.225   4.038  19.324  0.00  0.00    +0.000 N 
ATOM      5  H   UNL     1       1.248   1.000  19.106  0.00  0.00    +0.000 HD
ATOM      6  H   UNL     1      -0.231   2.162  19.966  0.00  0.00    +0.000 HD
ATOM      7  H   UNL     1      -0.120   3.820  19.924  0.00  0.00    +0.000 HD
ATOM      8  H   UNL     1       1.854   4.815  19.848  0.00  0.00    +0.000 HD
ENDROOT
BRANCH   4   9
ATOM      9  C   UNL     1       3.480   4.267  18.735  0.00  0.00    +0.000 A 
ATOM     10  C   UNL     1       3.549   4.524  17.359  0.00  0.00    +0.000 A 
ATOM     11  C   UNL     1       4.785   4.620  16.720  0.00  0.00    +0.000 A 
ATOM     12  C   UNL     1       5.927   4.467  17.486  0.00  0.00    +0.000 A 
ATOM     13 CL   UNL     1       7.483   4.527  16.769  0.00  0.00    +0.000 Cl
ATOM     14  N   UNL     1       5.925   4.244  18.809  0.00  0.00    +0.000 NA
ATOM     15  C   UNL     1       4.705   4.134  19.395  0.00  0.00    +0.000 A 
ENDBRANCH   4   9
TORSDOF 1
ENDMDL
MODEL 9
REMARK VINA RESULT:      -5.3      1.424      1.490
REMARK  Name = 
REMARK  1 active torsions:
REMARK  status: ('A' for Active; 'I' for Inactive)
REMARK    1  A    between atoms: N_4  and  C_5
REMARK                            x       y       z     vdW  Elec       q    Type
REMARK                         _______ _______ _______ _____ _____    ______ ____
ROOT
ATOM      1  N   UNL     1       7.228   5.373  19.902  0.00  0.00    +0.000 NA
ATOM      2  C   UNL     1       6.824   5.396  18.681  0.00  0.00    +0.000 C 
ATOM      3  N   UNL     1       7.630   5.858  17.698  0.00  0.00    +0.000 N 
ATOM      4  N   UNL     1       5.599   5.015  18.226  0.00  0.00    +0.000 N 
ATOM      5  H   UNL     1       8.185   5.709  19.974  0.00  0.00    +0.000 HD
ATOM      6  H   UNL     1       8.452   6.351  18.027  0.00  0.00    +0.000 HD
ATOM      7  H   UNL     1       7.162   6.397  16.979  0.00  0.00    +0.000 HD
ATOM      8  H   UNL     1       5.459   5.007  17.227  0.00  0.00    +0.000 HD
ENDROOT
BRANCH   4   9
ATOM      9  C   UNL     1       4.550   4.455  18.973  0.00  0.00    +0.000 A 
ATOM     10  C   UNL     1       3.608   5.306  19.566  0.00  0.00    +0.000 A 
ATOM     11  C   UNL     1       2.635   4.794  20.426  0.00  0.00    +0.000 A 
ATOM     12  C   UNL     1       2.627   3.430  20.659  0.00  0.00    +0.000 A 
ATOM     13 CL   UNL     1       1.493   2.728  21.736  0.00  0.00    +0.000 Cl
ATOM     14  N   UNL     1       3.486   2.563  20.102  0.00  0.00    +0.000 NA
ATOM     15  C   UNL     1       4.433   3.098  19.289  0.00  0.00    +0.000 A 
ENDBRANCH   4   9
TORSDOF 1
ENDMDL
