MODEL 1
REMARK VINA RESULT:      -6.3      0.000      0.000
REMARK  Name = 
REMARK  7 active torsions:
REMARK  status: ('A' for Active; 'I' for Inactive)
REMARK    1  A    between atoms: C_1  and  C_2
REMARK    2  A    between atoms: N_5  and  C_6
REMARK    3  A    between atoms: C_6  and  C_7
REMARK    4  A    between atoms: C_7  and  N_8
REMARK    5  A    between atoms: N_8  and  C_9
REMARK    6  A    between atoms: C_9  and  C_10
REMARK    7  A    between atoms: C_13  and  C_14
REMARK                            x       y       z     vdW  Elec       q    Type
REMARK                         _______ _______ _______ _____ _____    ______ ____
ROOT
ATOM      1  C   UNL     1       3.244   5.486  19.099  0.00  0.00    +0.000 C 
ENDROOT
BRANCH   1   2
ATOM      2  C   UNL     1       2.668   6.863  19.000  0.00  0.00    +0.000 A 
ATOM      3  C   UNL     1       2.681   7.675  17.882  0.00  0.00    +0.000 A 
ATOM      4  S   UNL     1       1.854   9.133  18.206  0.00  0.00    +0.000 S 
ATOM      5  C   UNL     1       1.537   8.594  19.808  0.00  0.00    +0.000 A 
ATOM      6  N   UNL     1       2.018   7.403  20.102  0.00  0.00    +0.000 NA
BRANCH   5   7
ATOM      7  C   UNL     1       0.751   9.399  20.803  0.00  0.00    +0.000 A 
ATOM      8  C   UNL     1       0.309  10.745  20.638  0.00  0.00    +0.000 A 
ATOM      9  C   UNL     1      -0.420  11.193  21.717  0.00  0.00    +0.000 A 
ATOM     10  S   UNL     1      -0.546  10.006  22.943  0.00  0.00    +0.000 S 
ATOM     11  C   UNL     1       0.359   8.882  22.023  0.00  0.00    +0.000 A 
ENDBRANCH   5   7
ENDBRANCH   1   2
BRANCH   1  12
ATOM     12  N   UNL     1       3.260   4.901  17.754  0.00  0.00    +0.000 NA
ATOM     13  H   UNL     1       2.323   4.553  17.543  0.00  0.00    +0.000 HD
BRANCH  12  14
ATOM     14  C   UNL     1       4.243   3.817  17.636  0.00  0.00    +0.000 C 
BRANCH  14  15
ATOM     15  C   UNL     1       5.448   4.145  16.750  0.00  0.00    +0.000 C 
BRANCH  15  20
ATOM     16  C   UNL     1       8.002   8.328  17.767  0.00  0.00    +0.000 C 
ATOM     17  C   UNL     1       7.435   6.964  17.801  0.00  0.00    +0.000 A 
ATOM     18  C   UNL     1       7.707   5.927  18.721  0.00  0.00    +0.000 A 
ATOM     19  N   UNL     1       7.016   4.815  18.460  0.00  0.00    +0.000 NA
ATOM     20  N   UNL     1       6.307   5.136  17.364  0.00  0.00    +0.000 N 
ATOM     21  C   UNL     1       6.519   6.411  16.932  0.00  0.00    +0.000 A 
ENDBRANCH  15  20
ENDBRANCH  14  15
ENDBRANCH  12  14
ENDBRANCH   1  12
TORSDOF 6
ENDMDL
MODEL 2
REMARK VINA RESULT:      -6.2      0.971      1.212
REMARK  Name = 
REMARK  7 active torsions:
REMARK  status: ('A' for Active; 'I' for Inactive)
REMARK    1  A    between atoms: C_1  and  C_2
REMARK    2  A    between atoms: N_5  and  C_6
REMARK    3  A    between atoms: C_6  and  C_7
REMARK    4  A    between atoms: C_7  and  N_8
REMARK    5  A    between atoms: N_8  and  C_9
REMARK    6  A    between atoms: C_9  and  C_10
REMARK    7  A    between atoms: C_13  and  C_14
REMARK                            x       y       z     vdW  Elec       q    Type
REMARK                         _______ _______ _______ _____ _____    ______ ____
ROOT
ATOM      1  C   UNL     1       2.717   5.534  20.047  0.00  0.00    +0.000 C 
ENDROOT
BRANCH   1   2
ATOM      2  C   UNL     1       2.216   6.924  19.817  0.00  0.00    +0.000 A 
ATOM      3  C   UNL     1       2.366   7.664  18.661  0.00  0.00    +0.000 A 
ATOM      4  S   UNL     1       1.582   9.173  18.823  0.00  0.00    +0.000 S 
ATOM      5  C   UNL     1       1.098   8.746  20.417  0.00  0.00    +0.000 A 
ATOM      6  N   UNL     1       1.497   7.557  20.822  0.00  0.00    +0.000 NA
BRANCH   5   7
ATOM      7  C   UNL     1       0.265   9.642  21.288  0.00  0.00    +0.000 A 
ATOM      8  C   UNL     1      -0.157   9.366  22.623  0.00  0.00    +0.000 A 
ATOM      9  C   UNL     1      -0.881  10.403  23.168  0.00  0.00    +0.000 A 
ATOM     10  S   UNL     1      -1.082  11.694  22.065  0.00  0.00    +0.000 S 
ATOM     11  C   UNL     1      -0.181  10.877  20.860  0.00  0.00    +0.000 A 
ENDBRANCH   5   7
ENDBRANCH   1   2
BRANCH   1  12
ATOM     12  N   UNL     1       4.008   5.396  19.366  0.00  0.00    +0.000 NA
ATOM     13  H   UNL     1       4.245   6.293  18.939  0.00  0.00    +0.000 HD
BRANCH  12  14
ATOM     14  C   UNL     1       3.984   4.339  18.346  0.00  0.00    +0.000 C 
BRANCH  14  15
ATOM     15  C   UNL     1       5.260   4.238  17.506  0.00  0.00    +0.000 C 
BRANCH  15  20
ATOM     16  C   UNL     1       8.088   8.360  17.754  0.00  0.00    +0.000 C 
ATOM     17  C   UNL     1       7.483   7.034  17.995  0.00  0.00    +0.000 A 
ATOM     18  C   UNL     1       7.849   6.068  18.959  0.00  0.00    +0.000 A 
ATOM     19  N   UNL     1       7.087   4.974  18.904  0.00  0.00    +0.000 NA
ATOM     20  N   UNL     1       6.236   5.234  17.896  0.00  0.00    +0.000 N 
ATOM     21  C   UNL     1       6.429   6.454  17.322  0.00  0.00    +0.000 A 
ENDBRANCH  15  20
ENDBRANCH  14  15
ENDBRANCH  12  14
ENDBRANCH   1  12
TORSDOF 6
ENDMDL
MODEL 3
REMARK VINA RESULT:      -6.1      1.901      3.406
REMARK  Name = 
REMARK  7 active torsions:
REMARK  status: ('A' for Active; 'I' for Inactive)
REMARK    1  A    between atoms: C_1  and  C_2
REMARK    2  A    between atoms: N_5  and  C_6
REMARK    3  A    between atoms: C_6  and  C_7
REMARK    4  A    between atoms: C_7  and  N_8
REMARK    5  A    between atoms: N_8  and  C_9
REMARK    6  A    between atoms: C_9  and  C_10
REMARK    7  A    between atoms: C_13  and  C_14
REMARK                            x       y       z     vdW  Elec       q    Type
REMARK                         _______ _______ _______ _____ _____    ______ ____
ROOT
ATOM      1  C   UNL     1       4.719   4.014  18.495  0.00  0.00    +0.000 C 
ENDROOT
BRANCH   1   2
ATOM      2  C   UNL     1       3.646   4.818  19.157  0.00  0.00    +0.000 A 
ATOM      3  C   UNL     1       2.893   4.432  20.248  0.00  0.00    +0.000 A 
ATOM      4  S   UNL     1       1.831   5.689  20.705  0.00  0.00    +0.000 S 
ATOM      5  C   UNL     1       2.437   6.661  19.422  0.00  0.00    +0.000 A 
ATOM      6  N   UNL     1       3.370   6.094  18.683  0.00  0.00    +0.000 NA
BRANCH   5   7
ATOM      7  C   UNL     1       1.964   8.063  19.162  0.00  0.00    +0.000 A 
ATOM      8  C   UNL     1       2.202   8.828  17.981  0.00  0.00    +0.000 A 
ATOM      9  C   UNL     1       1.605  10.069  18.033  0.00  0.00    +0.000 A 
ATOM     10  S   UNL     1       0.787  10.326  19.513  0.00  0.00    +0.000 S 
ATOM     11  C   UNL     1       1.212   8.768  20.082  0.00  0.00    +0.000 A 
ENDBRANCH   5   7
ENDBRANCH   1   2
BRANCH   1  12
ATOM     12  N   UNL     1       5.943   4.142  19.293  0.00  0.00    +0.000 NA
ATOM     13  H   UNL     1       5.699   4.014  20.277  0.00  0.00    +0.000 HD
BRANCH  12  14
ATOM     14  C   UNL     1       6.598   5.442  19.096  0.00  0.00    +0.000 C 
BRANCH  14  15
ATOM     15  C   UNL     1       7.567   5.491  17.913  0.00  0.00    +0.000 C 
BRANCH  15  20
ATOM     16  C   UNL     1       6.014   3.845  13.448  0.00  0.00    +0.000 C 
ATOM     17  C   UNL     1       6.206   4.625  14.688  0.00  0.00    +0.000 A 
ATOM     18  C   UNL     1       5.590   5.841  15.061  0.00  0.00    +0.000 A 
ATOM     19  N   UNL     1       5.993   6.274  16.258  0.00  0.00    +0.000 NA
ATOM     20  N   UNL     1       6.876   5.340  16.650  0.00  0.00    +0.000 N 
ATOM     21  C   UNL     1       7.037   4.330  15.749  0.00  0.00    +0.000 A 
ENDBRANCH  15  20
ENDBRANCH  14  15
ENDBRANCH  12  14
ENDBRANCH   1  12
TORSDOF 6
ENDMDL
MODEL 4
REMARK VINA RESULT:      -6.1      2.588      4.017
REMARK  Name = 
REMARK  7 active torsions:
REMARK  status: ('A' for Active; 'I' for Inactive)
REMARK    1  A    between atoms: C_1  and  C_2
REMARK    2  A    between atoms: N_5  and  C_6
REMARK    3  A    between atoms: C_6  and  C_7
REMARK    4  A    between atoms: C_7  and  N_8
REMARK    5  A    between atoms: N_8  and  C_9
REMARK    6  A    between atoms: C_9  and  C_10
REMARK    7  A    between atoms: C_13  and  C_14
REMARK                            x       y       z     vdW  Elec       q    Type
REMARK                         _______ _______ _______ _____ _____    ______ ____
ROOT
ATOM      1  C   UNL     1       4.461   3.876  17.157  0.00  0.00    +0.000 C 
ENDROOT
BRANCH   1   2
ATOM      2  C   UNL     1       3.674   4.592  18.208  0.00  0.00    +0.000 A 
ATOM      3  C   UNL     1       3.355   4.108  19.461  0.00  0.00    +0.000 A 
ATOM      4  S   UNL     1       2.501   5.290  20.349  0.00  0.00    +0.000 S 
ATOM      5  C   UNL     1       2.609   6.366  19.012  0.00  0.00    +0.000 A 
ATOM      6  N   UNL     1       3.233   5.885  17.956  0.00  0.00    +0.000 NA
BRANCH   5   7
ATOM      7  C   UNL     1       2.055   7.763  19.037  0.00  0.00    +0.000 A 
ATOM      8  C   UNL     1       1.998   8.667  17.935  0.00  0.00    +0.000 A 
ATOM      9  C   UNL     1       1.400   9.863  18.270  0.00  0.00    +0.000 A 
ATOM     10  S   UNL     1       0.938   9.910  19.915  0.00  0.00    +0.000 S 
ATOM     11  C   UNL     1       1.518   8.321  20.181  0.00  0.00    +0.000 A 
ENDBRANCH   5   7
ENDBRANCH   1   2
BRANCH   1  12
ATOM     12  N   UNL     1       5.858   3.808  17.600  0.00  0.00    +0.000 NA
ATOM     13  H   UNL     1       5.872   3.819  18.620  0.00  0.00    +0.000 HD
BRANCH  12  14
ATOM     14  C   UNL     1       6.659   4.917  17.067  0.00  0.00    +0.000 C 
BRANCH  14  15
ATOM     15  C   UNL     1       6.025   5.646  15.880  0.00  0.00    +0.000 C 
BRANCH  15  20
ATOM     16  C   UNL     1       6.280   2.777  11.786  0.00  0.00    +0.000 C 
ATOM     17  C   UNL     1       6.537   3.788  12.832  0.00  0.00    +0.000 A 
ATOM     18  C   UNL     1       7.604   4.711  12.914  0.00  0.00    +0.000 A 
ATOM     19  N   UNL     1       7.531   5.486  13.998  0.00  0.00    +0.000 NA
ATOM     20  N   UNL     1       6.419   5.054  14.618  0.00  0.00    +0.000 N 
ATOM     21  C   UNL     1       5.786   4.042  13.961  0.00  0.00    +0.000 A 
ENDBRANCH  15  20
ENDBRANCH  14  15
ENDBRANCH  12  14
ENDBRANCH   1  12
TORSDOF 6
ENDMDL
MODEL 5
REMARK VINA RESULT:      -6.0      2.435      3.731
REMARK  Name = 
REMARK  7 active torsions:
REMARK  status: ('A' for Active; 'I' for Inactive)
REMARK    1  A    between atoms: C_1  and  C_2
REMARK    2  A    between atoms: N_5  and  C_6
REMARK    3  A    between atoms: C_6  and  C_7
REMARK    4  A    between atoms: C_7  and  N_8
REMARK    5  A    between atoms: N_8  and  C_9
REMARK    6  A    between atoms: C_9  and  C_10
REMARK    7  A    between atoms: C_13  and  C_14
REMARK                            x       y       z     vdW  Elec       q    Type
REMARK                         _______ _______ _______ _____ _____    ______ ____
ROOT
ATOM      1  C   UNL     1       3.736   3.838  17.431  0.00  0.00    +0.000 C 
ENDROOT
BRANCH   1   2
ATOM      2  C   UNL     1       3.112   4.466  18.636  0.00  0.00    +0.000 A 
ATOM      3  C   UNL     1       2.927   3.866  19.866  0.00  0.00    +0.000 A 
ATOM      4  S   UNL     1       2.235   4.977  20.963  0.00  0.00    +0.000 S 
ATOM      5  C   UNL     1       2.224   6.179  19.734  0.00  0.00    +0.000 A 
ATOM      6  N   UNL     1       2.696   5.789  18.567  0.00  0.00    +0.000 NA
BRANCH   5   7
ATOM      7  C   UNL     1       1.734   7.581  19.962  0.00  0.00    +0.000 A 
ATOM      8  C   UNL     1       1.231   8.109  21.189  0.00  0.00    +0.000 A 
ATOM      9  C   UNL     1       0.894   9.441  21.085  0.00  0.00    +0.000 A 
ATOM     10  S   UNL     1       1.152  10.047  19.507  0.00  0.00    +0.000 S 
ATOM     11  C   UNL     1       1.735   8.533  18.961  0.00  0.00    +0.000 A 
ENDBRANCH   5   7
ENDBRANCH   1   2
BRANCH   1  12
ATOM     12  N   UNL     1       5.121   3.488  17.765  0.00  0.00    +0.000 NA
ATOM     13  H   UNL     1       5.151   3.191  18.742  0.00  0.00    +0.000 HD
BRANCH  12  14
ATOM     14  C   UNL     1       6.042   4.611  17.547  0.00  0.00    +0.000 C 
BRANCH  14  15
ATOM     15  C   UNL     1       5.650   5.538  16.395  0.00  0.00    +0.000 C 
BRANCH  15  20
ATOM     16  C   UNL     1       6.166   3.093  12.058  0.00  0.00    +0.000 C 
ATOM     17  C   UNL     1       6.373   3.966  13.231  0.00  0.00    +0.000 A 
ATOM     18  C   UNL     1       7.487   4.784  13.527  0.00  0.00    +0.000 A 
ATOM     19  N   UNL     1       7.345   5.448  14.676  0.00  0.00    +0.000 NA
ATOM     20  N   UNL     1       6.142   5.048  15.124  0.00  0.00    +0.000 N 
ATOM     21  C   UNL     1       5.518   4.165  14.295  0.00  0.00    +0.000 A 
ENDBRANCH  15  20
ENDBRANCH  14  15
ENDBRANCH  12  14
ENDBRANCH   1  12
TORSDOF 6
ENDMDL
MODEL 6
REMARK VINA RESULT:      -6.0      1.717      2.604
REMARK  Name = 
REMARK  7 active torsions:
REMARK  status: ('A' for Active; 'I' for Inactive)
REMARK    1  A    between atoms: C_1  and  C_2
REMARK    2  A    between atoms: N_5  and  C_6
REMARK    3  A    between atoms: C_6  and  C_7
REMARK    4  A    between atoms: C_7  and  N_8
REMARK    5  A    between atoms: N_8  and  C_9
REMARK    6  A    between atoms: C_9  and  C_10
REMARK    7  A    between atoms: C_13  and  C_14
REMARK                            x       y       z     vdW  Elec       q    Type
REMARK                         _______ _______ _______ _____ _____    ______ ____
ROOT
ATOM      1  C   UNL     1       3.683   3.423  17.483  0.00  0.00    +0.000 C 
ENDROOT
BRANCH   1   2
ATOM      2  C   UNL     1       3.059   4.320  18.504  0.00  0.00    +0.000 A 
ATOM      3  C   UNL     1       2.752   3.982  19.807  0.00  0.00    +0.000 A 
ATOM      4  S   UNL     1       2.113   5.335  20.630  0.00  0.00    +0.000 S 
ATOM      5  C   UNL     1       2.283   6.279  19.202  0.00  0.00    +0.000 A 
ATOM      6  N   UNL     1       2.777   5.636  18.163  0.00  0.00    +0.000 NA
BRANCH   5   7
ATOM      7  C   UNL     1       1.920   7.735  19.134  0.00  0.00    +0.000 A 
ATOM      8  C   UNL     1       2.039   8.581  17.992  0.00  0.00    +0.000 A 
ATOM      9  C   UNL     1       1.590   9.860  18.239  0.00  0.00    +0.000 A 
ATOM     10  S   UNL     1       1.055  10.051  19.852  0.00  0.00    +0.000 S 
ATOM     11  C   UNL     1       1.404   8.416  20.220  0.00  0.00    +0.000 A 
ENDBRANCH   5   7
ENDBRANCH   1   2
BRANCH   1  12
ATOM     12  N   UNL     1       4.568   4.236  16.641  0.00  0.00    +0.000 NA
ATOM     13  H   UNL     1       4.015   4.625  15.876  0.00  0.00    +0.000 HD
BRANCH  12  14
ATOM     14  C   UNL     1       5.694   3.456  16.110  0.00  0.00    +0.000 C 
BRANCH  14  15
ATOM     15  C   UNL     1       6.932   4.286  15.761  0.00  0.00    +0.000 C 
BRANCH  15  20
ATOM     16  C   UNL     1       8.096   8.492  18.212  0.00  0.00    +0.000 C 
ATOM     17  C   UNL     1       7.754   7.098  17.863  0.00  0.00    +0.000 A 
ATOM     18  C   UNL     1       7.630   5.986  18.726  0.00  0.00    +0.000 A 
ATOM     19  N   UNL     1       7.306   4.866  18.076  0.00  0.00    +0.000 NA
ATOM     20  N   UNL     1       7.231   5.258  16.792  0.00  0.00    +0.000 N 
ATOM     21  C   UNL     1       7.487   6.584  16.612  0.00  0.00    +0.000 A 
ENDBRANCH  15  20
ENDBRANCH  14  15
ENDBRANCH  12  14
ENDBRANCH   1  12
TORSDOF 6
ENDMDL
MODEL 7
REMARK VINA RESULT:      -5.9      1.724      2.208
REMARK  Name = 
REMARK  7 active torsions:
REMARK  status: ('A' for Active; 'I' for Inactive)
REMARK    1  A    between atoms: C_1  and  C_2
REMARK    2  A    between atoms: N_5  and  C_6
REMARK    3  A    between atoms: C_6  and  C_7
REMARK    4  A    between atoms: C_7  and  N_8
REMARK    5  A    between atoms: N_8  and  C_9
REMARK    6  A    between atoms: C_9  and  C_10
REMARK    7  A    between atoms: C_13  and  C_14
REMARK                            x       y       z     vdW  Elec       q    Type
REMARK                         _______ _______ _______ _____ _____    ______ ____
ROOT
ATOM      1  C   UNL     1       2.697   5.524  20.070  0.00  0.00    +0.000 C 
ENDROOT
BRANCH   1   2
ATOM      2  C   UNL     1       2.383   6.853  19.462  0.00  0.00    +0.000 A 
ATOM      3  C   UNL     1       2.736   7.276  18.195  0.00  0.00    +0.000 A 
ATOM      4  S   UNL     1       2.113   8.839  17.902  0.00  0.00    +0.000 S 
ATOM      5  C   UNL     1       1.419   8.853  19.475  0.00  0.00    +0.000 A 
ATOM      6  N   UNL     1       1.636   7.769  20.192  0.00  0.00    +0.000 NA
BRANCH   5   7
ATOM      7  C   UNL     1       0.604  10.000  20.001  0.00  0.00    +0.000 A 
ATOM      8  C   UNL     1       0.801  10.677  21.242  0.00  0.00    +0.000 A 
ATOM      9  C   UNL     1      -0.090  11.712  21.421  0.00  0.00    +0.000 A 
ATOM     10  S   UNL     1      -1.185  11.849  20.114  0.00  0.00    +0.000 S 
ATOM     11  C   UNL     1      -0.455  10.536  19.294  0.00  0.00    +0.000 A 
ENDBRANCH   5   7
ENDBRANCH   1   2
BRANCH   1  12
ATOM     12  N   UNL     1       2.438   4.489  19.063  0.00  0.00    +0.000 NA
ATOM     13  H   UNL     1       1.555   4.030  19.294  0.00  0.00    +0.000 HD
BRANCH  12  14
ATOM     14  C   UNL     1       3.522   3.501  18.995  0.00  0.00    +0.000 C 
BRANCH  14  15
ATOM     15  C   UNL     1       4.920   4.074  19.239  0.00  0.00    +0.000 C 
BRANCH  15  20
ATOM     16  C   UNL     1       6.237   4.220  14.412  0.00  0.00    +0.000 C 
ATOM     17  C   UNL     1       6.237   4.275  15.888  0.00  0.00    +0.000 A 
ATOM     18  C   UNL     1       7.324   4.534  16.754  0.00  0.00    +0.000 A 
ATOM     19  N   UNL     1       6.972   4.510  18.041  0.00  0.00    +0.000 NA
ATOM     20  N   UNL     1       5.659   4.224  18.002  0.00  0.00    +0.000 N 
ATOM     21  C   UNL     1       5.170   4.078  16.739  0.00  0.00    +0.000 A 
ENDBRANCH  15  20
ENDBRANCH  14  15
ENDBRANCH  12  14
ENDBRANCH   1  12
TORSDOF 6
ENDMDL
MODEL 8
REMARK VINA RESULT:      -5.9      2.570      4.281
REMARK  Name = 
REMARK  7 active torsions:
REMARK  status: ('A' for Active; 'I' for Inactive)
REMARK    1  A    between atoms: C_1  and  C_2
REMARK    2  A    between atoms: N_5  and  C_6
REMARK    3  A    between atoms: C_6  and  C_7
REMARK    4  A    between atoms: C_7  and  N_8
REMARK    5  A    between atoms: N_8  and  C_9
REMARK    6  A    between atoms: C_9  and  C_10
REMARK    7  A    between atoms: C_13  and  C_14
REMARK                            x       y       z     vdW  Elec       q    Type
REMARK                         _______ _______ _______ _____ _____    ______ ____
ROOT
ATOM      1  C   UNL     1       3.622   6.902  17.431  0.00  0.00    +0.000 C 
ENDROOT
BRANCH   1   2
ATOM      2  C   UNL     1       2.680   7.603  18.357  0.00  0.00    +0.000 A 
ATOM      3  C   UNL     1       2.396   7.243  19.660  0.00  0.00    +0.000 A 
ATOM      4  S   UNL     1       1.314   8.364  20.357  0.00  0.00    +0.000 S 
ATOM      5  C   UNL     1       1.290   9.252  18.885  0.00  0.00    +0.000 A 
ATOM      6  N   UNL     1       2.033   8.751  17.918  0.00  0.00    +0.000 NA
BRANCH   5   7
ATOM      7  C   UNL     1       0.503  10.519  18.704  0.00  0.00    +0.000 A 
ATOM      8  C   UNL     1      -0.886  10.612  18.395  0.00  0.00    +0.000 A 
ATOM      9  C   UNL     1      -1.322  11.917  18.328  0.00  0.00    +0.000 A 
ATOM     10  S   UNL     1      -0.054  13.031  18.606  0.00  0.00    +0.000 S 
ATOM     11  C   UNL     1       1.079  11.768  18.836  0.00  0.00    +0.000 A 
ENDBRANCH   5   7
ENDBRANCH   1   2
BRANCH   1  12
ATOM     12  N   UNL     1       4.171   5.738  18.135  0.00  0.00    +0.000 NA
ATOM     13  H   UNL     1       4.931   6.056  18.739  0.00  0.00    +0.000 HD
BRANCH  12  14
ATOM     14  C   UNL     1       4.657   4.710  17.206  0.00  0.00    +0.000 C 
BRANCH  14  15
ATOM     15  C   UNL     1       3.966   3.351  17.344  0.00  0.00    +0.000 C 
BRANCH  15  20
ATOM     16  C   UNL     1       1.550   2.632  21.668  0.00  0.00    +0.000 C 
ATOM     17  C   UNL     1       1.918   3.032  20.295  0.00  0.00    +0.000 A 
ATOM     18  C   UNL     1       1.129   3.714  19.341  0.00  0.00    +0.000 A 
ATOM     19  N   UNL     1       1.777   3.919  18.192  0.00  0.00    +0.000 NA
ATOM     20  N   UNL     1       2.980   3.359  18.405  0.00  0.00    +0.000 N 
ATOM     21  C   UNL     1       3.117   2.818  19.648  0.00  0.00    +0.000 A 
ENDBRANCH  15  20
ENDBRANCH  14  15
ENDBRANCH  12  14
ENDBRANCH   1  12
TORSDOF 6
ENDMDL
MODEL 9
REMARK VINA RESULT:      -5.9      3.915      6.203
REMARK  Name = 
REMARK  7 active torsions:
REMARK  status: ('A' for Active; 'I' for Inactive)
REMARK    1  A    between atoms: C_1  and  C_2
REMARK    2  A    between atoms: N_5  and  C_6
REMARK    3  A    between atoms: C_6  and  C_7
REMARK    4  A    between atoms: C_7  and  N_8
REMARK    5  A    between atoms: N_8  and  C_9
REMARK    6  A    between atoms: C_9  and  C_10
REMARK    7  A    between atoms: C_13  and  C_14
REMARK                            x       y       z     vdW  Elec       q    Type
REMARK                         _______ _______ _______ _____ _____    ______ ____
ROOT
ATOM      1  C   UNL     1       7.653   6.621  18.109  0.00  0.00    +0.000 C 
ENDROOT
BRANCH   1   2
ATOM      2  C   UNL     1       6.542   5.675  17.784  0.00  0.00    +0.000 A 
ATOM      3  C   UNL     1       6.371   4.993  16.595  0.00  0.00    +0.000 A 
ATOM      4  S   UNL     1       5.002   3.977  16.692  0.00  0.00    +0.000 S 
ATOM      5  C   UNL     1       4.724   4.510  18.303  0.00  0.00    +0.000 A 
ATOM      6  N   UNL     1       5.586   5.399  18.754  0.00  0.00    +0.000 NA
BRANCH   5   7
ATOM      7  C   UNL     1       3.598   3.995  19.154  0.00  0.00    +0.000 A 
ATOM      8  C   UNL     1       3.037   2.684  19.107  0.00  0.00    +0.000 A 
ATOM      9  C   UNL     1       2.039   2.509  20.040  0.00  0.00    +0.000 A 
ATOM     10  S   UNL     1       1.754   3.929  20.949  0.00  0.00    +0.000 S 
ATOM     11  C   UNL     1       2.981   4.778  20.111  0.00  0.00    +0.000 A 
ENDBRANCH   5   7
ENDBRANCH   1   2
BRANCH   1  12
ATOM     12  N   UNL     1       7.659   7.682  17.097  0.00  0.00    +0.000 NA
ATOM     13  H   UNL     1       8.414   7.493  16.437  0.00  0.00    +0.000 HD
BRANCH  12  14
ATOM     14  C   UNL     1       7.828   9.013  17.694  0.00  0.00    +0.000 C 
BRANCH  14  15
ATOM     15  C   UNL     1       8.826   9.067  18.853  0.00  0.00    +0.000 C 
BRANCH  15  20
ATOM     16  C   UNL     1      10.724  13.653  18.208  0.00  0.00    +0.000 C 
ATOM     17  C   UNL     1      10.166  12.414  18.786  0.00  0.00    +0.000 A 
ATOM     18  C   UNL     1       9.934  12.111  20.147  0.00  0.00    +0.000 A 
ATOM     19  N   UNL     1       9.414  10.893  20.320  0.00  0.00    +0.000 NA
ATOM     20  N   UNL     1       9.322  10.410  19.069  0.00  0.00    +0.000 N 
ATOM     21  C   UNL     1       9.755  11.282  18.115  0.00  0.00    +0.000 A 
ENDBRANCH  15  20
ENDBRANCH  14  15
ENDBRANCH  12  14
ENDBRANCH   1  12
TORSDOF 6
ENDMDL
