MODEL 1
REMARK VINA RESULT:      -8.1      0.000      0.000
REMARK  Name = 
REMARK  3 active torsions:
REMARK  status: ('A' for Active; 'I' for Inactive)
REMARK    1  A    between atoms: C_1  and  O_2
REMARK    2  A    between atoms: O_2  and  C_3
REMARK    3  A    between atoms: C_13  and  C_15
REMARK                            x       y       z     vdW  Elec       q    Type
REMARK                         _______ _______ _______ _____ _____    ______ ____
ROOT
ATOM      1  C   UNL     1       2.639   4.515  20.493  0.00  0.00    +0.000 A 
ATOM      2  C   UNL     1       3.394   4.365  19.327  0.00  0.00    +0.000 A 
ATOM      3  C   UNL     1       3.570   5.439  18.464  0.00  0.00    +0.000 A 
ATOM      4  C   UNL     1       2.965   6.665  18.748  0.00  0.00    +0.000 A 
ATOM      5  C   UNL     1       2.171   6.837  19.918  0.00  0.00    +0.000 A 
ATOM      6  C   UNL     1       2.017   5.747  20.784  0.00  0.00    +0.000 A 
ATOM      7  C   UNL     1       1.510   8.138  20.117  0.00  0.00    +0.000 A 
ATOM      8  N   UNL     1       0.931   8.655  21.281  0.00  0.00    +0.000 NA
ATOM      9  C   UNL     1       0.430   9.859  21.019  0.00  0.00    +0.000 A 
ATOM     10  N   UNL     1      -0.222  10.668  21.941  0.00  0.00    +0.000 N 
ATOM     11  C   UNL     1      -0.986  11.771  21.582  0.00  0.00    +0.000 C 
ATOM     12  O   UNL     1      -1.273  12.116  20.435  0.00  0.00    +0.000 OA
ATOM     13  S   UNL     1       0.725  10.445  19.436  0.00  0.00    +0.000 S 
ATOM     14  C   UNL     1       1.451   8.988  19.029  0.00  0.00    +0.000 A 
ATOM     15  C   UNL     1       1.964   8.701  17.667  0.00  0.00    +0.000 C 
ATOM     16  C   UNL     1       3.204   7.824  17.797  0.00  0.00    +0.000 C 
ATOM     17  H   UNL     1      -0.232  10.312  22.883  0.00  0.00    +0.000 HD
ENDROOT
BRANCH  11  18
ATOM     18  C   UNL     1      -1.568  12.620  22.660  0.00  0.00    +0.000 A 
ATOM     19  C   UNL     1      -0.962  13.779  23.156  0.00  0.00    +0.000 A 
ATOM     20  C   UNL     1      -1.641  14.571  24.095  0.00  0.00    +0.000 A 
ATOM     21  C   UNL     1      -2.920  14.218  24.534  0.00  0.00    +0.000 A 
ATOM     22  C   UNL     1      -3.526  13.070  24.034  0.00  0.00    +0.000 A 
ATOM     23 BR   UNL     1      -5.268  12.595  24.593  0.00  0.00    +0.000 Br
ATOM     24  C   UNL     1      -2.860  12.278  23.104  0.00  0.00    +0.000 A 
ENDBRANCH  11  18
BRANCH   1  26
ATOM     25  C   UNL     1       1.277   2.679  21.124  0.00  0.00    +0.000 C 
ATOM     26  O   UNL     1       2.419   3.496  21.388  0.00  0.00    +0.000 OA
ENDBRANCH   1  26
TORSDOF 2
ENDMDL
MODEL 2
REMARK VINA RESULT:      -7.8      1.234      1.566
REMARK  Name = 
REMARK  3 active torsions:
REMARK  status: ('A' for Active; 'I' for Inactive)
REMARK    1  A    between atoms: C_1  and  O_2
REMARK    2  A    between atoms: O_2  and  C_3
REMARK    3  A    between atoms: C_13  and  C_15
REMARK                            x       y       z     vdW  Elec       q    Type
REMARK                         _______ _______ _______ _____ _____    ______ ____
ROOT
ATOM      1  C   UNL     1       2.427   4.869  20.631  0.00  0.00    +0.000 A 
ATOM      2  C   UNL     1       3.206   4.755  19.476  0.00  0.00    +0.000 A 
ATOM      3  C   UNL     1       3.353   5.840  18.621  0.00  0.00    +0.000 A 
ATOM      4  C   UNL     1       2.697   7.040  18.900  0.00  0.00    +0.000 A 
ATOM      5  C   UNL     1       1.879   7.175  20.059  0.00  0.00    +0.000 A 
ATOM      6  C   UNL     1       1.754   6.075  20.917  0.00  0.00    +0.000 A 
ATOM      7  C   UNL     1       1.165   8.449  20.253  0.00  0.00    +0.000 A 
ATOM      8  N   UNL     1       0.549   8.937  21.410  0.00  0.00    +0.000 NA
ATOM      9  C   UNL     1       0.005  10.122  21.145  0.00  0.00    +0.000 A 
ATOM     10  N   UNL     1      -0.691  10.901  22.061  0.00  0.00    +0.000 N 
ATOM     11  C   UNL     1      -1.491  11.975  21.695  0.00  0.00    +0.000 C 
ATOM     12  O   UNL     1      -1.774  12.314  20.544  0.00  0.00    +0.000 OA
ATOM     13  S   UNL     1       0.302  10.727  19.570  0.00  0.00    +0.000 S 
ATOM     14  C   UNL     1       1.090   9.301  19.167  0.00  0.00    +0.000 A 
ATOM     15  C   UNL     1       1.635   9.040  17.813  0.00  0.00    +0.000 C 
ATOM     16  C   UNL     1       2.906   8.211  17.958  0.00  0.00    +0.000 C 
ATOM     17  H   UNL     1      -0.702  10.540  23.001  0.00  0.00    +0.000 HD
ENDROOT
BRANCH  11  18
ATOM     18  C   UNL     1      -2.122  12.796  22.766  0.00  0.00    +0.000 A 
ATOM     19  C   UNL     1      -3.320  12.462  23.407  0.00  0.00    +0.000 A 
ATOM     20  C   UNL     1      -3.777  13.242  24.480  0.00  0.00    +0.000 A 
ATOM     21  C   UNL     1      -3.043  14.348  24.920  0.00  0.00    +0.000 A 
ATOM     22  C   UNL     1      -1.847  14.676  24.289  0.00  0.00    +0.000 A 
ATOM     23 BR   UNL     1      -0.828  16.148  24.893  0.00  0.00    +0.000 Br
ATOM     24  C   UNL     1      -1.388  13.908  23.223  0.00  0.00    +0.000 A 
ENDBRANCH  11  18
BRANCH   1  26
ATOM     25  C   UNL     1       1.532   2.706  21.002  0.00  0.00    +0.000 C 
ATOM     26  O   UNL     1       2.233   3.839  21.518  0.00  0.00    +0.000 OA
ENDBRANCH   1  26
TORSDOF 2
ENDMDL
MODEL 3
REMARK VINA RESULT:      -7.8      3.169      4.506
REMARK  Name = 
REMARK  3 active torsions:
REMARK  status: ('A' for Active; 'I' for Inactive)
REMARK    1  A    between atoms: C_1  and  O_2
REMARK    2  A    between atoms: O_2  and  C_3
REMARK    3  A    between atoms: C_13  and  C_15
REMARK                            x       y       z     vdW  Elec       q    Type
REMARK                         _______ _______ _______ _____ _____    ______ ____
ROOT
ATOM      1  C   UNL     1       5.341   5.284  16.060  0.00  0.00    +0.000 A 
ATOM      2  C   UNL     1       5.270   3.894  16.178  0.00  0.00    +0.000 A 
ATOM      3  C   UNL     1       4.403   3.311  17.093  0.00  0.00    +0.000 A 
ATOM      4  C   UNL     1       3.620   4.119  17.920  0.00  0.00    +0.000 A 
ATOM      5  C   UNL     1       3.691   5.540  17.836  0.00  0.00    +0.000 A 
ATOM      6  C   UNL     1       4.560   6.109  16.897  0.00  0.00    +0.000 A 
ATOM      7  C   UNL     1       2.885   6.326  18.787  0.00  0.00    +0.000 A 
ATOM      8  N   UNL     1       2.555   7.684  18.736  0.00  0.00    +0.000 NA
ATOM      9  C   UNL     1       1.825   7.994  19.803  0.00  0.00    +0.000 A 
ATOM     10  N   UNL     1       1.320   9.257  20.084  0.00  0.00    +0.000 N 
ATOM     11  C   UNL     1       0.822   9.619  21.329  0.00  0.00    +0.000 C 
ATOM     12  O   UNL     1       0.852   8.936  22.353  0.00  0.00    +0.000 OA
ATOM     13  S   UNL     1       1.425   6.675  20.822  0.00  0.00    +0.000 S 
ATOM     14  C   UNL     1       2.362   5.655  19.875  0.00  0.00    +0.000 A 
ATOM     15  C   UNL     1       2.561   4.221  20.196  0.00  0.00    +0.000 C 
ATOM     16  C   UNL     1       2.663   3.446  18.887  0.00  0.00    +0.000 C 
ATOM     17  H   UNL     1       1.481   9.945  19.367  0.00  0.00    +0.000 HD
ENDROOT
BRANCH  11  18
ATOM     18  C   UNL     1       0.224  10.974  21.494  0.00  0.00    +0.000 A 
ATOM     19  C   UNL     1      -0.667  11.318  22.516  0.00  0.00    +0.000 A 
ATOM     20  C   UNL     1      -1.090  12.649  22.652  0.00  0.00    +0.000 A 
ATOM     21  C   UNL     1      -0.625  13.638  21.779  0.00  0.00    +0.000 A 
ATOM     22  C   UNL     1       0.268  13.298  20.768  0.00  0.00    +0.000 A 
ATOM     23 BR   UNL     1       0.930  14.628  19.600  0.00  0.00    +0.000 Br
ATOM     24  C   UNL     1       0.692  11.980  20.625  0.00  0.00    +0.000 A 
ENDBRANCH  11  18
BRANCH   1  26
ATOM     25  C   UNL     1       7.066   5.085  14.445  0.00  0.00    +0.000 C 
ATOM     26  O   UNL     1       6.178   5.928  15.182  0.00  0.00    +0.000 OA
ENDBRANCH   1  26
TORSDOF 2
ENDMDL
MODEL 4
REMARK VINA RESULT:      -7.8      4.079      5.104
REMARK  Name = 
REMARK  3 active torsions:
REMARK  status: ('A' for Active; 'I' for Inactive)
REMARK    1  A    between atoms: C_1  and  O_2
REMARK    2  A    between atoms: O_2  and  C_3
REMARK    3  A    between atoms: C_13  and  C_15
REMARK                            x       y       z     vdW  Elec       q    Type
REMARK                         _______ _______ _______ _____ _____    ______ ____
ROOT
ATOM      1  C   UNL     1       5.234   5.440  16.083  0.00  0.00    +0.000 A 
ATOM      2  C   UNL     1       4.927   4.179  16.601  0.00  0.00    +0.000 A 
ATOM      3  C   UNL     1       3.933   4.039  17.561  0.00  0.00    +0.000 A 
ATOM      4  C   UNL     1       3.259   5.166  18.033  0.00  0.00    +0.000 A 
ATOM      5  C   UNL     1       3.569   6.466  17.538  0.00  0.00    +0.000 A 
ATOM      6  C   UNL     1       4.564   6.586  16.560  0.00  0.00    +0.000 A 
ATOM      7  C   UNL     1       2.862   7.615  18.131  0.00  0.00    +0.000 A 
ATOM      8  N   UNL     1       2.765   8.924  17.649  0.00  0.00    +0.000 NA
ATOM      9  C   UNL     1       2.048   9.649  18.502  0.00  0.00    +0.000 A 
ATOM     10  N   UNL     1       1.748  10.997  18.345  0.00  0.00    +0.000 N 
ATOM     11  C   UNL     1       1.260  11.793  19.373  0.00  0.00    +0.000 C 
ATOM     12  O   UNL     1       1.128  11.462  20.552  0.00  0.00    +0.000 OA
ATOM     13  S   UNL     1       1.387   8.781  19.823  0.00  0.00    +0.000 S 
ATOM     14  C   UNL     1       2.184   7.395  19.315  0.00  0.00    +0.000 A 
ATOM     15  C   UNL     1       2.126   6.117  20.065  0.00  0.00    +0.000 C 
ATOM     16  C   UNL     1       2.159   4.970  19.060  0.00  0.00    +0.000 C 
ATOM     17  H   UNL     1       2.055  11.400  17.475  0.00  0.00    +0.000 HD
ENDROOT
BRANCH  11  18
ATOM     18  C   UNL     1       0.889  13.205  19.071  0.00  0.00    +0.000 A 
ATOM     19  C   UNL     1      -0.409  13.714  19.180  0.00  0.00    +0.000 A 
ATOM     20  C   UNL     1      -0.638  15.084  18.979  0.00  0.00    +0.000 A 
ATOM     21  C   UNL     1       0.420  15.947  18.676  0.00  0.00    +0.000 A 
ATOM     22  C   UNL     1       1.712  15.442  18.576  0.00  0.00    +0.000 A 
ATOM     23 BR   UNL     1       3.157  16.601  18.199  0.00  0.00    +0.000 Br
ATOM     24  C   UNL     1       1.948  14.085  18.773  0.00  0.00    +0.000 A 
ENDBRANCH  11  18
BRANCH   1  26
ATOM     25  C   UNL     1       6.973   4.506  14.770  0.00  0.00    +0.000 C 
ATOM     26  O   UNL     1       6.206   5.654  15.137  0.00  0.00    +0.000 OA
ENDBRANCH   1  26
TORSDOF 2
ENDMDL
MODEL 5
REMARK VINA RESULT:      -7.7      2.497      3.803
REMARK  Name = 
REMARK  3 active torsions:
REMARK  status: ('A' for Active; 'I' for Inactive)
REMARK    1  A    between atoms: C_1  and  O_2
REMARK    2  A    between atoms: O_2  and  C_3
REMARK    3  A    between atoms: C_13  and  C_15
REMARK                            x       y       z     vdW  Elec       q    Type
REMARK                         _______ _______ _______ _____ _____    ______ ____
ROOT
ATOM      1  C   UNL     1       5.023   5.379  16.458  0.00  0.00    +0.000 A 
ATOM      2  C   UNL     1       4.944   3.991  16.600  0.00  0.00    +0.000 A 
ATOM      3  C   UNL     1       4.072   3.431  17.524  0.00  0.00    +0.000 A 
ATOM      4  C   UNL     1       3.292   4.257  18.335  0.00  0.00    +0.000 A 
ATOM      5  C   UNL     1       3.371   5.676  18.226  0.00  0.00    +0.000 A 
ATOM      6  C   UNL     1       4.246   6.223  17.279  0.00  0.00    +0.000 A 
ATOM      7  C   UNL     1       2.568   6.484  19.160  0.00  0.00    +0.000 A 
ATOM      8  N   UNL     1       2.246   7.843  19.085  0.00  0.00    +0.000 NA
ATOM      9  C   UNL     1       1.516   8.175  20.145  0.00  0.00    +0.000 A 
ATOM     10  N   UNL     1       1.018   9.446  20.403  0.00  0.00    +0.000 N 
ATOM     11  C   UNL     1       0.519   9.833  21.640  0.00  0.00    +0.000 C 
ATOM     12  O   UNL     1       0.543   9.168  22.676  0.00  0.00    +0.000 OA
ATOM     13  S   UNL     1       1.106   6.877  21.187  0.00  0.00    +0.000 S 
ATOM     14  C   UNL     1       2.039   5.835  20.260  0.00  0.00    +0.000 A 
ATOM     15  C   UNL     1       2.229   4.406  20.606  0.00  0.00    +0.000 C 
ATOM     16  C   UNL     1       2.329   3.607  19.311  0.00  0.00    +0.000 C 
ATOM     17  H   UNL     1       1.184  10.121  19.674  0.00  0.00    +0.000 HD
ENDROOT
BRANCH  11  18
ATOM     18  C   UNL     1      -0.071  11.195  21.780  0.00  0.00    +0.000 A 
ATOM     19  C   UNL     1       0.360  12.313  21.059  0.00  0.00    +0.000 A 
ATOM     20  C   UNL     1      -0.332  13.528  21.180  0.00  0.00    +0.000 A 
ATOM     21  C   UNL     1      -1.452  13.631  22.011  0.00  0.00    +0.000 A 
ATOM     22  C   UNL     1      -1.886  12.516  22.721  0.00  0.00    +0.000 A 
ATOM     23 BR   UNL     1      -3.417  12.630  23.824  0.00  0.00    +0.000 Br
ATOM     24  C   UNL     1      -1.205  11.308  22.608  0.00  0.00    +0.000 A 
ENDBRANCH  11  18
BRANCH   1  26
ATOM     25  C   UNL     1       6.693   5.136  14.792  0.00  0.00    +0.000 C 
ATOM     26  O   UNL     1       5.866   6.003  15.570  0.00  0.00    +0.000 OA
ENDBRANCH   1  26
TORSDOF 2
ENDMDL
MODEL 6
REMARK VINA RESULT:      -7.6      2.659      3.899
REMARK  Name = 
REMARK  3 active torsions:
REMARK  status: ('A' for Active; 'I' for Inactive)
REMARK    1  A    between atoms: C_1  and  O_2
REMARK    2  A    between atoms: O_2  and  C_3
REMARK    3  A    between atoms: C_13  and  C_15
REMARK                            x       y       z     vdW  Elec       q    Type
REMARK                         _______ _______ _______ _____ _____    ______ ____
ROOT
ATOM      1  C   UNL     1       5.056   5.469  16.428  0.00  0.00    +0.000 A 
ATOM      2  C   UNL     1       4.935   4.116  16.755  0.00  0.00    +0.000 A 
ATOM      3  C   UNL     1       4.038   3.709  17.734  0.00  0.00    +0.000 A 
ATOM      4  C   UNL     1       3.274   4.659  18.415  0.00  0.00    +0.000 A 
ATOM      5  C   UNL     1       3.395   6.047  18.117  0.00  0.00    +0.000 A 
ATOM      6  C   UNL     1       4.296   6.437  17.117  0.00  0.00    +0.000 A 
ATOM      7  C   UNL     1       2.607   6.996  18.922  0.00  0.00    +0.000 A 
ATOM      8  N   UNL     1       2.325   8.340  18.660  0.00  0.00    +0.000 NA
ATOM      9  C   UNL     1       1.593   8.833  19.655  0.00  0.00    +0.000 A 
ATOM     10  N   UNL     1       1.130  10.140  19.731  0.00  0.00    +0.000 N 
ATOM     11  C   UNL     1       0.630  10.705  20.897  0.00  0.00    +0.000 C 
ATOM     12  O   UNL     1       0.624  10.185  22.015  0.00  0.00    +0.000 OA
ATOM     13  S   UNL     1       1.135   7.699  20.856  0.00  0.00    +0.000 S 
ATOM     14  C   UNL     1       2.047   6.516  20.091  0.00  0.00    +0.000 A 
ATOM     15  C   UNL     1       2.192   5.142  20.630  0.00  0.00    +0.000 C 
ATOM     16  C   UNL     1       2.282   4.174  19.456  0.00  0.00    +0.000 C 
ATOM     17  H   UNL     1       1.324  10.705  18.920  0.00  0.00    +0.000 HD
ENDROOT
BRANCH  11  18
ATOM     18  C   UNL     1       0.078  12.088  20.844  0.00  0.00    +0.000 A 
ATOM     19  C   UNL     1      -0.142  12.798  19.660  0.00  0.00    +0.000 A 
ATOM     20  C   UNL     1      -0.767  14.053  19.707  0.00  0.00    +0.000 A 
ATOM     21  C   UNL     1      -1.179  14.599  20.926  0.00  0.00    +0.000 A 
ATOM     22  C   UNL     1      -0.969  13.889  22.104  0.00  0.00    +0.000 A 
ATOM     23 BR   UNL     1      -1.549  14.598  23.757  0.00  0.00    +0.000 Br
ATOM     24  C   UNL     1      -0.348  12.644  22.066  0.00  0.00    +0.000 A 
ENDBRANCH  11  18
BRANCH   1  26
ATOM     25  C   UNL     1       6.671   4.949  14.772  0.00  0.00    +0.000 C 
ATOM     26  O   UNL     1       5.926   5.943  15.477  0.00  0.00    +0.000 OA
ENDBRANCH   1  26
TORSDOF 2
ENDMDL
MODEL 7
REMARK VINA RESULT:      -7.6      1.620      2.018
REMARK  Name = 
REMARK  3 active torsions:
REMARK  status: ('A' for Active; 'I' for Inactive)
REMARK    1  A    between atoms: C_1  and  O_2
REMARK    2  A    between atoms: O_2  and  C_3
REMARK    3  A    between atoms: C_13  and  C_15
REMARK                            x       y       z     vdW  Elec       q    Type
REMARK                         _______ _______ _______ _____ _____    ______ ____
ROOT
ATOM      1  C   UNL     1       3.238   3.477  20.336  0.00  0.00    +0.000 A 
ATOM      2  C   UNL     1       4.189   3.265  19.334  0.00  0.00    +0.000 A 
ATOM      3  C   UNL     1       4.535   4.294  18.468  0.00  0.00    +0.000 A 
ATOM      4  C   UNL     1       3.907   5.536  18.578  0.00  0.00    +0.000 A 
ATOM      5  C   UNL     1       2.917   5.771  19.576  0.00  0.00    +0.000 A 
ATOM      6  C   UNL     1       2.592   4.726  20.450  0.00  0.00    +0.000 A 
ATOM      7  C   UNL     1       2.251   7.085  19.589  0.00  0.00    +0.000 A 
ATOM      8  N   UNL     1       1.479   7.663  20.602  0.00  0.00    +0.000 NA
ATOM      9  C   UNL     1       1.052   8.854  20.197  0.00  0.00    +0.000 A 
ATOM     10  N   UNL     1       0.256   9.713  20.946  0.00  0.00    +0.000 N 
ATOM     11  C   UNL     1      -0.413  10.801  20.402  0.00  0.00    +0.000 C 
ATOM     12  O   UNL     1      -0.482  11.091  19.207  0.00  0.00    +0.000 OA
ATOM     13  S   UNL     1       1.638   9.360  18.668  0.00  0.00    +0.000 S 
ATOM     14  C   UNL     1       2.403   7.880  18.469  0.00  0.00    +0.000 A 
ATOM     15  C   UNL     1       3.150   7.522  17.238  0.00  0.00    +0.000 C 
ATOM     16  C   UNL     1       4.333   6.645  17.633  0.00  0.00    +0.000 C 
ATOM     17  H   UNL     1       0.071   9.403  21.887  0.00  0.00    +0.000 HD
ENDROOT
BRANCH  11  18
ATOM     18  C   UNL     1      -1.167  11.707  21.314  0.00  0.00    +0.000 A 
ATOM     19  C   UNL     1      -1.494  11.391  22.637  0.00  0.00    +0.000 A 
ATOM     20  C   UNL     1      -2.111  12.354  23.450  0.00  0.00    +0.000 A 
ATOM     21  C   UNL     1      -2.397  13.629  22.953  0.00  0.00    +0.000 A 
ATOM     22  C   UNL     1      -2.064  13.946  21.640  0.00  0.00    +0.000 A 
ATOM     23 BR   UNL     1      -2.415  15.676  20.963  0.00  0.00    +0.000 Br
ATOM     24  C   UNL     1      -1.453  12.997  20.827  0.00  0.00    +0.000 A 
ENDBRANCH  11  18
BRANCH   1  26
ATOM     25  C   UNL     1       1.458   2.517  21.574  0.00  0.00    +0.000 C 
ATOM     26  O   UNL     1       2.844   2.506  21.223  0.00  0.00    +0.000 OA
ENDBRANCH   1  26
TORSDOF 2
ENDMDL
MODEL 8
REMARK VINA RESULT:      -7.5      4.712      9.604
REMARK  Name = 
REMARK  3 active torsions:
REMARK  status: ('A' for Active; 'I' for Inactive)
REMARK    1  A    between atoms: C_1  and  O_2
REMARK    2  A    between atoms: O_2  and  C_3
REMARK    3  A    between atoms: C_13  and  C_15
REMARK                            x       y       z     vdW  Elec       q    Type
REMARK                         _______ _______ _______ _____ _____    ______ ____
ROOT
ATOM      1  C   UNL     1      -2.272  11.296  17.277  0.00  0.00    +0.000 A 
ATOM      2  C   UNL     1      -2.827  11.884  18.418  0.00  0.00    +0.000 A 
ATOM      3  C   UNL     1      -2.256  11.669  19.665  0.00  0.00    +0.000 A 
ATOM      4  C   UNL     1      -1.140  10.838  19.785  0.00  0.00    +0.000 A 
ATOM      5  C   UNL     1      -0.569  10.208  18.641  0.00  0.00    +0.000 A 
ATOM      6  C   UNL     1      -1.151  10.448  17.390  0.00  0.00    +0.000 A 
ATOM      7  C   UNL     1       0.565   9.293  18.854  0.00  0.00    +0.000 A 
ATOM      8  N   UNL     1       1.467   8.786  17.912  0.00  0.00    +0.000 NA
ATOM      9  C   UNL     1       2.328   7.980  18.526  0.00  0.00    +0.000 A 
ATOM     10  N   UNL     1       3.365   7.298  17.900  0.00  0.00    +0.000 N 
ATOM     11  C   UNL     1       4.054   6.249  18.494  0.00  0.00    +0.000 C 
ATOM     12  O   UNL     1       3.788   5.721  19.575  0.00  0.00    +0.000 OA
ATOM     13  S   UNL     1       2.159   7.889  20.228  0.00  0.00    +0.000 S 
ATOM     14  C   UNL     1       0.802   8.873  20.149  0.00  0.00    +0.000 A 
ATOM     15  C   UNL     1       0.001   9.233  21.345  0.00  0.00    +0.000 C 
ATOM     16  C   UNL     1      -0.526  10.651  21.160  0.00  0.00    +0.000 C 
ATOM     17  H   UNL     1       3.483   7.513  16.924  0.00  0.00    +0.000 HD
ENDROOT
BRANCH  11  18
ATOM     18  C   UNL     1       5.207   5.647  17.767  0.00  0.00    +0.000 A 
ATOM     19  C   UNL     1       6.434   5.338  18.363  0.00  0.00    +0.000 A 
ATOM     20  C   UNL     1       7.421   4.673  17.619  0.00  0.00    +0.000 A 
ATOM     21  C   UNL     1       7.188   4.310  16.289  0.00  0.00    +0.000 A 
ATOM     22  C   UNL     1       5.965   4.610  15.699  0.00  0.00    +0.000 A 
ATOM     23 BR   UNL     1       5.623   4.098  13.912  0.00  0.00    +0.000 Br
ATOM     24  C   UNL     1       4.981   5.270  16.428  0.00  0.00    +0.000 A 
ENDBRANCH  11  18
BRANCH   1  26
ATOM     25  C   UNL     1      -4.059  10.852  15.783  0.00  0.00    +0.000 C 
ATOM     26  O   UNL     1      -2.787  11.459  16.015  0.00  0.00    +0.000 OA
ENDBRANCH   1  26
TORSDOF 2
ENDMDL
MODEL 9
REMARK VINA RESULT:      -7.5      3.625      5.196
REMARK  Name = 
REMARK  3 active torsions:
REMARK  status: ('A' for Active; 'I' for Inactive)
REMARK    1  A    between atoms: C_1  and  O_2
REMARK    2  A    between atoms: O_2  and  C_3
REMARK    3  A    between atoms: C_13  and  C_15
REMARK                            x       y       z     vdW  Elec       q    Type
REMARK                         _______ _______ _______ _____ _____    ______ ____
ROOT
ATOM      1  C   UNL     1       6.145   5.104  15.094  0.00  0.00    +0.000 A 
ATOM      2  C   UNL     1       6.310   3.744  15.368  0.00  0.00    +0.000 A 
ATOM      3  C   UNL     1       5.584   3.142  16.388  0.00  0.00    +0.000 A 
ATOM      4  C   UNL     1       4.707   3.905  17.161  0.00  0.00    +0.000 A 
ATOM      5  C   UNL     1       4.537   5.298  16.916  0.00  0.00    +0.000 A 
ATOM      6  C   UNL     1       5.267   5.885  15.875  0.00  0.00    +0.000 A 
ATOM      7  C   UNL     1       3.645   6.052  17.815  0.00  0.00    +0.000 A 
ATOM      8  N   UNL     1       3.092   7.323  17.632  0.00  0.00    +0.000 NA
ATOM      9  C   UNL     1       2.358   7.634  18.695  0.00  0.00    +0.000 A 
ATOM     10  N   UNL     1       1.660   8.825  18.861  0.00  0.00    +0.000 N 
ATOM     11  C   UNL     1       1.152   9.246  20.082  0.00  0.00    +0.000 C 
ATOM     12  O   UNL     1       1.330   8.702  21.173  0.00  0.00    +0.000 OA
ATOM     13  S   UNL     1       2.218   6.399  19.874  0.00  0.00    +0.000 S 
ATOM     14  C   UNL     1       3.279   5.438  18.997  0.00  0.00    +0.000 A 
ATOM     15  C   UNL     1       3.724   4.103  19.464  0.00  0.00    +0.000 C 
ATOM     16  C   UNL     1       3.908   3.206  18.246  0.00  0.00    +0.000 C 
ATOM     17  H   UNL     1       1.680   9.440  18.064  0.00  0.00    +0.000 HD
ENDROOT
BRANCH  11  18
ATOM     18  C   UNL     1       0.343  10.497  20.128  0.00  0.00    +0.000 A 
ATOM     19  C   UNL     1       0.773  11.687  20.724  0.00  0.00    +0.000 A 
ATOM     20  C   UNL     1      -0.015  12.843  20.620  0.00  0.00    +0.000 A 
ATOM     21  C   UNL     1      -1.225  12.819  19.919  0.00  0.00    +0.000 A 
ATOM     22  C   UNL     1      -1.649  11.638  19.318  0.00  0.00    +0.000 A 
ATOM     23 BR   UNL     1      -3.266  11.598  18.340  0.00  0.00    +0.000 Br
ATOM     24  C   UNL     1      -0.874  10.487  19.418  0.00  0.00    +0.000 A 
ENDBRANCH  11  18
BRANCH   1  26
ATOM     25  C   UNL     1       7.522   4.934  13.171  0.00  0.00    +0.000 C 
ATOM     26  O   UNL     1       6.832   5.766  14.106  0.00  0.00    +0.000 OA
ENDBRANCH   1  26
TORSDOF 2
ENDMDL
