MODEL 1
REMARK VINA RESULT:      -9.0      0.000      0.000
REMARK  Name = 
REMARK  7 active torsions:
REMARK  status: ('A' for Active; 'I' for Inactive)
REMARK    1  A    between atoms: C_1  and  C_2
REMARK    2  A    between atoms: C_3  and  C_4
REMARK    3  A    between atoms: C_4  and  O_6
REMARK    4  A    between atoms: C_10  and  N_11
REMARK    5  A    between atoms: C_17  and  O_18
REMARK    6  A    between atoms: O_18  and  C_19
REMARK    7  A    between atoms: C_23  and  N_24
REMARK                            x       y       z     vdW  Elec       q    Type
REMARK                         _______ _______ _______ _____ _____    ______ ____
ROOT
ATOM      1  N   UNL     1       0.169  10.748  19.466  0.00  0.00    +0.000 N 
ATOM      2  C   UNL     1       0.208   9.894  20.561  0.00  0.00    +0.000 C 
ATOM      3  O   UNL     1      -0.566   9.817  21.503  0.00  0.00    +0.000 OA
ATOM      4  C   UNL     1       1.239   8.889  20.295  0.00  0.00    +0.000 A 
ATOM      5  C   UNL     1       1.322   7.607  20.801  0.00  0.00    +0.000 A 
ATOM      6  C   UNL     1       1.971   6.660  20.003  0.00  0.00    +0.000 A 
ATOM      7  C   UNL     1       2.504   7.007  18.738  0.00  0.00    +0.000 A 
ATOM      8  C   UNL     1       2.479   8.333  18.294  0.00  0.00    +0.000 A 
ATOM      9  C   UNL     1       1.845   9.248  19.113  0.00  0.00    +0.000 A 
ATOM     10  C   UNL     1       1.339  10.564  18.763  0.00  0.00    +0.000 C 
ATOM     11  O   UNL     1       1.943  11.328  18.027  0.00  0.00    +0.000 OA
ENDROOT
BRANCH   1  18
ATOM     12  C   UNL     1      -2.119  12.600  19.924  0.00  0.00    +0.000 C 
ATOM     13  C   UNL     1      -2.166  11.487  18.910  0.00  0.00    +0.000 A 
ATOM     14  C   UNL     1      -3.341  11.224  18.158  0.00  0.00    +0.000 A 
ATOM     15  C   UNL     1      -3.320  10.326  17.076  0.00  0.00    +0.000 A 
ATOM     16  C   UNL     1      -2.160   9.647  16.745  0.00  0.00    +0.000 A 
ATOM     17  C   UNL     1      -1.041   9.802  17.550  0.00  0.00    +0.000 A 
ATOM     18  C   UNL     1      -1.035  10.680  18.661  0.00  0.00    +0.000 A 
BRANCH  14  19
ATOM     19  C   UNL     1      -4.670  11.844  18.412  0.00  0.00    +0.000 C 
ATOM     20  O   UNL     1      -5.224  11.794  19.499  0.00  0.00    +0.000 OA
BRANCH  19  21
ATOM     21  O   UNL     1      -5.150  12.565  17.380  0.00  0.00    +0.000 OA
ATOM     22  H   UNL     1      -5.594  13.396  17.628  0.00  0.00    +0.000 HD
ENDBRANCH  19  21
ENDBRANCH  14  19
ENDBRANCH   1  18
BRANCH   7  23
ATOM     23  O   UNL     1       2.819   5.914  17.960  0.00  0.00    +0.000 OA
BRANCH  23  24
ATOM     24  C   UNL     1       4.114   5.491  17.805  0.00  0.00    +0.000 A 
ATOM     25  C   UNL     1       4.901   5.463  18.963  0.00  0.00    +0.000 A 
ATOM     26  C   UNL     1       6.265   5.183  18.885  0.00  0.00    +0.000 A 
ATOM     27  C   UNL     1       6.850   4.925  17.649  0.00  0.00    +0.000 A 
ATOM     28  C   UNL     1       6.057   4.964  16.491  0.00  0.00    +0.000 A 
ATOM     29  C   UNL     1       4.690   5.254  16.561  0.00  0.00    +0.000 A 
BRANCH  28  30
ATOM     30  N   UNL     1       6.663   4.715  15.177  0.00  0.00    +0.000 N 
ATOM     31  O   UNL     1       6.093   3.902  14.439  0.00  0.00    +0.000 OA
ATOM     32  O   UNL     1       7.700   5.334  14.888  0.00  0.00    +0.000 OA
ENDBRANCH  28  30
ENDBRANCH  23  24
ENDBRANCH   7  23
TORSDOF 6
ENDMDL
MODEL 2
REMARK VINA RESULT:      -9.0      1.325      1.537
REMARK  Name = 
REMARK  7 active torsions:
REMARK  status: ('A' for Active; 'I' for Inactive)
REMARK    1  A    between atoms: C_1  and  C_2
REMARK    2  A    between atoms: C_3  and  C_4
REMARK    3  A    between atoms: C_4  and  O_6
REMARK    4  A    between atoms: C_10  and  N_11
REMARK    5  A    between atoms: C_17  and  O_18
REMARK    6  A    between atoms: O_18  and  C_19
REMARK    7  A    between atoms: C_23  and  N_24
REMARK                            x       y       z     vdW  Elec       q    Type
REMARK                         _______ _______ _______ _____ _____    ______ ____
ROOT
ATOM      1  N   UNL     1       0.121  10.829  19.448  0.00  0.00    +0.000 N 
ATOM      2  C   UNL     1       0.206   9.996  20.556  0.00  0.00    +0.000 C 
ATOM      3  O   UNL     1      -0.524   9.943  21.535  0.00  0.00    +0.000 OA
ATOM      4  C   UNL     1       1.217   8.978  20.263  0.00  0.00    +0.000 A 
ATOM      5  C   UNL     1       1.316   7.706  20.790  0.00  0.00    +0.000 A 
ATOM      6  C   UNL     1       1.920   6.740  19.982  0.00  0.00    +0.000 A 
ATOM      7  C   UNL     1       2.396   7.057  18.686  0.00  0.00    +0.000 A 
ATOM      8  C   UNL     1       2.358   8.374  18.217  0.00  0.00    +0.000 A 
ATOM      9  C   UNL     1       1.770   9.310  19.047  0.00  0.00    +0.000 A 
ATOM     10  C   UNL     1       1.256  10.622  18.695  0.00  0.00    +0.000 C 
ATOM     11  O   UNL     1       1.829  11.367  17.916  0.00  0.00    +0.000 OA
ENDROOT
BRANCH   1  18
ATOM     12  C   UNL     1      -2.129  12.710  19.969  0.00  0.00    +0.000 C 
ATOM     13  C   UNL     1      -2.231  11.575  18.984  0.00  0.00    +0.000 A 
ATOM     14  C   UNL     1      -3.442  11.306  18.294  0.00  0.00    +0.000 A 
ATOM     15  C   UNL     1      -3.478  10.385  17.231  0.00  0.00    +0.000 A 
ATOM     16  C   UNL     1      -2.341   9.689  16.862  0.00  0.00    +0.000 A 
ATOM     17  C   UNL     1      -1.184   9.851  17.611  0.00  0.00    +0.000 A 
ATOM     18  C   UNL     1      -1.120  10.754  18.701  0.00  0.00    +0.000 A 
BRANCH  14  19
ATOM     19  C   UNL     1      -4.753  11.944  18.594  0.00  0.00    +0.000 C 
ATOM     20  O   UNL     1      -5.303  11.840  19.680  0.00  0.00    +0.000 OA
BRANCH  19  21
ATOM     21  O   UNL     1      -5.220  12.739  17.613  0.00  0.00    +0.000 OA
ATOM     22  H   UNL     1      -4.830  12.584  16.734  0.00  0.00    +0.000 HD
ENDBRANCH  19  21
ENDBRANCH  14  19
ENDBRANCH   1  18
BRANCH   7  23
ATOM     23  O   UNL     1       2.668   5.947  17.917  0.00  0.00    +0.000 OA
BRANCH  23  24
ATOM     24  C   UNL     1       3.939   5.662  17.490  0.00  0.00    +0.000 A 
ATOM     25  C   UNL     1       4.120   4.424  16.860  0.00  0.00    +0.000 A 
ATOM     26  C   UNL     1       5.398   3.985  16.516  0.00  0.00    +0.000 A 
ATOM     27  C   UNL     1       6.504   4.783  16.796  0.00  0.00    +0.000 A 
ATOM     28  C   UNL     1       6.316   6.019  17.436  0.00  0.00    +0.000 A 
ATOM     29  C   UNL     1       5.038   6.461  17.792  0.00  0.00    +0.000 A 
BRANCH  28  30
ATOM     30  N   UNL     1       7.474   6.863  17.757  0.00  0.00    +0.000 N 
ATOM     31  O   UNL     1       8.077   6.615  18.808  0.00  0.00    +0.000 OA
ATOM     32  O   UNL     1       7.776   7.764  16.957  0.00  0.00    +0.000 OA
ENDBRANCH  28  30
ENDBRANCH  23  24
ENDBRANCH   7  23
TORSDOF 6
ENDMDL
MODEL 3
REMARK VINA RESULT:      -8.8      1.580      1.862
REMARK  Name = 
REMARK  7 active torsions:
REMARK  status: ('A' for Active; 'I' for Inactive)
REMARK    1  A    between atoms: C_1  and  C_2
REMARK    2  A    between atoms: C_3  and  C_4
REMARK    3  A    between atoms: C_4  and  O_6
REMARK    4  A    between atoms: C_10  and  N_11
REMARK    5  A    between atoms: C_17  and  O_18
REMARK    6  A    between atoms: O_18  and  C_19
REMARK    7  A    between atoms: C_23  and  N_24
REMARK                            x       y       z     vdW  Elec       q    Type
REMARK                         _______ _______ _______ _____ _____    ______ ____
ROOT
ATOM      1  N   UNL     1      -0.177  11.225  19.745  0.00  0.00    +0.000 N 
ATOM      2  C   UNL     1       0.053  10.306  20.761  0.00  0.00    +0.000 C 
ATOM      3  O   UNL     1      -0.601  10.101  21.773  0.00  0.00    +0.000 OA
ATOM      4  C   UNL     1       1.120   9.411  20.311  0.00  0.00    +0.000 A 
ATOM      5  C   UNL     1       1.359   8.110  20.707  0.00  0.00    +0.000 A 
ATOM      6  C   UNL     1       1.984   7.277  19.775  0.00  0.00    +0.000 A 
ATOM      7  C   UNL     1       2.341   7.750  18.489  0.00  0.00    +0.000 A 
ATOM      8  C   UNL     1       2.163   9.096  18.151  0.00  0.00    +0.000 A 
ATOM      9  C   UNL     1       1.559   9.898  19.101  0.00  0.00    +0.000 A 
ATOM     10  C   UNL     1       0.917  11.187  18.907  0.00  0.00    +0.000 C 
ATOM     11  O   UNL     1       1.372  12.046  18.169  0.00  0.00    +0.000 OA
ENDROOT
BRANCH   1  18
ATOM     12  C   UNL     1      -2.403  13.126  20.290  0.00  0.00    +0.000 C 
ATOM     13  C   UNL     1      -2.554  11.941  19.372  0.00  0.00    +0.000 A 
ATOM     14  C   UNL     1      -3.800  11.634  18.764  0.00  0.00    +0.000 A 
ATOM     15  C   UNL     1      -3.889  10.659  17.754  0.00  0.00    +0.000 A 
ATOM     16  C   UNL     1      -2.770   9.946  17.361  0.00  0.00    +0.000 A 
ATOM     17  C   UNL     1      -1.575  10.150  18.036  0.00  0.00    +0.000 A 
ATOM     18  C   UNL     1      -1.456  11.108  19.072  0.00  0.00    +0.000 A 
BRANCH  14  19
ATOM     19  C   UNL     1      -5.095  12.284  19.102  0.00  0.00    +0.000 C 
ATOM     20  O   UNL     1      -5.651  12.125  20.178  0.00  0.00    +0.000 OA
BRANCH  19  21
ATOM     21  O   UNL     1      -5.539  13.152  18.172  0.00  0.00    +0.000 OA
ATOM     22  H   UNL     1      -6.489  13.359  18.221  0.00  0.00    +0.000 HD
ENDBRANCH  19  21
ENDBRANCH  14  19
ENDBRANCH   1  18
BRANCH   7  23
ATOM     23  O   UNL     1       2.648   6.742  17.602  0.00  0.00    +0.000 OA
BRANCH  23  24
ATOM     24  C   UNL     1       3.463   5.698  17.954  0.00  0.00    +0.000 A 
ATOM     25  C   UNL     1       2.831   4.473  18.204  0.00  0.00    +0.000 A 
ATOM     26  C   UNL     1       3.556   3.391  18.702  0.00  0.00    +0.000 A 
ATOM     27  C   UNL     1       4.919   3.526  18.952  0.00  0.00    +0.000 A 
ATOM     28  C   UNL     1       5.544   4.759  18.709  0.00  0.00    +0.000 A 
ATOM     29  C   UNL     1       4.822   5.851  18.218  0.00  0.00    +0.000 A 
BRANCH  28  30
ATOM     30  N   UNL     1       6.976   4.924  18.987  0.00  0.00    +0.000 N 
ATOM     31  O   UNL     1       7.284   5.532  20.019  0.00  0.00    +0.000 OA
ATOM     32  O   UNL     1       7.785   4.441  18.177  0.00  0.00    +0.000 OA
ENDBRANCH  28  30
ENDBRANCH  23  24
ENDBRANCH   7  23
TORSDOF 6
ENDMDL
MODEL 4
REMARK VINA RESULT:      -8.7      2.316      3.100
REMARK  Name = 
REMARK  7 active torsions:
REMARK  status: ('A' for Active; 'I' for Inactive)
REMARK    1  A    between atoms: C_1  and  C_2
REMARK    2  A    between atoms: C_3  and  C_4
REMARK    3  A    between atoms: C_4  and  O_6
REMARK    4  A    between atoms: C_10  and  N_11
REMARK    5  A    between atoms: C_17  and  O_18
REMARK    6  A    between atoms: O_18  and  C_19
REMARK    7  A    between atoms: C_23  and  N_24
REMARK                            x       y       z     vdW  Elec       q    Type
REMARK                         _______ _______ _______ _____ _____    ______ ____
ROOT
ATOM      1  N   UNL     1      -0.099  10.943  19.507  0.00  0.00    +0.000 N 
ATOM      2  C   UNL     1      -0.017  10.082  20.595  0.00  0.00    +0.000 C 
ATOM      3  O   UNL     1      -0.792   9.953  21.531  0.00  0.00    +0.000 OA
ATOM      4  C   UNL     1       1.072   9.141  20.328  0.00  0.00    +0.000 A 
ATOM      5  C   UNL     1       1.226   7.862  20.825  0.00  0.00    +0.000 A 
ATOM      6  C   UNL     1       1.934   6.962  20.024  0.00  0.00    +0.000 A 
ATOM      7  C   UNL     1       2.454   7.349  18.765  0.00  0.00    +0.000 A 
ATOM      8  C   UNL     1       2.354   8.675  18.331  0.00  0.00    +0.000 A 
ATOM      9  C   UNL     1       1.664   9.545  19.154  0.00  0.00    +0.000 A 
ATOM     10  C   UNL     1       1.085  10.832  18.811  0.00  0.00    +0.000 C 
ATOM     11  O   UNL     1       1.647  11.636  18.084  0.00  0.00    +0.000 OA
ENDROOT
BRANCH   1  18
ATOM     12  C   UNL     1      -2.450  12.732  19.888  0.00  0.00    +0.000 C 
ATOM     13  C   UNL     1      -2.450  11.588  18.907  0.00  0.00    +0.000 A 
ATOM     14  C   UNL     1      -3.609  11.265  18.153  0.00  0.00    +0.000 A 
ATOM     15  C   UNL     1      -3.548  10.336  17.098  0.00  0.00    +0.000 A 
ATOM     16  C   UNL     1      -2.363   9.686  16.798  0.00  0.00    +0.000 A 
ATOM     17  C   UNL     1      -1.258   9.901  17.609  0.00  0.00    +0.000 A 
ATOM     18  C   UNL     1      -1.292  10.811  18.693  0.00  0.00    +0.000 A 
BRANCH  14  19
ATOM     19  C   UNL     1      -4.959  11.849  18.375  0.00  0.00    +0.000 C 
ATOM     20  O   UNL     1      -5.489  12.608  17.578  0.00  0.00    +0.000 OA
BRANCH  19  21
ATOM     21  O   UNL     1      -5.594  11.377  19.466  0.00  0.00    +0.000 OA
ATOM     22  H   UNL     1      -5.043  10.842  20.065  0.00  0.00    +0.000 HD
ENDBRANCH  19  21
ENDBRANCH  14  19
ENDBRANCH   1  18
BRANCH   7  23
ATOM     23  O   UNL     1       2.837   6.282  17.981  0.00  0.00    +0.000 OA
BRANCH  23  24
ATOM     24  C   UNL     1       2.601   4.988  18.363  0.00  0.00    +0.000 A 
ATOM     25  C   UNL     1       1.461   4.379  17.825  0.00  0.00    +0.000 A 
ATOM     26  C   UNL     1       1.060   3.116  18.260  0.00  0.00    +0.000 A 
ATOM     27  C   UNL     1       1.799   2.452  19.235  0.00  0.00    +0.000 A 
ATOM     28  C   UNL     1       2.936   3.072  19.777  0.00  0.00    +0.000 A 
ATOM     29  C   UNL     1       3.338   4.342  19.352  0.00  0.00    +0.000 A 
BRANCH  28  30
ATOM     30  N   UNL     1       3.715   2.394  20.821  0.00  0.00    +0.000 N 
ATOM     31  O   UNL     1       4.878   2.081  20.542  0.00  0.00    +0.000 OA
ATOM     32  O   UNL     1       3.162   2.181  21.914  0.00  0.00    +0.000 OA
ENDBRANCH  28  30
ENDBRANCH  23  24
ENDBRANCH   7  23
TORSDOF 6
ENDMDL
MODEL 5
REMARK VINA RESULT:      -8.6      1.503      1.810
REMARK  Name = 
REMARK  7 active torsions:
REMARK  status: ('A' for Active; 'I' for Inactive)
REMARK    1  A    between atoms: C_1  and  C_2
REMARK    2  A    between atoms: C_3  and  C_4
REMARK    3  A    between atoms: C_4  and  O_6
REMARK    4  A    between atoms: C_10  and  N_11
REMARK    5  A    between atoms: C_17  and  O_18
REMARK    6  A    between atoms: O_18  and  C_19
REMARK    7  A    between atoms: C_23  and  N_24
REMARK                            x       y       z     vdW  Elec       q    Type
REMARK                         _______ _______ _______ _____ _____    ______ ____
ROOT
ATOM      1  N   UNL     1      -0.321  11.214  19.728  0.00  0.00    +0.000 N 
ATOM      2  C   UNL     1      -0.223  10.388  20.842  0.00  0.00    +0.000 C 
ATOM      3  O   UNL     1      -0.992  10.276  21.785  0.00  0.00    +0.000 OA
ATOM      4  C   UNL     1       0.877   9.454  20.599  0.00  0.00    +0.000 A 
ATOM      5  C   UNL     1       1.051   8.192  21.133  0.00  0.00    +0.000 A 
ATOM      6  C   UNL     1       1.767   7.278  20.357  0.00  0.00    +0.000 A 
ATOM      7  C   UNL     1       2.278   7.633  19.085  0.00  0.00    +0.000 A 
ATOM      8  C   UNL     1       2.159   8.944  18.611  0.00  0.00    +0.000 A 
ATOM      9  C   UNL     1       1.459   9.830  19.410  0.00  0.00    +0.000 A 
ATOM     10  C   UNL     1       0.862  11.098  19.031  0.00  0.00    +0.000 C 
ATOM     11  O   UNL     1       1.411  11.887  18.278  0.00  0.00    +0.000 OA
ENDROOT
BRANCH   1  18
ATOM     12  C   UNL     1      -2.727  12.924  20.126  0.00  0.00    +0.000 C 
ATOM     13  C   UNL     1      -2.697  11.779  19.146  0.00  0.00    +0.000 A 
ATOM     14  C   UNL     1      -3.850  11.417  18.401  0.00  0.00    +0.000 A 
ATOM     15  C   UNL     1      -3.765  10.490  17.346  0.00  0.00    +0.000 A 
ATOM     16  C   UNL     1      -2.563   9.880  17.038  0.00  0.00    +0.000 A 
ATOM     17  C   UNL     1      -1.459  10.132  17.840  0.00  0.00    +0.000 A 
ATOM     18  C   UNL     1      -1.515  11.042  18.924  0.00  0.00    +0.000 A 
BRANCH  14  19
ATOM     19  C   UNL     1      -5.217  11.956  18.633  0.00  0.00    +0.000 C 
ATOM     20  O   UNL     1      -5.951  11.534  19.514  0.00  0.00    +0.000 OA
BRANCH  19  21
ATOM     21  O   UNL     1      -5.529  13.023  17.872  0.00  0.00    +0.000 OA
ATOM     22  H   UNL     1      -4.933  13.787  17.969  0.00  0.00    +0.000 HD
ENDBRANCH  19  21
ENDBRANCH  14  19
ENDBRANCH   1  18
BRANCH   7  23
ATOM     23  O   UNL     1       2.672   6.549  18.331  0.00  0.00    +0.000 OA
BRANCH  23  24
ATOM     24  C   UNL     1       3.954   6.429  17.861  0.00  0.00    +0.000 A 
ATOM     25  C   UNL     1       4.153   6.745  16.511  0.00  0.00    +0.000 A 
ATOM     26  C   UNL     1       5.389   6.521  15.906  0.00  0.00    +0.000 A 
ATOM     27  C   UNL     1       6.436   5.983  16.649  0.00  0.00    +0.000 A 
ATOM     28  C   UNL     1       6.228   5.659  17.999  0.00  0.00    +0.000 A 
ATOM     29  C   UNL     1       4.988   5.872  18.610  0.00  0.00    +0.000 A 
BRANCH  28  30
ATOM     30  N   UNL     1       7.316   5.071  18.790  0.00  0.00    +0.000 N 
ATOM     31  O   UNL     1       7.353   5.353  19.993  0.00  0.00    +0.000 OA
ATOM     32  O   UNL     1       8.123   4.328  18.207  0.00  0.00    +0.000 OA
ENDBRANCH  28  30
ENDBRANCH  23  24
ENDBRANCH   7  23
TORSDOF 6
ENDMDL
MODEL 6
REMARK VINA RESULT:      -8.6      1.997      2.173
REMARK  Name = 
REMARK  7 active torsions:
REMARK  status: ('A' for Active; 'I' for Inactive)
REMARK    1  A    between atoms: C_1  and  C_2
REMARK    2  A    between atoms: C_3  and  C_4
REMARK    3  A    between atoms: C_4  and  O_6
REMARK    4  A    between atoms: C_10  and  N_11
REMARK    5  A    between atoms: C_17  and  O_18
REMARK    6  A    between atoms: O_18  and  C_19
REMARK    7  A    between atoms: C_23  and  N_24
REMARK                            x       y       z     vdW  Elec       q    Type
REMARK                         _______ _______ _______ _____ _____    ______ ____
ROOT
ATOM      1  N   UNL     1      -0.346  11.428  19.831  0.00  0.00    +0.000 N 
ATOM      2  C   UNL     1      -0.121  10.568  20.900  0.00  0.00    +0.000 C 
ATOM      3  O   UNL     1      -0.772  10.431  21.924  0.00  0.00    +0.000 OA
ATOM      4  C   UNL     1       0.936   9.639  20.499  0.00  0.00    +0.000 A 
ATOM      5  C   UNL     1       1.164   8.361  20.971  0.00  0.00    +0.000 A 
ATOM      6  C   UNL     1       1.777   7.468  20.088  0.00  0.00    +0.000 A 
ATOM      7  C   UNL     1       2.133   7.860  18.775  0.00  0.00    +0.000 A 
ATOM      8  C   UNL     1       1.967   9.185  18.358  0.00  0.00    +0.000 A 
ATOM      9  C   UNL     1       1.374  10.048  19.261  0.00  0.00    +0.000 A 
ATOM     10  C   UNL     1       0.744  11.329  18.993  0.00  0.00    +0.000 C 
ATOM     11  O   UNL     1       1.204  12.139  18.204  0.00  0.00    +0.000 OA
ENDROOT
BRANCH   1  18
ATOM     12  C   UNL     1      -2.591  13.311  20.362  0.00  0.00    +0.000 C 
ATOM     13  C   UNL     1      -2.735  12.108  19.465  0.00  0.00    +0.000 A 
ATOM     14  C   UNL     1      -3.981  11.776  18.873  0.00  0.00    +0.000 A 
ATOM     15  C   UNL     1      -4.067  10.782  17.881  0.00  0.00    +0.000 A 
ATOM     16  C   UNL     1      -2.942  10.077  17.490  0.00  0.00    +0.000 A 
ATOM     17  C   UNL     1      -1.744  10.306  18.152  0.00  0.00    +0.000 A 
ATOM     18  C   UNL     1      -1.629  11.284  19.171  0.00  0.00    +0.000 A 
BRANCH  14  19
ATOM     19  C   UNL     1      -5.282  12.415  19.210  0.00  0.00    +0.000 C 
ATOM     20  O   UNL     1      -5.939  12.096  20.190  0.00  0.00    +0.000 OA
BRANCH  19  21
ATOM     21  O   UNL     1      -5.612  13.452  18.416  0.00  0.00    +0.000 OA
ATOM     22  H   UNL     1      -5.937  13.208  17.532  0.00  0.00    +0.000 HD
ENDBRANCH  19  21
ENDBRANCH  14  19
ENDBRANCH   1  18
BRANCH   7  23
ATOM     23  O   UNL     1       2.427   6.798  17.948  0.00  0.00    +0.000 OA
BRANCH  23  24
ATOM     24  C   UNL     1       3.491   5.969  18.194  0.00  0.00    +0.000 A 
ATOM     25  C   UNL     1       4.750   6.440  17.800  0.00  0.00    +0.000 A 
ATOM     26  C   UNL     1       5.871   5.615  17.879  0.00  0.00    +0.000 A 
ATOM     27  C   UNL     1       5.742   4.314  18.357  0.00  0.00    +0.000 A 
ATOM     28  C   UNL     1       4.475   3.845  18.742  0.00  0.00    +0.000 A 
ATOM     29  C   UNL     1       3.345   4.664  18.656  0.00  0.00    +0.000 A 
BRANCH  28  30
ATOM     30  N   UNL     1       4.318   2.469  19.229  0.00  0.00    +0.000 N 
ATOM     31  O   UNL     1       3.607   1.712  18.558  0.00  0.00    +0.000 OA
ATOM     32  O   UNL     1       4.909   2.151  20.274  0.00  0.00    +0.000 OA
ENDBRANCH  28  30
ENDBRANCH  23  24
ENDBRANCH   7  23
TORSDOF 6
ENDMDL
MODEL 7
REMARK VINA RESULT:      -8.4      1.419      1.881
REMARK  Name = 
REMARK  7 active torsions:
REMARK  status: ('A' for Active; 'I' for Inactive)
REMARK    1  A    between atoms: C_1  and  C_2
REMARK    2  A    between atoms: C_3  and  C_4
REMARK    3  A    between atoms: C_4  and  O_6
REMARK    4  A    between atoms: C_10  and  N_11
REMARK    5  A    between atoms: C_17  and  O_18
REMARK    6  A    between atoms: O_18  and  C_19
REMARK    7  A    between atoms: C_23  and  N_24
REMARK                            x       y       z     vdW  Elec       q    Type
REMARK                         _______ _______ _______ _____ _____    ______ ____
ROOT
ATOM      1  N   UNL     1       0.127  10.959  19.345  0.00  0.00    +0.000 N 
ATOM      2  C   UNL     1       0.109  10.431  20.630  0.00  0.00    +0.000 C 
ATOM      3  O   UNL     1      -0.640  10.695  21.558  0.00  0.00    +0.000 OA
ATOM      4  C   UNL     1       1.021   9.286  20.645  0.00  0.00    +0.000 A 
ATOM      5  C   UNL     1       0.985   8.186  21.479  0.00  0.00    +0.000 A 
ATOM      6  C   UNL     1       1.507   6.995  20.967  0.00  0.00    +0.000 A 
ATOM      7  C   UNL     1       2.036   6.929  19.655  0.00  0.00    +0.000 A 
ATOM      8  C   UNL     1       2.136   8.081  18.869  0.00  0.00    +0.000 A 
ATOM      9  C   UNL     1       1.627   9.246  19.411  0.00  0.00    +0.000 A 
ATOM     10  C   UNL     1       1.251  10.467  18.718  0.00  0.00    +0.000 C 
ATOM     11  O   UNL     1       1.909  10.934  17.802  0.00  0.00    +0.000 OA
ENDROOT
BRANCH   1  18
ATOM     12  C   UNL     1      -2.153  12.845  19.683  0.00  0.00    +0.000 C 
ATOM     13  C   UNL     1      -2.226  11.635  18.789  0.00  0.00    +0.000 A 
ATOM     14  C   UNL     1      -3.423  11.296  18.105  0.00  0.00    +0.000 A 
ATOM     15  C   UNL     1      -3.431  10.293  17.118  0.00  0.00    +0.000 A 
ATOM     16  C   UNL     1      -2.279   9.586  16.822  0.00  0.00    +0.000 A 
ATOM     17  C   UNL     1      -1.136   9.822  17.572  0.00  0.00    +0.000 A 
ATOM     18  C   UNL     1      -1.100  10.808  18.588  0.00  0.00    +0.000 A 
BRANCH  14  19
ATOM     19  C   UNL     1      -4.746  11.937  18.335  0.00  0.00    +0.000 C 
ATOM     20  O   UNL     1      -5.350  12.535  17.458  0.00  0.00    +0.000 OA
BRANCH  19  21
ATOM     21  O   UNL     1      -5.272  11.699  19.552  0.00  0.00    +0.000 OA
ATOM     22  H   UNL     1      -6.240  11.593  19.570  0.00  0.00    +0.000 HD
ENDBRANCH  19  21
ENDBRANCH  14  19
ENDBRANCH   1  18
BRANCH   7  23
ATOM     23  O   UNL     1       2.212   5.639  19.202  0.00  0.00    +0.000 OA
BRANCH  23  24
ATOM     24  C   UNL     1       3.340   5.265  18.520  0.00  0.00    +0.000 A 
ATOM     25  C   UNL     1       3.139   4.592  17.308  0.00  0.00    +0.000 A 
ATOM     26  C   UNL     1       4.219   4.049  16.612  0.00  0.00    +0.000 A 
ATOM     27  C   UNL     1       5.508   4.180  17.121  0.00  0.00    +0.000 A 
ATOM     28  C   UNL     1       5.702   4.848  18.341  0.00  0.00    +0.000 A 
ATOM     29  C   UNL     1       4.622   5.386  19.049  0.00  0.00    +0.000 A 
BRANCH  28  30
ATOM     30  N   UNL     1       7.052   4.976  18.902  0.00  0.00    +0.000 N 
ATOM     31  O   UNL     1       7.156   5.537  19.999  0.00  0.00    +0.000 OA
ATOM     32  O   UNL     1       8.001   4.512  18.247  0.00  0.00    +0.000 OA
ENDBRANCH  28  30
ENDBRANCH  23  24
ENDBRANCH   7  23
TORSDOF 6
ENDMDL
MODEL 8
REMARK VINA RESULT:      -8.2      1.991      2.574
REMARK  Name = 
REMARK  7 active torsions:
REMARK  status: ('A' for Active; 'I' for Inactive)
REMARK    1  A    between atoms: C_1  and  C_2
REMARK    2  A    between atoms: C_3  and  C_4
REMARK    3  A    between atoms: C_4  and  O_6
REMARK    4  A    between atoms: C_10  and  N_11
REMARK    5  A    between atoms: C_17  and  O_18
REMARK    6  A    between atoms: O_18  and  C_19
REMARK    7  A    between atoms: C_23  and  N_24
REMARK                            x       y       z     vdW  Elec       q    Type
REMARK                         _______ _______ _______ _____ _____    ______ ____
ROOT
ATOM      1  N   UNL     1      -0.465  11.464  19.783  0.00  0.00    +0.000 N 
ATOM      2  C   UNL     1      -0.167  10.543  20.780  0.00  0.00    +0.000 C 
ATOM      3  O   UNL     1      -0.789  10.287  21.800  0.00  0.00    +0.000 OA
ATOM      4  C   UNL     1       0.940   9.717  20.295  0.00  0.00    +0.000 A 
ATOM      5  C   UNL     1       1.258   8.425  20.666  0.00  0.00    +0.000 A 
ATOM      6  C   UNL     1       1.910   7.642  19.709  0.00  0.00    +0.000 A 
ATOM      7  C   UNL     1       2.216   8.155  18.425  0.00  0.00    +0.000 A 
ATOM      8  C   UNL     1       1.958   9.493  18.112  0.00  0.00    +0.000 A 
ATOM      9  C   UNL     1       1.328  10.246  19.086  0.00  0.00    +0.000 A 
ATOM     10  C   UNL     1       0.613  11.500  18.926  0.00  0.00    +0.000 C 
ATOM     11  O   UNL     1       1.006  12.394  18.194  0.00  0.00    +0.000 OA
ENDROOT
BRANCH   1  18
ATOM     12  C   UNL     1      -2.768  13.262  20.361  0.00  0.00    +0.000 C 
ATOM     13  C   UNL     1      -2.879  12.069  19.448  0.00  0.00    +0.000 A 
ATOM     14  C   UNL     1      -4.119  11.704  18.861  0.00  0.00    +0.000 A 
ATOM     15  C   UNL     1      -4.179  10.723  17.854  0.00  0.00    +0.000 A 
ATOM     16  C   UNL     1      -3.035  10.062  17.443  0.00  0.00    +0.000 A 
ATOM     17  C   UNL     1      -1.840  10.322  18.099  0.00  0.00    +0.000 A 
ATOM     18  C   UNL     1      -1.748  11.287  19.131  0.00  0.00    +0.000 A 
BRANCH  14  19
ATOM     19  C   UNL     1      -5.437  12.294  19.219  0.00  0.00    +0.000 C 
ATOM     20  O   UNL     1      -5.913  13.252  18.628  0.00  0.00    +0.000 OA
BRANCH  19  21
ATOM     21  O   UNL     1      -6.110  11.611  20.165  0.00  0.00    +0.000 OA
ATOM     22  H   UNL     1      -5.616  10.881  20.578  0.00  0.00    +0.000 HD
ENDBRANCH  19  21
ENDBRANCH  14  19
ENDBRANCH   1  18
BRANCH   7  23
ATOM     23  O   UNL     1       2.562   7.179  17.515  0.00  0.00    +0.000 OA
BRANCH  23  24
ATOM     24  C   UNL     1       2.677   5.863  17.882  0.00  0.00    +0.000 A 
ATOM     25  C   UNL     1       1.502   5.101  17.839  0.00  0.00    +0.000 A 
ATOM     26  C   UNL     1       1.487   3.794  18.324  0.00  0.00    +0.000 A 
ATOM     27  C   UNL     1       2.648   3.238  18.854  0.00  0.00    +0.000 A 
ATOM     28  C   UNL     1       3.820   4.010  18.903  0.00  0.00    +0.000 A 
ATOM     29  C   UNL     1       3.840   5.325  18.426  0.00  0.00    +0.000 A 
BRANCH  28  30
ATOM     30  N   UNL     1       5.048   3.446  19.477  0.00  0.00    +0.000 N 
ATOM     31  O   UNL     1       6.091   4.093  19.324  0.00  0.00    +0.000 OA
ATOM     32  O   UNL     1       4.964   2.364  20.082  0.00  0.00    +0.000 OA
ENDBRANCH  28  30
ENDBRANCH  23  24
ENDBRANCH   7  23
TORSDOF 6
ENDMDL
MODEL 9
REMARK VINA RESULT:      -7.8      2.370      2.934
REMARK  Name = 
REMARK  7 active torsions:
REMARK  status: ('A' for Active; 'I' for Inactive)
REMARK    1  A    between atoms: C_1  and  C_2
REMARK    2  A    between atoms: C_3  and  C_4
REMARK    3  A    between atoms: C_4  and  O_6
REMARK    4  A    between atoms: C_10  and  N_11
REMARK    5  A    between atoms: C_17  and  O_18
REMARK    6  A    between atoms: O_18  and  C_19
REMARK    7  A    between atoms: C_23  and  N_24
REMARK                            x       y       z     vdW  Elec       q    Type
REMARK                         _______ _______ _______ _____ _____    ______ ____
ROOT
ATOM      1  N   UNL     1      -0.529  12.203  20.532  0.00  0.00    +0.000 N 
ATOM      2  C   UNL     1      -0.198  11.195  21.429  0.00  0.00    +0.000 C 
ATOM      3  O   UNL     1      -0.723  10.913  22.496  0.00  0.00    +0.000 OA
ATOM      4  C   UNL     1       0.780  10.327  20.771  0.00  0.00    +0.000 A 
ATOM      5  C   UNL     1       1.031   8.993  21.021  0.00  0.00    +0.000 A 
ATOM      6  C   UNL     1       1.510   8.234  19.949  0.00  0.00    +0.000 A 
ATOM      7  C   UNL     1       1.714   8.813  18.673  0.00  0.00    +0.000 A 
ATOM      8  C   UNL     1       1.532  10.185  18.476  0.00  0.00    +0.000 A 
ATOM      9  C   UNL     1       1.074  10.911  19.560  0.00  0.00    +0.000 A 
ATOM     10  C   UNL     1       0.448  12.221  19.561  0.00  0.00    +0.000 C 
ATOM     11  O   UNL     1       0.829  13.134  18.846  0.00  0.00    +0.000 OA
ENDROOT
BRANCH   1  18
ATOM     12  C   UNL     1      -2.725  13.738  21.833  0.00  0.00    +0.000 C 
ATOM     13  C   UNL     1      -2.960  12.815  20.666  0.00  0.00    +0.000 A 
ATOM     14  C   UNL     1      -4.268  12.581  20.164  0.00  0.00    +0.000 A 
ATOM     15  C   UNL     1      -4.463  11.887  18.956  0.00  0.00    +0.000 A 
ATOM     16  C   UNL     1      -3.386  11.380  18.251  0.00  0.00    +0.000 A 
ATOM     17  C   UNL     1      -2.115  11.494  18.797  0.00  0.00    +0.000 A 
ATOM     18  C   UNL     1      -1.886  12.167  20.022  0.00  0.00    +0.000 A 
BRANCH  14  19
ATOM     19  C   UNL     1      -5.525  13.028  20.823  0.00  0.00    +0.000 C 
ATOM     20  O   UNL     1      -6.140  14.021  20.464  0.00  0.00    +0.000 OA
BRANCH  19  21
ATOM     21  O   UNL     1      -5.989  12.182  21.763  0.00  0.00    +0.000 OA
ATOM     22  H   UNL     1      -6.767  11.659  21.500  0.00  0.00    +0.000 HD
ENDBRANCH  19  21
ENDBRANCH  14  19
ENDBRANCH   1  18
BRANCH   7  23
ATOM     23  O   UNL     1       1.879   7.881  17.671  0.00  0.00    +0.000 OA
BRANCH  23  24
ATOM     24  C   UNL     1       2.716   6.806  17.820  0.00  0.00    +0.000 A 
ATOM     25  C   UNL     1       4.072   7.032  17.550  0.00  0.00    +0.000 A 
ATOM     26  C   UNL     1       4.978   5.973  17.538  0.00  0.00    +0.000 A 
ATOM     27  C   UNL     1       4.535   4.679  17.799  0.00  0.00    +0.000 A 
ATOM     28  C   UNL     1       3.173   4.458  18.060  0.00  0.00    +0.000 A 
ATOM     29  C   UNL     1       2.257   5.515  18.064  0.00  0.00    +0.000 A 
BRANCH  28  30
ATOM     30  N   UNL     1       2.686   3.097  18.317  0.00  0.00    +0.000 N 
ATOM     31  O   UNL     1       2.770   2.678  19.478  0.00  0.00    +0.000 OA
ATOM     32  O   UNL     1       2.219   2.456  17.361  0.00  0.00    +0.000 OA
ENDBRANCH  28  30
ENDBRANCH  23  24
ENDBRANCH   7  23
TORSDOF 6
ENDMDL
