MODEL 1
REMARK VINA RESULT:      -7.6      0.000      0.000
REMARK  Name = 
REMARK  9 active torsions:
REMARK  status: ('A' for Active; 'I' for Inactive)
REMARK    1  A    between atoms: C_1  and  O_2
REMARK    2  A    between atoms: O_2  and  C_3
REMARK    3  A    between atoms: C_6  and  O_7
REMARK    4  A    between atoms: O_7  and  C_8
REMARK    5  A    between atoms: C_8  and  C_9
REMARK    6  A    between atoms: C_12  and  C_13
REMARK    7  A    between atoms: C_15  and  C_16
REMARK    8  A    between atoms: C_18  and  N_19
REMARK    9  A    between atoms: C_22  and  C_23
REMARK                            x       y       z     vdW  Elec       q    Type
REMARK                         _______ _______ _______ _____ _____    ______ ____
ROOT
ATOM      1  C   UNL     1       4.062   4.704  18.964  0.00  0.00    +0.000 A 
ATOM      2  C   UNL     1       3.170   4.533  17.927  0.00  0.00    +0.000 A 
ATOM      3  C   UNL     1       2.254   5.605  18.004  0.00  0.00    +0.000 A 
ATOM      4  C   UNL     1       2.595   6.372  19.109  0.00  0.00    +0.000 A 
ATOM      5  O   UNL     1       3.724   5.821  19.683  0.00  0.00    +0.000 OA
ENDROOT
BRANCH   4   6
ATOM      6  C   UNL     1       1.897   7.529  19.610  0.00  0.00    +0.000 A 
ATOM      7  N   UNL     1       1.597   7.697  20.890  0.00  0.00    +0.000 NA
ATOM      8  C   UNL     1       1.056   8.966  20.944  0.00  0.00    +0.000 A 
ATOM      9  C   UNL     1       1.010   9.532  19.685  0.00  0.00    +0.000 A 
ATOM     10  O   UNL     1       1.525   8.592  18.827  0.00  0.00    +0.000 OA
BRANCH   9  11
ATOM     11  N   UNL     1       0.654  10.724  19.135  0.00  0.00    +0.000 N 
ATOM     12  C   UNL     1       1.686  11.639  18.645  0.00  0.00    +0.000 C 
ATOM     13  C   UNL     1       1.376  13.058  19.113  0.00  0.00    +0.000 C 
ATOM     14  C   UNL     1      -0.046  13.490  18.723  0.00  0.00    +0.000 C 
ATOM     15  C   UNL     1      -0.364  14.862  19.314  0.00  0.00    +0.000 C 
ATOM     16  C   UNL     1      -1.073  12.445  19.186  0.00  0.00    +0.000 C 
ATOM     17  C   UNL     1      -0.710  11.033  18.713  0.00  0.00    +0.000 C 
ENDBRANCH   9  11
BRANCH   8  18
ATOM     18  C   UNL     1       0.611   9.522  22.187  0.00  0.00    +0.000 C 
ATOM     19  N   UNL     1       0.266   9.986  23.193  0.00  0.00    +0.000 NA
ENDBRANCH   8  18
ENDBRANCH   4   6
BRANCH   1  20
ATOM     20  C   UNL     1       5.312   3.969  19.328  0.00  0.00    +0.000 C 
BRANCH  20  21
ATOM     21  O   UNL     1       6.267   4.110  18.267  0.00  0.00    +0.000 OA
BRANCH  21  25
ATOM     22  C   UNL     1       7.823   7.980  17.806  0.00  0.00    +0.000 A 
ATOM     23  C   UNL     1       8.241   7.132  18.832  0.00  0.00    +0.000 A 
ATOM     24  C   UNL     1       7.712   5.838  18.950  0.00  0.00    +0.000 A 
ATOM     25  C   UNL     1       6.729   5.389  18.067  0.00  0.00    +0.000 A 
ATOM     26  C   UNL     1       6.321   6.237  17.034  0.00  0.00    +0.000 A 
ATOM     27  C   UNL     1       6.861   7.527  16.907  0.00  0.00    +0.000 A 
BRANCH  22  29
ATOM     28  C   UNL     1       9.007   9.642  19.014  0.00  0.00    +0.000 C 
ATOM     29  O   UNL     1       8.386   9.227  17.801  0.00  0.00    +0.000 OA
ENDBRANCH  22  29
ENDBRANCH  21  25
ENDBRANCH  20  21
ENDBRANCH   1  20
TORSDOF 7
ENDMDL
MODEL 2
REMARK VINA RESULT:      -7.4      1.227      1.860
REMARK  Name = 
REMARK  9 active torsions:
REMARK  status: ('A' for Active; 'I' for Inactive)
REMARK    1  A    between atoms: C_1  and  O_2
REMARK    2  A    between atoms: O_2  and  C_3
REMARK    3  A    between atoms: C_6  and  O_7
REMARK    4  A    between atoms: O_7  and  C_8
REMARK    5  A    between atoms: C_8  and  C_9
REMARK    6  A    between atoms: C_12  and  C_13
REMARK    7  A    between atoms: C_15  and  C_16
REMARK    8  A    between atoms: C_18  and  N_19
REMARK    9  A    between atoms: C_22  and  C_23
REMARK                            x       y       z     vdW  Elec       q    Type
REMARK                         _______ _______ _______ _____ _____    ______ ____
ROOT
ATOM      1  C   UNL     1       2.746   4.410  18.727  0.00  0.00    +0.000 A 
ATOM      2  C   UNL     1       2.851   4.087  20.062  0.00  0.00    +0.000 A 
ATOM      3  C   UNL     1       2.330   5.185  20.783  0.00  0.00    +0.000 A 
ATOM      4  C   UNL     1       1.963   6.156  19.864  0.00  0.00    +0.000 A 
ATOM      5  O   UNL     1       2.204   5.663  18.596  0.00  0.00    +0.000 OA
ENDROOT
BRANCH   4   6
ATOM      6  C   UNL     1       1.445   7.470  20.152  0.00  0.00    +0.000 A 
ATOM      7  N   UNL     1       1.004   7.830  21.349  0.00  0.00    +0.000 NA
ATOM      8  C   UNL     1       0.726   9.175  21.214  0.00  0.00    +0.000 A 
ATOM      9  C   UNL     1       0.975   9.599  19.923  0.00  0.00    +0.000 A 
ATOM     10  O   UNL     1       1.409   8.492  19.238  0.00  0.00    +0.000 OA
BRANCH   9  11
ATOM     11  N   UNL     1       0.946  10.769  19.230  0.00  0.00    +0.000 N 
ATOM     12  C   UNL     1       2.007  11.074  18.269  0.00  0.00    +0.000 C 
ATOM     13  C   UNL     1       2.469  12.517  18.458  0.00  0.00    +0.000 C 
ATOM     14  C   UNL     1       1.294  13.504  18.390  0.00  0.00    +0.000 C 
ATOM     15  C   UNL     1       1.773  14.920  18.705  0.00  0.00    +0.000 C 
ATOM     16  C   UNL     1       0.176  13.080  19.355  0.00  0.00    +0.000 C 
ATOM     17  C   UNL     1      -0.239  11.618  19.146  0.00  0.00    +0.000 C 
ENDBRANCH   9  11
BRANCH   8  18
ATOM     18  C   UNL     1       0.227   9.936  22.321  0.00  0.00    +0.000 C 
ATOM     19  N   UNL     1      -0.184  10.566  23.205  0.00  0.00    +0.000 NA
ENDBRANCH   8  18
ENDBRANCH   4   6
BRANCH   1  20
ATOM     20  C   UNL     1       3.017   3.615  17.490  0.00  0.00    +0.000 C 
BRANCH  20  21
ATOM     21  O   UNL     1       4.395   3.217  17.478  0.00  0.00    +0.000 OA
BRANCH  21  25
ATOM     22  C   UNL     1       7.051   6.436  17.043  0.00  0.00    +0.000 A 
ATOM     23  C   UNL     1       6.112   6.115  16.063  0.00  0.00    +0.000 A 
ATOM     24  C   UNL     1       5.227   5.041  16.246  0.00  0.00    +0.000 A 
ATOM     25  C   UNL     1       5.297   4.250  17.393  0.00  0.00    +0.000 A 
ATOM     26  C   UNL     1       6.232   4.583  18.378  0.00  0.00    +0.000 A 
ATOM     27  C   UNL     1       7.107   5.666  18.202  0.00  0.00    +0.000 A 
BRANCH  22  29
ATOM     28  C   UNL     1       7.947   8.524  17.722  0.00  0.00    +0.000 C 
ATOM     29  O   UNL     1       7.878   7.486  16.749  0.00  0.00    +0.000 OA
ENDBRANCH  22  29
ENDBRANCH  21  25
ENDBRANCH  20  21
ENDBRANCH   1  20
TORSDOF 7
ENDMDL
MODEL 3
REMARK VINA RESULT:      -7.4      2.861      8.877
REMARK  Name = 
REMARK  9 active torsions:
REMARK  status: ('A' for Active; 'I' for Inactive)
REMARK    1  A    between atoms: C_1  and  O_2
REMARK    2  A    between atoms: O_2  and  C_3
REMARK    3  A    between atoms: C_6  and  O_7
REMARK    4  A    between atoms: O_7  and  C_8
REMARK    5  A    between atoms: C_8  and  C_9
REMARK    6  A    between atoms: C_12  and  C_13
REMARK    7  A    between atoms: C_15  and  C_16
REMARK    8  A    between atoms: C_18  and  N_19
REMARK    9  A    between atoms: C_22  and  C_23
REMARK                            x       y       z     vdW  Elec       q    Type
REMARK                         _______ _______ _______ _____ _____    ______ ____
ROOT
ATOM      1  C   UNL     1       0.438  10.116  20.347  0.00  0.00    +0.000 A 
ATOM      2  C   UNL     1       0.061   9.498  21.520  0.00  0.00    +0.000 A 
ATOM      3  C   UNL     1       0.732   8.255  21.553  0.00  0.00    +0.000 A 
ATOM      4  C   UNL     1       1.463   8.141  20.380  0.00  0.00    +0.000 A 
ATOM      5  O   UNL     1       1.293   9.302  19.651  0.00  0.00    +0.000 OA
ENDROOT
BRANCH   4   6
ATOM      6  C   UNL     1       2.250   7.010  19.956  0.00  0.00    +0.000 A 
ATOM      7  N   UNL     1       1.996   5.766  20.340  0.00  0.00    +0.000 NA
ATOM      8  C   UNL     1       2.893   5.003  19.617  0.00  0.00    +0.000 A 
ATOM      9  C   UNL     1       3.695   5.806  18.830  0.00  0.00    +0.000 A 
ATOM     10  O   UNL     1       3.297   7.097  19.075  0.00  0.00    +0.000 OA
BRANCH   9  11
ATOM     11  N   UNL     1       4.677   5.640  17.903  0.00  0.00    +0.000 N 
ATOM     12  C   UNL     1       4.991   6.725  16.972  0.00  0.00    +0.000 C 
ATOM     13  C   UNL     1       5.136   6.162  15.560  0.00  0.00    +0.000 C 
ATOM     14  C   UNL     1       6.151   5.010  15.508  0.00  0.00    +0.000 C 
ATOM     15  C   UNL     1       6.178   4.391  14.111  0.00  0.00    +0.000 C 
ATOM     16  C   UNL     1       5.818   3.948  16.568  0.00  0.00    +0.000 C 
ATOM     17  C   UNL     1       5.659   4.561  17.965  0.00  0.00    +0.000 C 
ENDBRANCH   9  11
BRANCH   8  18
ATOM     18  C   UNL     1       2.920   3.578  19.754  0.00  0.00    +0.000 C 
ATOM     19  N   UNL     1       2.929   2.424  19.880  0.00  0.00    +0.000 NA
ENDBRANCH   8  18
ENDBRANCH   4   6
BRANCH   1  20
ATOM     20  C   UNL     1       0.158  11.484  19.812  0.00  0.00    +0.000 C 
BRANCH  20  21
ATOM     21  O   UNL     1      -1.225  11.799  20.025  0.00  0.00    +0.000 OA
BRANCH  21  25
ATOM     22  C   UNL     1      -3.563  11.045  16.624  0.00  0.00    +0.000 A 
ATOM     23  C   UNL     1      -2.201  10.750  16.665  0.00  0.00    +0.000 A 
ATOM     24  C   UNL     1      -1.450  11.000  17.824  0.00  0.00    +0.000 A 
ATOM     25  C   UNL     1      -2.043  11.586  18.942  0.00  0.00    +0.000 A 
ATOM     26  C   UNL     1      -3.411  11.870  18.901  0.00  0.00    +0.000 A 
ATOM     27  C   UNL     1      -4.166  11.606  17.747  0.00  0.00    +0.000 A 
BRANCH  22  29
ATOM     28  C   UNL     1      -3.429  10.074  14.464  0.00  0.00    +0.000 C 
ATOM     29  O   UNL     1      -4.191  10.783  15.436  0.00  0.00    +0.000 OA
ENDBRANCH  22  29
ENDBRANCH  21  25
ENDBRANCH  20  21
ENDBRANCH   1  20
TORSDOF 7
ENDMDL
MODEL 4
REMARK VINA RESULT:      -7.3      0.896      1.040
REMARK  Name = 
REMARK  9 active torsions:
REMARK  status: ('A' for Active; 'I' for Inactive)
REMARK    1  A    between atoms: C_1  and  O_2
REMARK    2  A    between atoms: O_2  and  C_3
REMARK    3  A    between atoms: C_6  and  O_7
REMARK    4  A    between atoms: O_7  and  C_8
REMARK    5  A    between atoms: C_8  and  C_9
REMARK    6  A    between atoms: C_12  and  C_13
REMARK    7  A    between atoms: C_15  and  C_16
REMARK    8  A    between atoms: C_18  and  N_19
REMARK    9  A    between atoms: C_22  and  C_23
REMARK                            x       y       z     vdW  Elec       q    Type
REMARK                         _______ _______ _______ _____ _____    ______ ____
ROOT
ATOM      1  C   UNL     1       3.736   5.166  18.155  0.00  0.00    +0.000 A 
ATOM      2  C   UNL     1       3.512   4.538  19.361  0.00  0.00    +0.000 A 
ATOM      3  C   UNL     1       2.730   5.423  20.136  0.00  0.00    +0.000 A 
ATOM      4  C   UNL     1       2.537   6.577  19.391  0.00  0.00    +0.000 A 
ATOM      5  O   UNL     1       3.143   6.403  18.162  0.00  0.00    +0.000 OA
ENDROOT
BRANCH   4   6
ATOM      6  C   UNL     1       1.853   7.775  19.810  0.00  0.00    +0.000 A 
ATOM      7  N   UNL     1       1.400   7.957  21.042  0.00  0.00    +0.000 NA
ATOM      8  C   UNL     1       0.937   9.259  21.040  0.00  0.00    +0.000 A 
ATOM      9  C   UNL     1       1.093   9.831  19.792  0.00  0.00    +0.000 A 
ATOM     10  O   UNL     1       1.656   8.862  18.998  0.00  0.00    +0.000 OA
BRANCH   9  11
ATOM     11  N   UNL     1       0.887  11.045  19.214  0.00  0.00    +0.000 N 
ATOM     12  C   UNL     1       1.940  11.652  18.399  0.00  0.00    +0.000 C 
ATOM     13  C   UNL     1       2.088  13.126  18.770  0.00  0.00    +0.000 C 
ATOM     14  C   UNL     1       0.750  13.873  18.679  0.00  0.00    +0.000 C 
ATOM     15  C   UNL     1       0.911  15.310  19.174  0.00  0.00    +0.000 C 
ATOM     16  C   UNL     1      -0.335  13.138  19.481  0.00  0.00    +0.000 C 
ATOM     17  C   UNL     1      -0.433  11.658  19.093  0.00  0.00    +0.000 C 
ENDBRANCH   9  11
BRANCH   8  18
ATOM     18  C   UNL     1       0.369   9.837  22.221  0.00  0.00    +0.000 C 
ATOM     19  N   UNL     1      -0.108  10.308  23.168  0.00  0.00    +0.000 NA
ENDBRANCH   8  18
ENDBRANCH   4   6
BRANCH   1  20
ATOM     20  C   UNL     1       4.388   4.692  16.895  0.00  0.00    +0.000 C 
BRANCH  20  21
ATOM     21  O   UNL     1       5.777   4.440  17.150  0.00  0.00    +0.000 OA
BRANCH  21  25
ATOM     22  C   UNL     1       8.119   7.687  18.408  0.00  0.00    +0.000 A 
ATOM     23  C   UNL     1       8.142   6.459  19.069  0.00  0.00    +0.000 A 
ATOM     24  C   UNL     1       7.357   5.387  18.614  0.00  0.00    +0.000 A 
ATOM     25  C   UNL     1       6.510   5.543  17.516  0.00  0.00    +0.000 A 
ATOM     26  C   UNL     1       6.499   6.772  16.850  0.00  0.00    +0.000 A 
ATOM     27  C   UNL     1       7.294   7.839  17.296  0.00  0.00    +0.000 A 
BRANCH  22  29
ATOM     28  C   UNL     1       8.847   9.942  18.321  0.00  0.00    +0.000 C 
ATOM     29  O   UNL     1       8.903   8.667  18.953  0.00  0.00    +0.000 OA
ENDBRANCH  22  29
ENDBRANCH  21  25
ENDBRANCH  20  21
ENDBRANCH   1  20
TORSDOF 7
ENDMDL
MODEL 5
REMARK VINA RESULT:      -7.3      3.111      9.506
REMARK  Name = 
REMARK  9 active torsions:
REMARK  status: ('A' for Active; 'I' for Inactive)
REMARK    1  A    between atoms: C_1  and  O_2
REMARK    2  A    between atoms: O_2  and  C_3
REMARK    3  A    between atoms: C_6  and  O_7
REMARK    4  A    between atoms: O_7  and  C_8
REMARK    5  A    between atoms: C_8  and  C_9
REMARK    6  A    between atoms: C_12  and  C_13
REMARK    7  A    between atoms: C_15  and  C_16
REMARK    8  A    between atoms: C_18  and  N_19
REMARK    9  A    between atoms: C_22  and  C_23
REMARK                            x       y       z     vdW  Elec       q    Type
REMARK                         _______ _______ _______ _____ _____    ______ ____
ROOT
ATOM      1  C   UNL     1       0.403  10.531  20.067  0.00  0.00    +0.000 A 
ATOM      2  C   UNL     1       0.780  10.618  18.744  0.00  0.00    +0.000 A 
ATOM      3  C   UNL     1       1.431   9.404  18.431  0.00  0.00    +0.000 A 
ATOM      4  C   UNL     1       1.463   8.634  19.584  0.00  0.00    +0.000 A 
ATOM      5  O   UNL     1       0.809   9.328  20.584  0.00  0.00    +0.000 OA
ENDROOT
BRANCH   4   6
ATOM      6  C   UNL     1       2.087   7.345  19.749  0.00  0.00    +0.000 A 
ATOM      7  N   UNL     1       1.706   6.467  20.665  0.00  0.00    +0.000 NA
ATOM      8  C   UNL     1       2.468   5.348  20.395  0.00  0.00    +0.000 A 
ATOM      9  C   UNL     1       3.322   5.582  19.334  0.00  0.00    +0.000 A 
ATOM     10  O   UNL     1       3.092   6.878  18.942  0.00  0.00    +0.000 OA
BRANCH   9  11
ATOM     11  N   UNL     1       4.230   4.879  18.604  0.00  0.00    +0.000 N 
ATOM     12  C   UNL     1       5.636   4.863  19.011  0.00  0.00    +0.000 C 
ATOM     13  C   UNL     1       6.524   5.082  17.789  0.00  0.00    +0.000 C 
ATOM     14  C   UNL     1       6.210   4.080  16.669  0.00  0.00    +0.000 C 
ATOM     15  C   UNL     1       7.028   4.406  15.420  0.00  0.00    +0.000 C 
ATOM     16  C   UNL     1       4.706   4.080  16.350  0.00  0.00    +0.000 C 
ATOM     17  C   UNL     1       3.852   3.881  17.608  0.00  0.00    +0.000 C 
ENDBRANCH   9  11
BRANCH   8  18
ATOM     18  C   UNL     1       2.332   4.159  21.182  0.00  0.00    +0.000 C 
ATOM     19  N   UNL     1       2.228   3.206  21.836  0.00  0.00    +0.000 NA
ENDBRANCH   8  18
ENDBRANCH   4   6
BRANCH   1  20
ATOM     20  C   UNL     1      -0.416  11.440  20.927  0.00  0.00    +0.000 C 
BRANCH  20  21
ATOM     21  O   UNL     1      -0.951  12.497  20.118  0.00  0.00    +0.000 OA
BRANCH  21  25
ATOM     22  C   UNL     1      -5.077  12.288  19.383  0.00  0.00    +0.000 A 
ATOM     23  C   UNL     1      -4.557  12.942  20.499  0.00  0.00    +0.000 A 
ATOM     24  C   UNL     1      -3.171  13.007  20.709  0.00  0.00    +0.000 A 
ATOM     25  C   UNL     1      -2.289  12.385  19.825  0.00  0.00    +0.000 A 
ATOM     26  C   UNL     1      -2.813  11.740  18.701  0.00  0.00    +0.000 A 
ATOM     27  C   UNL     1      -4.199  11.687  18.484  0.00  0.00    +0.000 A 
BRANCH  22  29
ATOM     28  C   UNL     1      -6.991  11.426  18.280  0.00  0.00    +0.000 C 
ATOM     29  O   UNL     1      -6.442  12.264  19.292  0.00  0.00    +0.000 OA
ENDBRANCH  22  29
ENDBRANCH  21  25
ENDBRANCH  20  21
ENDBRANCH   1  20
TORSDOF 7
ENDMDL
MODEL 6
REMARK VINA RESULT:      -7.3      3.412      9.435
REMARK  Name = 
REMARK  9 active torsions:
REMARK  status: ('A' for Active; 'I' for Inactive)
REMARK    1  A    between atoms: C_1  and  O_2
REMARK    2  A    between atoms: O_2  and  C_3
REMARK    3  A    between atoms: C_6  and  O_7
REMARK    4  A    between atoms: O_7  and  C_8
REMARK    5  A    between atoms: C_8  and  C_9
REMARK    6  A    between atoms: C_12  and  C_13
REMARK    7  A    between atoms: C_15  and  C_16
REMARK    8  A    between atoms: C_18  and  N_19
REMARK    9  A    between atoms: C_22  and  C_23
REMARK                            x       y       z     vdW  Elec       q    Type
REMARK                         _______ _______ _______ _____ _____    ______ ____
ROOT
ATOM      1  C   UNL     1       1.024   9.266  20.029  0.00  0.00    +0.000 A 
ATOM      2  C   UNL     1       1.149   9.621  18.703  0.00  0.00    +0.000 A 
ATOM      3  C   UNL     1       1.915   8.608  18.085  0.00  0.00    +0.000 A 
ATOM      4  C   UNL     1       2.264   7.689  19.064  0.00  0.00    +0.000 A 
ATOM      5  O   UNL     1       1.693   8.091  20.256  0.00  0.00    +0.000 OA
ENDROOT
BRANCH   4   6
ATOM      6  C   UNL     1       3.098   6.525  18.900  0.00  0.00    +0.000 A 
ATOM      7  N   UNL     1       3.058   5.483  19.720  0.00  0.00    +0.000 NA
ATOM      8  C   UNL     1       3.907   4.564  19.136  0.00  0.00    +0.000 A 
ATOM      9  C   UNL     1       4.471   5.081  17.986  0.00  0.00    +0.000 A 
ATOM     10  O   UNL     1       3.969   6.352  17.855  0.00  0.00    +0.000 OA
BRANCH   9  11
ATOM     11  N   UNL     1       5.301   4.652  16.997  0.00  0.00    +0.000 N 
ATOM     12  C   UNL     1       6.750   4.771  17.159  0.00  0.00    +0.000 C 
ATOM     13  C   UNL     1       7.365   5.321  15.875  0.00  0.00    +0.000 C 
ATOM     14  C   UNL     1       6.963   4.490  14.648  0.00  0.00    +0.000 C 
ATOM     15  C   UNL     1       7.493   5.140  13.370  0.00  0.00    +0.000 C 
ATOM     16  C   UNL     1       5.436   4.327  14.584  0.00  0.00    +0.000 C 
ATOM     17  C   UNL     1       4.859   3.794  15.901  0.00  0.00    +0.000 C 
ENDBRANCH   9  11
BRANCH   8  18
ATOM     18  C   UNL     1       4.123   3.281  19.735  0.00  0.00    +0.000 C 
ATOM     19  N   UNL     1       4.289   2.233  20.205  0.00  0.00    +0.000 NA
ENDBRANCH   8  18
ENDBRANCH   4   6
BRANCH   1  20
ATOM     20  C   UNL     1       0.237   9.868  21.148  0.00  0.00    +0.000 C 
BRANCH  20  21
ATOM     21  O   UNL     1      -0.004  11.253  20.862  0.00  0.00    +0.000 OA
BRANCH  21  25
ATOM     22  C   UNL     1      -3.617  12.696  22.434  0.00  0.00    +0.000 A 
ATOM     23  C   UNL     1      -2.666  12.059  23.231  0.00  0.00    +0.000 A 
ATOM     24  C   UNL     1      -1.460  11.601  22.677  0.00  0.00    +0.000 A 
ATOM     25  C   UNL     1      -1.208  11.739  21.311  0.00  0.00    +0.000 A 
ATOM     26  C   UNL     1      -2.159  12.388  20.519  0.00  0.00    +0.000 A 
ATOM     27  C   UNL     1      -3.359  12.859  21.075  0.00  0.00    +0.000 A 
BRANCH  22  29
ATOM     28  C   UNL     1      -4.765  14.386  23.638  0.00  0.00    +0.000 C 
ATOM     29  O   UNL     1      -4.765  13.079  23.073  0.00  0.00    +0.000 OA
ENDBRANCH  22  29
ENDBRANCH  21  25
ENDBRANCH  20  21
ENDBRANCH   1  20
TORSDOF 7
ENDMDL
MODEL 7
REMARK VINA RESULT:      -7.3      3.548      9.425
REMARK  Name = 
REMARK  9 active torsions:
REMARK  status: ('A' for Active; 'I' for Inactive)
REMARK    1  A    between atoms: C_1  and  O_2
REMARK    2  A    between atoms: O_2  and  C_3
REMARK    3  A    between atoms: C_6  and  O_7
REMARK    4  A    between atoms: O_7  and  C_8
REMARK    5  A    between atoms: C_8  and  C_9
REMARK    6  A    between atoms: C_12  and  C_13
REMARK    7  A    between atoms: C_15  and  C_16
REMARK    8  A    between atoms: C_18  and  N_19
REMARK    9  A    between atoms: C_22  and  C_23
REMARK                            x       y       z     vdW  Elec       q    Type
REMARK                         _______ _______ _______ _____ _____    ______ ____
ROOT
ATOM      1  C   UNL     1       0.701  10.951  20.047  0.00  0.00    +0.000 A 
ATOM      2  C   UNL     1       0.504  10.751  18.697  0.00  0.00    +0.000 A 
ATOM      3  C   UNL     1       0.938   9.435  18.418  0.00  0.00    +0.000 A 
ATOM      4  C   UNL     1       1.421   8.892  19.600  0.00  0.00    +0.000 A 
ATOM      5  O   UNL     1       1.252   9.826  20.604  0.00  0.00    +0.000 OA
ENDROOT
BRANCH   4   6
ATOM      6  C   UNL     1       2.024   7.595  19.773  0.00  0.00    +0.000 A 
ATOM      7  N   UNL     1       1.610   6.718  20.678  0.00  0.00    +0.000 NA
ATOM      8  C   UNL     1       2.364   5.590  20.420  0.00  0.00    +0.000 A 
ATOM      9  C   UNL     1       3.244   5.817  19.381  0.00  0.00    +0.000 A 
ATOM     10  O   UNL     1       3.041   7.117  18.988  0.00  0.00    +0.000 OA
BRANCH   9  11
ATOM     11  N   UNL     1       4.160   5.105  18.669  0.00  0.00    +0.000 N 
ATOM     12  C   UNL     1       5.567   5.121  19.070  0.00  0.00    +0.000 C 
ATOM     13  C   UNL     1       6.448   5.315  17.838  0.00  0.00    +0.000 C 
ATOM     14  C   UNL     1       6.144   4.273  16.751  0.00  0.00    +0.000 C 
ATOM     15  C   UNL     1       6.952   4.572  15.490  0.00  0.00    +0.000 C 
ATOM     16  C   UNL     1       4.639   4.242  16.440  0.00  0.00    +0.000 C 
ATOM     17  C   UNL     1       3.793   4.070  17.707  0.00  0.00    +0.000 C 
ENDBRANCH   9  11
BRANCH   8  18
ATOM     18  C   UNL     1       2.193   4.400  21.200  0.00  0.00    +0.000 C 
ATOM     19  N   UNL     1       2.037   3.434  21.823  0.00  0.00    +0.000 NA
ENDBRANCH   8  18
ENDBRANCH   4   6
BRANCH   1  20
ATOM     20  C   UNL     1       0.332  12.087  20.945  0.00  0.00    +0.000 C 
BRANCH  20  21
ATOM     21  O   UNL     1      -0.097  11.566  22.211  0.00  0.00    +0.000 OA
BRANCH  21  25
ATOM     22  C   UNL     1      -3.094  13.879  24.020  0.00  0.00    +0.000 A 
ATOM     23  C   UNL     1      -1.856  14.416  23.671  0.00  0.00    +0.000 A 
ATOM     24  C   UNL     1      -0.879  13.619  23.053  0.00  0.00    +0.000 A 
ATOM     25  C   UNL     1      -1.115  12.265  22.813  0.00  0.00    +0.000 A 
ATOM     26  C   UNL     1      -2.362  11.734  23.154  0.00  0.00    +0.000 A 
ATOM     27  C   UNL     1      -3.344  12.535  23.758  0.00  0.00    +0.000 A 
BRANCH  22  29
ATOM     28  C   UNL     1      -4.287  15.927  23.923  0.00  0.00    +0.000 C 
ATOM     29  O   UNL     1      -3.960  14.740  24.638  0.00  0.00    +0.000 OA
ENDBRANCH  22  29
ENDBRANCH  21  25
ENDBRANCH  20  21
ENDBRANCH   1  20
TORSDOF 7
ENDMDL
MODEL 8
REMARK VINA RESULT:      -7.2      1.012      1.395
REMARK  Name = 
REMARK  9 active torsions:
REMARK  status: ('A' for Active; 'I' for Inactive)
REMARK    1  A    between atoms: C_1  and  O_2
REMARK    2  A    between atoms: O_2  and  C_3
REMARK    3  A    between atoms: C_6  and  O_7
REMARK    4  A    between atoms: O_7  and  C_8
REMARK    5  A    between atoms: C_8  and  C_9
REMARK    6  A    between atoms: C_12  and  C_13
REMARK    7  A    between atoms: C_15  and  C_16
REMARK    8  A    between atoms: C_18  and  N_19
REMARK    9  A    between atoms: C_22  and  C_23
REMARK                            x       y       z     vdW  Elec       q    Type
REMARK                         _______ _______ _______ _____ _____    ______ ____
ROOT
ATOM      1  C   UNL     1       3.720   4.994  17.626  0.00  0.00    +0.000 A 
ATOM      2  C   UNL     1       2.984   4.140  18.418  0.00  0.00    +0.000 A 
ATOM      3  C   UNL     1       2.154   4.952  19.223  0.00  0.00    +0.000 A 
ATOM      4  C   UNL     1       2.442   6.275  18.922  0.00  0.00    +0.000 A 
ATOM      5  O   UNL     1       3.394   6.293  17.921  0.00  0.00    +0.000 OA
ENDROOT
BRANCH   4   6
ATOM      6  C   UNL     1       1.882   7.447  19.547  0.00  0.00    +0.000 A 
ATOM      7  N   UNL     1       1.603   7.516  20.841  0.00  0.00    +0.000 NA
ATOM      8  C   UNL     1       1.213   8.827  21.031  0.00  0.00    +0.000 A 
ATOM      9  C   UNL     1       1.233   9.521  19.837  0.00  0.00    +0.000 A 
ATOM     10  O   UNL     1       1.636   8.621  18.881  0.00  0.00    +0.000 OA
BRANCH   9  11
ATOM     11  N   UNL     1       1.016  10.796  19.415  0.00  0.00    +0.000 N 
ATOM     12  C   UNL     1       1.847  11.364  18.352  0.00  0.00    +0.000 C 
ATOM     13  C   UNL     1       2.279  12.776  18.739  0.00  0.00    +0.000 C 
ATOM     14  C   UNL     1       1.077  13.661  19.101  0.00  0.00    +0.000 C 
ATOM     15  C   UNL     1       1.554  15.024  19.600  0.00  0.00    +0.000 C 
ATOM     16  C   UNL     1       0.198  12.971  20.155  0.00  0.00    +0.000 C 
ATOM     17  C   UNL     1      -0.193  11.549  19.736  0.00  0.00    +0.000 C 
ENDBRANCH   9  11
BRANCH   8  18
ATOM     18  C   UNL     1       0.835   9.299  22.330  0.00  0.00    +0.000 C 
ATOM     19  N   UNL     1       0.545   9.694  23.381  0.00  0.00    +0.000 NA
ENDBRANCH   8  18
ENDBRANCH   4   6
BRANCH   1  20
ATOM     20  C   UNL     1       4.672   4.733  16.503  0.00  0.00    +0.000 C 
BRANCH  20  21
ATOM     21  O   UNL     1       5.936   4.322  17.042  0.00  0.00    +0.000 OA
BRANCH  21  25
ATOM     22  C   UNL     1       8.182   7.546  18.515  0.00  0.00    +0.000 A 
ATOM     23  C   UNL     1       7.447   7.636  17.333  0.00  0.00    +0.000 A 
ATOM     24  C   UNL     1       6.694   6.544  16.875  0.00  0.00    +0.000 A 
ATOM     25  C   UNL     1       6.697   5.335  17.573  0.00  0.00    +0.000 A 
ATOM     26  C   UNL     1       7.426   5.254  18.763  0.00  0.00    +0.000 A 
ATOM     27  C   UNL     1       8.168   6.350  19.229  0.00  0.00    +0.000 A 
BRANCH  22  29
ATOM     28  C   UNL     1       8.554   9.863  18.169  0.00  0.00    +0.000 C 
ATOM     29  O   UNL     1       8.898   8.662  18.853  0.00  0.00    +0.000 OA
ENDBRANCH  22  29
ENDBRANCH  21  25
ENDBRANCH  20  21
ENDBRANCH   1  20
TORSDOF 7
ENDMDL
MODEL 9
REMARK VINA RESULT:      -7.2      3.095      9.410
REMARK  Name = 
REMARK  9 active torsions:
REMARK  status: ('A' for Active; 'I' for Inactive)
REMARK    1  A    between atoms: C_1  and  O_2
REMARK    2  A    between atoms: O_2  and  C_3
REMARK    3  A    between atoms: C_6  and  O_7
REMARK    4  A    between atoms: O_7  and  C_8
REMARK    5  A    between atoms: C_8  and  C_9
REMARK    6  A    between atoms: C_12  and  C_13
REMARK    7  A    between atoms: C_15  and  C_16
REMARK    8  A    between atoms: C_18  and  N_19
REMARK    9  A    between atoms: C_22  and  C_23
REMARK                            x       y       z     vdW  Elec       q    Type
REMARK                         _______ _______ _______ _____ _____    ______ ____
ROOT
ATOM      1  C   UNL     1       0.702   9.977  19.720  0.00  0.00    +0.000 A 
ATOM      2  C   UNL     1       0.466   9.482  20.984  0.00  0.00    +0.000 A 
ATOM      3  C   UNL     1       1.178   8.266  21.081  0.00  0.00    +0.000 A 
ATOM      4  C   UNL     1       1.793   8.041  19.858  0.00  0.00    +0.000 A 
ATOM      5  O   UNL     1       1.512   9.111  19.031  0.00  0.00    +0.000 OA
ENDROOT
BRANCH   4   6
ATOM      6  C   UNL     1       2.571   6.889  19.479  0.00  0.00    +0.000 A 
ATOM      7  N   UNL     1       2.351   5.674  19.963  0.00  0.00    +0.000 NA
ATOM      8  C   UNL     1       3.221   4.868  19.254  0.00  0.00    +0.000 A 
ATOM      9  C   UNL     1       3.975   5.619  18.373  0.00  0.00    +0.000 A 
ATOM     10  O   UNL     1       3.573   6.921  18.543  0.00  0.00    +0.000 OA
BRANCH   9  11
ATOM     11  N   UNL     1       4.912   5.394  17.413  0.00  0.00    +0.000 N 
ATOM     12  C   UNL     1       5.207   6.433  16.424  0.00  0.00    +0.000 C 
ATOM     13  C   UNL     1       5.280   5.808  15.033  0.00  0.00    +0.000 C 
ATOM     14  C   UNL     1       6.270   4.635  14.986  0.00  0.00    +0.000 C 
ATOM     15  C   UNL     1       6.225   3.958  13.617  0.00  0.00    +0.000 C 
ATOM     16  C   UNL     1       5.963   3.625  16.104  0.00  0.00    +0.000 C 
ATOM     17  C   UNL     1       5.876   4.299  17.479  0.00  0.00    +0.000 C 
ENDBRANCH   9  11
BRANCH   8  18
ATOM     18  C   UNL     1       3.272   3.457  19.491  0.00  0.00    +0.000 C 
ATOM     19  N   UNL     1       3.326   2.311  19.669  0.00  0.00    +0.000 NA
ENDBRANCH   8  18
ENDBRANCH   4   6
BRANCH   1  20
ATOM     20  C   UNL     1       0.324  11.272  19.075  0.00  0.00    +0.000 C 
BRANCH  20  21
ATOM     21  O   UNL     1      -0.618  11.957  19.911  0.00  0.00    +0.000 OA
BRANCH  21  25
ATOM     22  C   UNL     1      -4.639  12.005  18.711  0.00  0.00    +0.000 A 
ATOM     23  C   UNL     1      -4.220  12.568  19.916  0.00  0.00    +0.000 A 
ATOM     24  C   UNL     1      -2.865  12.549  20.282  0.00  0.00    +0.000 A 
ATOM     25  C   UNL     1      -1.917  11.931  19.465  0.00  0.00    +0.000 A 
ATOM     26  C   UNL     1      -2.340  11.378  18.252  0.00  0.00    +0.000 A 
ATOM     27  C   UNL     1      -3.693  11.410  17.880  0.00  0.00    +0.000 A 
BRANCH  22  29
ATOM     28  C   UNL     1      -6.385  12.759  17.295  0.00  0.00    +0.000 C 
ATOM     29  O   UNL     1      -5.985  12.058  18.468  0.00  0.00    +0.000 OA
ENDBRANCH  22  29
ENDBRANCH  21  25
ENDBRANCH  20  21
ENDBRANCH   1  20
TORSDOF 7
ENDMDL
