MODEL 1
REMARK VINA RESULT:      -6.8      0.000      0.000
REMARK  Name = 
REMARK  5 active torsions:
REMARK  status: ('A' for Active; 'I' for Inactive)
REMARK    1  A    between atoms: C_1  and  O_2
REMARK    2  A    between atoms: O_2  and  C_3
REMARK    3  A    between atoms: C_7  and  C_8
REMARK    4  A    between atoms: C_8  and  N_9
REMARK    5  A    between atoms: C_10  and  C_12
REMARK                            x       y       z     vdW  Elec       q    Type
REMARK                         _______ _______ _______ _____ _____    ______ ____
ROOT
ATOM      1  N   UNL     1       5.798   4.070  16.723  0.00  0.00    +0.000 N 
ATOM      2  C   UNL     1       4.617   4.728  16.986  0.00  0.00    +0.000 C 
ATOM      3  O   UNL     1       4.441   5.921  16.774  0.00  0.00    +0.000 OA
ATOM      4  H   UNL     1       5.810   3.062  16.679  0.00  0.00    +0.000 HD
ENDROOT
BRANCH   2   5
ATOM      5  C   UNL     1       3.510   3.896  17.527  0.00  0.00    +0.000 A 
ATOM      6  C   UNL     1       3.672   2.533  17.787  0.00  0.00    +0.000 A 
ATOM      7  C   UNL     1       2.586   1.839  18.291  0.00  0.00    +0.000 A 
ATOM      8  N   UNL     1       1.388   2.405  18.548  0.00  0.00    +0.000 NA
ATOM      9  C   UNL     1       1.269   3.729  18.309  0.00  0.00    +0.000 A 
ATOM     10  C   UNL     1       2.291   4.511  17.809  0.00  0.00    +0.000 A 
ENDBRANCH   2   5
BRANCH   1  11
ATOM     11  C   UNL     1       6.924   4.765  16.140  0.00  0.00    +0.000 C 
BRANCH  11  16
ATOM     12  C   UNL     1       6.121   3.499  12.629  0.00  0.00    +0.000 A 
ATOM     13  C   UNL     1       6.979   4.292  11.861  0.00  0.00    +0.000 A 
ATOM     14  C   UNL     1       7.814   5.227  12.469  0.00  0.00    +0.000 A 
ATOM     15  C   UNL     1       7.799   5.374  13.854  0.00  0.00    +0.000 A 
ATOM     16  C   UNL     1       6.948   4.587  14.643  0.00  0.00    +0.000 A 
ATOM     17  C   UNL     1       6.109   3.649  14.018  0.00  0.00    +0.000 A 
BRANCH  12  19
ATOM     18  C   UNL     1       4.188   3.155  11.288  0.00  0.00    +0.000 C 
ATOM     19  O   UNL     1       5.354   2.626  11.907  0.00  0.00    +0.000 OA
ENDBRANCH  12  19
ENDBRANCH  11  16
ENDBRANCH   1  11
TORSDOF 4
ENDMDL
MODEL 2
REMARK VINA RESULT:      -6.6      1.049      1.352
REMARK  Name = 
REMARK  5 active torsions:
REMARK  status: ('A' for Active; 'I' for Inactive)
REMARK    1  A    between atoms: C_1  and  O_2
REMARK    2  A    between atoms: O_2  and  C_3
REMARK    3  A    between atoms: C_7  and  C_8
REMARK    4  A    between atoms: C_8  and  N_9
REMARK    5  A    between atoms: C_10  and  C_12
REMARK                            x       y       z     vdW  Elec       q    Type
REMARK                         _______ _______ _______ _____ _____    ______ ____
ROOT
ATOM      1  N   UNL     1       5.323   4.548  16.608  0.00  0.00    +0.000 N 
ATOM      2  C   UNL     1       5.162   4.197  17.930  0.00  0.00    +0.000 C 
ATOM      3  O   UNL     1       6.061   4.249  18.761  0.00  0.00    +0.000 OA
ATOM      4  H   UNL     1       4.510   4.724  16.036  0.00  0.00    +0.000 HD
ENDROOT
BRANCH   2   5
ATOM      5  C   UNL     1       3.798   3.766  18.333  0.00  0.00    +0.000 A 
ATOM      6  C   UNL     1       2.672   4.074  17.568  0.00  0.00    +0.000 A 
ATOM      7  C   UNL     1       1.442   3.630  18.020  0.00  0.00    +0.000 A 
ATOM      8  N   UNL     1       1.273   2.916  19.153  0.00  0.00    +0.000 NA
ATOM      9  C   UNL     1       2.383   2.612  19.860  0.00  0.00    +0.000 A 
ATOM     10  C   UNL     1       3.656   3.005  19.494  0.00  0.00    +0.000 A 
ENDBRANCH   2   5
BRANCH   1  11
ATOM     11  C   UNL     1       6.591   5.038  16.115  0.00  0.00    +0.000 C 
BRANCH  11  16
ATOM     12  C   UNL     1       6.053   3.535  12.646  0.00  0.00    +0.000 A 
ATOM     13  C   UNL     1       7.029   4.214  11.911  0.00  0.00    +0.000 A 
ATOM     14  C   UNL     1       7.858   5.149  12.529  0.00  0.00    +0.000 A 
ATOM     15  C   UNL     1       7.718   5.409  13.890  0.00  0.00    +0.000 A 
ATOM     16  C   UNL     1       6.747   4.737  14.646  0.00  0.00    +0.000 A 
ATOM     17  C   UNL     1       5.915   3.798  14.012  0.00  0.00    +0.000 A 
BRANCH  12  19
ATOM     18  C   UNL     1       4.137   3.159  11.289  0.00  0.00    +0.000 C 
ATOM     19  O   UNL     1       5.306   2.650  11.919  0.00  0.00    +0.000 OA
ENDBRANCH  12  19
ENDBRANCH  11  16
ENDBRANCH   1  11
TORSDOF 4
ENDMDL
MODEL 3
REMARK VINA RESULT:      -6.5      2.356      6.876
REMARK  Name = 
REMARK  5 active torsions:
REMARK  status: ('A' for Active; 'I' for Inactive)
REMARK    1  A    between atoms: C_1  and  O_2
REMARK    2  A    between atoms: O_2  and  C_3
REMARK    3  A    between atoms: C_7  and  C_8
REMARK    4  A    between atoms: C_8  and  N_9
REMARK    5  A    between atoms: C_10  and  C_12
REMARK                            x       y       z     vdW  Elec       q    Type
REMARK                         _______ _______ _______ _____ _____    ______ ____
ROOT
ATOM      1  N   UNL     1       5.527   5.537  16.443  0.00  0.00    +0.000 N 
ATOM      2  C   UNL     1       6.680   4.908  16.029  0.00  0.00    +0.000 C 
ATOM      3  O   UNL     1       7.571   4.553  16.790  0.00  0.00    +0.000 OA
ATOM      4  H   UNL     1       4.731   5.581  15.824  0.00  0.00    +0.000 HD
ENDROOT
BRANCH   2   5
ATOM      5  C   UNL     1       6.793   4.640  14.571  0.00  0.00    +0.000 A 
ATOM      6  C   UNL     1       5.999   3.685  13.934  0.00  0.00    +0.000 A 
ATOM      7  C   UNL     1       6.173   3.504  12.573  0.00  0.00    +0.000 A 
ATOM      8  N   UNL     1       7.061   4.199  11.832  0.00  0.00    +0.000 NA
ATOM      9  C   UNL     1       7.798   5.133  12.471  0.00  0.00    +0.000 A 
ATOM     10  C   UNL     1       7.700   5.392  13.824  0.00  0.00    +0.000 A 
ENDBRANCH   2   5
BRANCH   1  11
ATOM     11  C   UNL     1       5.281   5.797  17.844  0.00  0.00    +0.000 C 
BRANCH  11  16
ATOM     12  C   UNL     1       2.530   4.386  20.085  0.00  0.00    +0.000 A 
ATOM     13  C   UNL     1       1.637   3.895  19.129  0.00  0.00    +0.000 A 
ATOM     14  C   UNL     1       1.920   4.013  17.769  0.00  0.00    +0.000 A 
ATOM     15  C   UNL     1       3.101   4.624  17.356  0.00  0.00    +0.000 A 
ATOM     16  C   UNL     1       4.012   5.121  18.300  0.00  0.00    +0.000 A 
ATOM     17  C   UNL     1       3.715   4.998  19.668  0.00  0.00    +0.000 A 
BRANCH  12  19
ATOM     18  C   UNL     1       1.736   2.896  21.760  0.00  0.00    +0.000 C 
ATOM     19  O   UNL     1       2.129   4.209  21.382  0.00  0.00    +0.000 OA
ENDBRANCH  12  19
ENDBRANCH  11  16
ENDBRANCH   1  11
TORSDOF 4
ENDMDL
MODEL 4
REMARK VINA RESULT:      -6.5      2.378      6.897
REMARK  Name = 
REMARK  5 active torsions:
REMARK  status: ('A' for Active; 'I' for Inactive)
REMARK    1  A    between atoms: C_1  and  O_2
REMARK    2  A    between atoms: O_2  and  C_3
REMARK    3  A    between atoms: C_7  and  C_8
REMARK    4  A    between atoms: C_8  and  N_9
REMARK    5  A    between atoms: C_10  and  C_12
REMARK                            x       y       z     vdW  Elec       q    Type
REMARK                         _______ _______ _______ _____ _____    ______ ____
ROOT
ATOM      1  N   UNL     1       5.549   5.441  16.530  0.00  0.00    +0.000 N 
ATOM      2  C   UNL     1       6.735   4.904  16.082  0.00  0.00    +0.000 C 
ATOM      3  O   UNL     1       7.667   4.604  16.819  0.00  0.00    +0.000 OA
ATOM      4  H   UNL     1       4.738   5.435  15.928  0.00  0.00    +0.000 HD
ENDROOT
BRANCH   2   5
ATOM      5  C   UNL     1       6.835   4.665  14.618  0.00  0.00    +0.000 A 
ATOM      6  C   UNL     1       7.732   5.372  13.816  0.00  0.00    +0.000 A 
ATOM      7  C   UNL     1       7.756   5.081  12.463  0.00  0.00    +0.000 A 
ATOM      8  N   UNL     1       6.967   4.154  11.882  0.00  0.00    +0.000 NA
ATOM      9  C   UNL     1       6.126   3.469  12.687  0.00  0.00    +0.000 A 
ATOM     10  C   UNL     1       6.027   3.682  14.048  0.00  0.00    +0.000 A 
ENDBRANCH   2   5
BRANCH   1  11
ATOM     11  C   UNL     1       5.316   5.663  17.940  0.00  0.00    +0.000 C 
BRANCH  11  16
ATOM     12  C   UNL     1       2.458   4.362  20.112  0.00  0.00    +0.000 A 
ATOM     13  C   UNL     1       1.520   4.019  19.135  0.00  0.00    +0.000 A 
ATOM     14  C   UNL     1       1.806   4.201  17.783  0.00  0.00    +0.000 A 
ATOM     15  C   UNL     1       3.037   4.728  17.399  0.00  0.00    +0.000 A 
ATOM     16  C   UNL     1       3.993   5.076  18.364  0.00  0.00    +0.000 A 
ATOM     17  C   UNL     1       3.692   4.890  19.724  0.00  0.00    +0.000 A 
BRANCH  12  19
ATOM     18  C   UNL     1       1.862   2.781  21.785  0.00  0.00    +0.000 C 
ATOM     19  O   UNL     1       2.049   4.136  21.398  0.00  0.00    +0.000 OA
ENDBRANCH  12  19
ENDBRANCH  11  16
ENDBRANCH   1  11
TORSDOF 4
ENDMDL
MODEL 5
REMARK VINA RESULT:      -6.5      3.108      4.788
REMARK  Name = 
REMARK  5 active torsions:
REMARK  status: ('A' for Active; 'I' for Inactive)
REMARK    1  A    between atoms: C_1  and  O_2
REMARK    2  A    between atoms: O_2  and  C_3
REMARK    3  A    between atoms: C_7  and  C_8
REMARK    4  A    between atoms: C_8  and  N_9
REMARK    5  A    between atoms: C_10  and  C_12
REMARK                            x       y       z     vdW  Elec       q    Type
REMARK                         _______ _______ _______ _____ _____    ______ ____
ROOT
ATOM      1  N   UNL     1       4.522   4.210  17.075  0.00  0.00    +0.000 N 
ATOM      2  C   UNL     1       3.502   4.941  17.641  0.00  0.00    +0.000 C 
ATOM      3  O   UNL     1       3.391   6.156  17.526  0.00  0.00    +0.000 OA
ATOM      4  H   UNL     1       4.431   3.208  16.990  0.00  0.00    +0.000 HD
ENDROOT
BRANCH   2   5
ATOM      5  C   UNL     1       2.484   4.169  18.401  0.00  0.00    +0.000 A 
ATOM      6  C   UNL     1       2.018   2.929  17.958  0.00  0.00    +0.000 A 
ATOM      7  C   UNL     1       1.071   2.282  18.731  0.00  0.00    +0.000 A 
ATOM      8  N   UNL     1       0.579   2.778  19.885  0.00  0.00    +0.000 NA
ATOM      9  C   UNL     1       1.066   3.967  20.301  0.00  0.00    +0.000 A 
ATOM     10  C   UNL     1       2.013   4.692  19.604  0.00  0.00    +0.000 A 
ENDBRANCH   2   5
BRANCH   1  11
ATOM     11  C   UNL     1       5.537   4.847  16.266  0.00  0.00    +0.000 C 
BRANCH  11  16
ATOM     12  C   UNL     1       7.579   7.727  17.721  0.00  0.00    +0.000 A 
ATOM     13  C   UNL     1       8.254   7.074  18.756  0.00  0.00    +0.000 A 
ATOM     14  C   UNL     1       8.057   5.713  18.983  0.00  0.00    +0.000 A 
ATOM     15  C   UNL     1       7.182   4.994  18.173  0.00  0.00    +0.000 A 
ATOM     16  C   UNL     1       6.496   5.629  17.127  0.00  0.00    +0.000 A 
ATOM     17  C   UNL     1       6.702   7.003  16.910  0.00  0.00    +0.000 A 
BRANCH  12  19
ATOM     18  C   UNL     1       8.745   9.614  18.576  0.00  0.00    +0.000 C 
ATOM     19  O   UNL     1       7.860   9.061  17.611  0.00  0.00    +0.000 OA
ENDBRANCH  12  19
ENDBRANCH  11  16
ENDBRANCH   1  11
TORSDOF 4
ENDMDL
MODEL 6
REMARK VINA RESULT:      -6.5      2.238      6.736
REMARK  Name = 
REMARK  5 active torsions:
REMARK  status: ('A' for Active; 'I' for Inactive)
REMARK    1  A    between atoms: C_1  and  O_2
REMARK    2  A    between atoms: O_2  and  C_3
REMARK    3  A    between atoms: C_7  and  C_8
REMARK    4  A    between atoms: C_8  and  N_9
REMARK    5  A    between atoms: C_10  and  C_12
REMARK                            x       y       z     vdW  Elec       q    Type
REMARK                         _______ _______ _______ _____ _____    ______ ____
ROOT
ATOM      1  N   UNL     1       5.936   4.098  16.679  0.00  0.00    +0.000 N 
ATOM      2  C   UNL     1       6.213   5.131  15.811  0.00  0.00    +0.000 C 
ATOM      3  O   UNL     1       6.221   6.311  16.139  0.00  0.00    +0.000 OA
ATOM      4  H   UNL     1       6.184   3.153  16.427  0.00  0.00    +0.000 HD
ENDROOT
BRANCH   2   5
ATOM      5  C   UNL     1       6.542   4.742  14.414  0.00  0.00    +0.000 A 
ATOM      6  C   UNL     1       5.806   3.777  13.725  0.00  0.00    +0.000 A 
ATOM      7  C   UNL     1       6.185   3.480  12.428  0.00  0.00    +0.000 A 
ATOM      8  N   UNL     1       7.219   4.073  11.795  0.00  0.00    +0.000 NA
ATOM      9  C   UNL     1       7.898   5.020  12.478  0.00  0.00    +0.000 A 
ATOM     10  C   UNL     1       7.599   5.390  13.775  0.00  0.00    +0.000 A 
ENDBRANCH   2   5
BRANCH   1  11
ATOM     11  C   UNL     1       5.659   4.352  18.076  0.00  0.00    +0.000 C 
BRANCH  11  16
ATOM     12  C   UNL     1       2.391   3.102  19.605  0.00  0.00    +0.000 A 
ATOM     13  C   UNL     1       1.463   3.900  18.931  0.00  0.00    +0.000 A 
ATOM     14  C   UNL     1       1.885   4.834  17.986  0.00  0.00    +0.000 A 
ATOM     15  C   UNL     1       3.243   4.974  17.707  0.00  0.00    +0.000 A 
ATOM     16  C   UNL     1       4.190   4.181  18.370  0.00  0.00    +0.000 A 
ATOM     17  C   UNL     1       3.752   3.245  19.323  0.00  0.00    +0.000 A 
BRANCH  12  19
ATOM     18  C   UNL     1       1.407   2.777  21.745  0.00  0.00    +0.000 C 
ATOM     19  O   UNL     1       1.844   2.231  20.507  0.00  0.00    +0.000 OA
ENDBRANCH  12  19
ENDBRANCH  11  16
ENDBRANCH   1  11
TORSDOF 4
ENDMDL
MODEL 7
REMARK VINA RESULT:      -6.4      3.426      5.022
REMARK  Name = 
REMARK  5 active torsions:
REMARK  status: ('A' for Active; 'I' for Inactive)
REMARK    1  A    between atoms: C_1  and  O_2
REMARK    2  A    between atoms: O_2  and  C_3
REMARK    3  A    between atoms: C_7  and  C_8
REMARK    4  A    between atoms: C_8  and  N_9
REMARK    5  A    between atoms: C_10  and  C_12
REMARK                            x       y       z     vdW  Elec       q    Type
REMARK                         _______ _______ _______ _____ _____    ______ ____
ROOT
ATOM      1  N   UNL     1       2.868   5.515  17.813  0.00  0.00    +0.000 N 
ATOM      2  C   UNL     1       2.940   6.114  19.052  0.00  0.00    +0.000 C 
ATOM      3  O   UNL     1       3.555   5.642  20.000  0.00  0.00    +0.000 OA
ATOM      4  H   UNL     1       2.569   6.054  17.014  0.00  0.00    +0.000 HD
ENDROOT
BRANCH   2   5
ATOM      5  C   UNL     1       2.243   7.419  19.190  0.00  0.00    +0.000 A 
ATOM      6  C   UNL     1       2.111   8.302  18.116  0.00  0.00    +0.000 A 
ATOM      7  C   UNL     1       1.445   9.494  18.338  0.00  0.00    +0.000 A 
ATOM      8  N   UNL     1       0.916   9.847  19.528  0.00  0.00    +0.000 NA
ATOM      9  C   UNL     1       1.038   8.963  20.542  0.00  0.00    +0.000 A 
ATOM     10  C   UNL     1       1.682   7.747  20.424  0.00  0.00    +0.000 A 
ENDBRANCH   2   5
BRANCH   1  11
ATOM     11  C   UNL     1       3.556   4.272  17.545  0.00  0.00    +0.000 C 
BRANCH  11  16
ATOM     12  C   UNL     1       6.841   5.742  16.269  0.00  0.00    +0.000 A 
ATOM     13  C   UNL     1       7.086   4.919  15.166  0.00  0.00    +0.000 A 
ATOM     14  C   UNL     1       6.199   3.898  14.832  0.00  0.00    +0.000 A 
ATOM     15  C   UNL     1       5.054   3.694  15.600  0.00  0.00    +0.000 A 
ATOM     16  C   UNL     1       4.788   4.511  16.709  0.00  0.00    +0.000 A 
ATOM     17  C   UNL     1       5.692   5.535  17.037  0.00  0.00    +0.000 A 
BRANCH  12  19
ATOM     18  C   UNL     1       7.544   7.627  17.536  0.00  0.00    +0.000 C 
ATOM     19  O   UNL     1       7.792   6.700  16.487  0.00  0.00    +0.000 OA
ENDBRANCH  12  19
ENDBRANCH  11  16
ENDBRANCH   1  11
TORSDOF 4
ENDMDL
MODEL 8
REMARK VINA RESULT:      -6.4      2.717      7.180
REMARK  Name = 
REMARK  5 active torsions:
REMARK  status: ('A' for Active; 'I' for Inactive)
REMARK    1  A    between atoms: C_1  and  O_2
REMARK    2  A    between atoms: O_2  and  C_3
REMARK    3  A    between atoms: C_7  and  C_8
REMARK    4  A    between atoms: C_8  and  N_9
REMARK    5  A    between atoms: C_10  and  C_12
REMARK                            x       y       z     vdW  Elec       q    Type
REMARK                         _______ _______ _______ _____ _____    ______ ____
ROOT
ATOM      1  N   UNL     1       5.231   3.197  19.000  0.00  0.00    +0.000 N 
ATOM      2  C   UNL     1       4.860   3.397  17.689  0.00  0.00    +0.000 C 
ATOM      3  O   UNL     1       3.826   2.958  17.201  0.00  0.00    +0.000 OA
ATOM      4  H   UNL     1       5.948   3.777  19.411  0.00  0.00    +0.000 HD
ENDROOT
BRANCH   2   5
ATOM      5  C   UNL     1       5.782   4.223  16.866  0.00  0.00    +0.000 A 
ATOM      6  C   UNL     1       6.428   5.346  17.385  0.00  0.00    +0.000 A 
ATOM      7  C   UNL     1       7.269   6.053  16.545  0.00  0.00    +0.000 A 
ATOM      8  N   UNL     1       7.500   5.717  15.259  0.00  0.00    +0.000 NA
ATOM      9  C   UNL     1       6.880   4.612  14.790  0.00  0.00    +0.000 A 
ATOM     10  C   UNL     1       6.023   3.837  15.547  0.00  0.00    +0.000 A 
ENDBRANCH   2   5
BRANCH   1  11
ATOM     11  C   UNL     1       4.384   2.460  19.911  0.00  0.00    +0.000 C 
BRANCH  11  16
ATOM     12  C   UNL     1       1.819   5.219  20.534  0.00  0.00    +0.000 A 
ATOM     13  C   UNL     1       0.628   4.490  20.472  0.00  0.00    +0.000 A 
ATOM     14  C   UNL     1       0.649   3.117  20.235  0.00  0.00    +0.000 A 
ATOM     15  C   UNL     1       1.866   2.461  20.059  0.00  0.00    +0.000 A 
ATOM     16  C   UNL     1       3.072   3.174  20.120  0.00  0.00    +0.000 A 
ATOM     17  C   UNL     1       3.037   4.559  20.358  0.00  0.00    +0.000 A 
BRANCH  12  19
ATOM     18  C   UNL     1       2.135   7.448  19.771  0.00  0.00    +0.000 C 
ATOM     19  O   UNL     1       1.655   6.557  20.769  0.00  0.00    +0.000 OA
ENDBRANCH  12  19
ENDBRANCH  11  16
ENDBRANCH   1  11
TORSDOF 4
ENDMDL
MODEL 9
REMARK VINA RESULT:      -6.4      2.623      6.522
REMARK  Name = 
REMARK  5 active torsions:
REMARK  status: ('A' for Active; 'I' for Inactive)
REMARK    1  A    between atoms: C_1  and  O_2
REMARK    2  A    between atoms: O_2  and  C_3
REMARK    3  A    between atoms: C_7  and  C_8
REMARK    4  A    between atoms: C_8  and  N_9
REMARK    5  A    between atoms: C_10  and  C_12
REMARK                            x       y       z     vdW  Elec       q    Type
REMARK                         _______ _______ _______ _____ _____    ______ ____
ROOT
ATOM      1  N   UNL     1       6.089   6.261  16.007  0.00  0.00    +0.000 N 
ATOM      2  C   UNL     1       6.885   5.176  15.715  0.00  0.00    +0.000 C 
ATOM      3  O   UNL     1       7.563   4.587  16.548  0.00  0.00    +0.000 OA
ATOM      4  H   UNL     1       5.373   6.546  15.354  0.00  0.00    +0.000 HD
ENDROOT
BRANCH   2   5
ATOM      5  C   UNL     1       6.865   4.709  14.304  0.00  0.00    +0.000 A 
ATOM      6  C   UNL     1       5.975   3.727  13.865  0.00  0.00    +0.000 A 
ATOM      7  C   UNL     1       6.028   3.356  12.533  0.00  0.00    +0.000 A 
ATOM      8  N   UNL     1       6.886   3.891  11.640  0.00  0.00    +0.000 NA
ATOM      9  C   UNL     1       7.719   4.855  12.087  0.00  0.00    +0.000 A 
ATOM     10  C   UNL     1       7.744   5.298  13.395  0.00  0.00    +0.000 A 
ENDBRANCH   2   5
BRANCH   1  11
ATOM     11  C   UNL     1       5.983   6.767  17.357  0.00  0.00    +0.000 C 
BRANCH  11  16
ATOM     12  C   UNL     1       3.511   4.722  19.427  0.00  0.00    +0.000 A 
ATOM     13  C   UNL     1       2.337   5.456  19.235  0.00  0.00    +0.000 A 
ATOM     14  C   UNL     1       2.339   6.601  18.441  0.00  0.00    +0.000 A 
ATOM     15  C   UNL     1       3.519   7.020  17.831  0.00  0.00    +0.000 A 
ATOM     16  C   UNL     1       4.707   6.296  18.008  0.00  0.00    +0.000 A 
ATOM     17  C   UNL     1       4.692   5.144  18.812  0.00  0.00    +0.000 A 
BRANCH  12  19
ATOM     18  C   UNL     1       4.182   2.496  19.927  0.00  0.00    +0.000 C 
ATOM     19  O   UNL     1       3.371   3.623  20.230  0.00  0.00    +0.000 OA
ENDBRANCH  12  19
ENDBRANCH  11  16
ENDBRANCH   1  11
TORSDOF 4
ENDMDL
