MODEL 1
REMARK VINA RESULT:      -7.7      0.000      0.000
REMARK  Name = 
REMARK  6 active torsions:
REMARK  status: ('A' for Active; 'I' for Inactive)
REMARK    1  A    between atoms: C_2  and  C_11
REMARK    2  A    between atoms: N_3  and  C_4
REMARK    3  A    between atoms: C_4  and  C_5
REMARK    4  A    between atoms: N_17  and  C_18
REMARK    5  A    between atoms: C_18  and  C_19
REMARK    6  A    between atoms: C_28  and  O_29
REMARK                            x       y       z     vdW  Elec       q    Type
REMARK                         _______ _______ _______ _____ _____    ______ ____
ROOT
ATOM      1  C   UNL     1       1.752   9.225  17.813  0.00  0.00    +0.000 C 
ATOM      2  C   UNL     1       2.201  10.656  18.141  0.00  0.00    +0.000 C 
ATOM      3  C   UNL     1       1.472  11.297  19.334  0.00  0.00    +0.000 C 
ATOM      4  C   UNL     1      -0.095  11.305  19.231  0.00  0.00    +0.000 C 
ATOM      5  C   UNL     1      -0.527  12.568  18.479  0.00  0.00    +0.000 C 
ATOM      6  C   UNL     1      -1.947  12.531  17.930  0.00  0.00    +0.000 C 
ATOM      7  N   UNL     1      -2.717  11.399  18.422  0.00  0.00    +0.000 NA
ATOM      8  C   UNL     1      -2.079  10.104  18.143  0.00  0.00    +0.000 C 
ATOM      9  C   UNL     1      -0.612   9.925  18.727  0.00  0.00    +0.000 C 
ATOM     10  C   UNL     1      -0.501   9.027  20.046  0.00  0.00    +0.000 C 
ATOM     11  C   UNL     1      -0.504  10.014  21.167  0.00  0.00    +0.000 A 
ATOM     12  C   UNL     1      -0.435   9.841  22.534  0.00  0.00    +0.000 A 
ATOM     13  C   UNL     1      -1.009  10.829  23.328  0.00  0.00    +0.000 A 
ATOM     14  C   UNL     1      -1.709  11.861  22.702  0.00  0.00    +0.000 A 
ATOM     15  C   UNL     1      -1.532  12.113  21.347  0.00  0.00    +0.000 A 
ATOM     16  C   UNL     1      -0.696  11.272  20.637  0.00  0.00    +0.000 A 
ATOM     17  C   UNL     1       0.229   9.230  17.620  0.00  0.00    +0.000 C 
ENDROOT
BRANCH   1  19
ATOM     18  O   UNL     1       2.142   8.159  19.958  0.00  0.00    +0.000 OA
ATOM     19  C   UNL     1       2.317   8.136  18.761  0.00  0.00    +0.000 C 
ATOM     20  N   UNL     1       3.035   7.134  18.126  0.00  0.00    +0.000 N 
ATOM     21  H   UNL     1       3.352   7.295  17.179  0.00  0.00    +0.000 HD
BRANCH  20  22
ATOM     22  C   UNL     1       3.596   6.021  18.853  0.00  0.00    +0.000 C 
BRANCH  22  23
ATOM     23  C   UNL     1       2.578   4.928  19.065  0.00  0.00    +0.000 A 
ATOM     24  C   UNL     1       2.157   4.104  18.015  0.00  0.00    +0.000 A 
ATOM     25  C   UNL     1       1.227   3.087  18.248  0.00  0.00    +0.000 A 
ATOM     26  C   UNL     1       0.692   2.889  19.514  0.00  0.00    +0.000 A 
ATOM     27  C   UNL     1       1.109   3.699  20.570  0.00  0.00    +0.000 A 
ATOM     28  C   UNL     1       2.046   4.710  20.345  0.00  0.00    +0.000 A 
ENDBRANCH  22  23
ENDBRANCH  20  22
ENDBRANCH   1  19
BRANCH  14  29
ATOM     29  O   UNL     1      -2.591  12.635  23.395  0.00  0.00    +0.000 OA
ATOM     30  H   UNL     1      -2.147  12.938  24.204  0.00  0.00    +0.000 HD
ENDBRANCH  14  29
BRANCH   7  31
ATOM     31  C   UNL     1      -4.141  11.496  18.102  0.00  0.00    +0.000 C 
BRANCH  31  32
ATOM     32  C   UNL     1      -5.053  11.851  19.243  0.00  0.00    +0.000 C 
ATOM     33  C   UNL     1      -4.835  13.058  20.123  0.00  0.00    +0.000 C 
ATOM     34  C   UNL     1      -5.960  13.054  19.130  0.00  0.00    +0.000 C 
ENDBRANCH  31  32
ENDBRANCH   7  31
TORSDOF 6
ENDMDL
MODEL 2
REMARK VINA RESULT:      -7.4      4.068      6.844
REMARK  Name = 
REMARK  6 active torsions:
REMARK  status: ('A' for Active; 'I' for Inactive)
REMARK    1  A    between atoms: C_2  and  C_11
REMARK    2  A    between atoms: N_3  and  C_4
REMARK    3  A    between atoms: C_4  and  C_5
REMARK    4  A    between atoms: N_17  and  C_18
REMARK    5  A    between atoms: C_18  and  C_19
REMARK    6  A    between atoms: C_28  and  O_29
REMARK                            x       y       z     vdW  Elec       q    Type
REMARK                         _______ _______ _______ _____ _____    ______ ____
ROOT
ATOM      1  C   UNL     1      -1.043  11.428  18.278  0.00  0.00    +0.000 C 
ATOM      2  C   UNL     1      -0.410  10.723  19.486  0.00  0.00    +0.000 C 
ATOM      3  C   UNL     1      -1.016  11.112  20.844  0.00  0.00    +0.000 C 
ATOM      4  C   UNL     1      -1.030  12.653  21.150  0.00  0.00    +0.000 C 
ATOM      5  C   UNL     1       0.302  13.032  21.803  0.00  0.00    +0.000 C 
ATOM      6  C   UNL     1       0.624  14.520  21.782  0.00  0.00    +0.000 C 
ATOM      7  N   UNL     1      -0.500  15.339  21.357  0.00  0.00    +0.000 NA
ATOM      8  C   UNL     1      -1.021  14.960  20.034  0.00  0.00    +0.000 C 
ATOM      9  C   UNL     1      -1.498  13.450  19.896  0.00  0.00    +0.000 C 
ATOM     10  C   UNL     1      -3.081  13.223  19.929  0.00  0.00    +0.000 C 
ATOM     11  C   UNL     1      -3.375  12.871  21.352  0.00  0.00    +0.000 A 
ATOM     12  C   UNL     1      -4.560  12.571  21.990  0.00  0.00    +0.000 A 
ATOM     13  C   UNL     1      -4.630  12.836  23.354  0.00  0.00    +0.000 A 
ATOM     14  C   UNL     1      -3.554  13.485  23.961  0.00  0.00    +0.000 A 
ATOM     15  C   UNL     1      -2.314  13.532  23.335  0.00  0.00    +0.000 A 
ATOM     16  C   UNL     1      -2.205  12.976  22.075  0.00  0.00    +0.000 A 
ATOM     17  C   UNL     1      -0.985  12.943  18.519  0.00  0.00    +0.000 C 
ENDROOT
BRANCH   1  19
ATOM     18  O   UNL     1      -2.770   9.730  18.108  0.00  0.00    +0.000 OA
ATOM     19  C   UNL     1      -2.418  10.858  17.844  0.00  0.00    +0.000 C 
ATOM     20  N   UNL     1      -3.212  11.744  17.131  0.00  0.00    +0.000 N 
ATOM     21  H   UNL     1      -2.777  12.566  16.733  0.00  0.00    +0.000 HD
BRANCH  20  22
ATOM     22  C   UNL     1      -4.537  11.389  16.684  0.00  0.00    +0.000 C 
BRANCH  22  23
ATOM     23  C   UNL     1      -5.577  11.705  17.730  0.00  0.00    +0.000 A 
ATOM     24  C   UNL     1      -6.056  10.727  18.608  0.00  0.00    +0.000 A 
ATOM     25  C   UNL     1      -7.005  11.056  19.580  0.00  0.00    +0.000 A 
ATOM     26  C   UNL     1      -7.501  12.349  19.679  0.00  0.00    +0.000 A 
ATOM     27  C   UNL     1      -7.025  13.335  18.815  0.00  0.00    +0.000 A 
ATOM     28  C   UNL     1      -6.069  13.014  17.849  0.00  0.00    +0.000 A 
ENDBRANCH  22  23
ENDBRANCH  20  22
ENDBRANCH   1  19
BRANCH  14  29
ATOM     29  O   UNL     1      -3.693  14.098  25.170  0.00  0.00    +0.000 OA
ATOM     30  H   UNL     1      -3.012  13.741  25.763  0.00  0.00    +0.000 HD
ENDBRANCH  14  29
BRANCH   7  31
ATOM     31  C   UNL     1      -0.279  16.768  21.574  0.00  0.00    +0.000 C 
BRANCH  31  32
ATOM     32  C   UNL     1      -1.441  17.541  22.133  0.00  0.00    +0.000 C 
ATOM     33  C   UNL     1      -2.795  16.920  22.382  0.00  0.00    +0.000 C 
ATOM     34  C   UNL     1      -1.911  17.270  23.543  0.00  0.00    +0.000 C 
ENDBRANCH  31  32
ENDBRANCH   7  31
TORSDOF 6
ENDMDL
MODEL 3
REMARK VINA RESULT:      -7.4      2.170      3.926
REMARK  Name = 
REMARK  6 active torsions:
REMARK  status: ('A' for Active; 'I' for Inactive)
REMARK    1  A    between atoms: C_2  and  C_11
REMARK    2  A    between atoms: N_3  and  C_4
REMARK    3  A    between atoms: C_4  and  C_5
REMARK    4  A    between atoms: N_17  and  C_18
REMARK    5  A    between atoms: C_18  and  C_19
REMARK    6  A    between atoms: C_28  and  O_29
REMARK                            x       y       z     vdW  Elec       q    Type
REMARK                         _______ _______ _______ _____ _____    ______ ____
ROOT
ATOM      1  C   UNL     1       1.611   9.672  20.400  0.00  0.00    +0.000 C 
ATOM      2  C   UNL     1       0.400   9.322  21.277  0.00  0.00    +0.000 C 
ATOM      3  C   UNL     1      -0.961   9.686  20.663  0.00  0.00    +0.000 C 
ATOM      4  C   UNL     1      -1.113  11.187  20.223  0.00  0.00    +0.000 C 
ATOM      5  C   UNL     1      -1.606  11.999  21.426  0.00  0.00    +0.000 C 
ATOM      6  C   UNL     1      -1.409  13.504  21.305  0.00  0.00    +0.000 C 
ATOM      7  N   UNL     1      -1.007  13.919  19.970  0.00  0.00    +0.000 NA
ATOM      8  C   UNL     1       0.220  13.253  19.505  0.00  0.00    +0.000 C 
ATOM      9  C   UNL     1       0.166  11.665  19.475  0.00  0.00    +0.000 C 
ATOM     10  C   UNL     1      -0.030  11.010  18.030  0.00  0.00    +0.000 C 
ATOM     11  C   UNL     1      -1.500  10.763  17.931  0.00  0.00    +0.000 A 
ATOM     12  C   UNL     1      -2.267  10.223  16.921  0.00  0.00    +0.000 A 
ATOM     13  C   UNL     1      -3.600  10.619  16.855  0.00  0.00    +0.000 A 
ATOM     14  C   UNL     1      -4.042  11.610  17.732  0.00  0.00    +0.000 A 
ATOM     15  C   UNL     1      -3.307  11.927  18.868  0.00  0.00    +0.000 A 
ATOM     16  C   UNL     1      -2.103  11.277  19.060  0.00  0.00    +0.000 A 
ATOM     17  C   UNL     1       1.527  11.160  20.033  0.00  0.00    +0.000 C 
ENDROOT
BRANCH   1  19
ATOM     18  O   UNL     1       1.750   9.021  18.066  0.00  0.00    +0.000 OA
ATOM     19  C   UNL     1       1.863   8.693  19.225  0.00  0.00    +0.000 C 
ATOM     20  N   UNL     1       2.232   7.412  19.609  0.00  0.00    +0.000 N 
ATOM     21  H   UNL     1       2.072   7.133  20.568  0.00  0.00    +0.000 HD
BRANCH  20  22
ATOM     22  C   UNL     1       2.543   6.387  18.644  0.00  0.00    +0.000 C 
BRANCH  22  23
ATOM     23  C   UNL     1       1.986   5.047  19.059  0.00  0.00    +0.000 A 
ATOM     24  C   UNL     1       1.705   4.753  20.398  0.00  0.00    +0.000 A 
ATOM     25  C   UNL     1       1.171   3.510  20.749  0.00  0.00    +0.000 A 
ATOM     26  C   UNL     1       0.929   2.542  19.783  0.00  0.00    +0.000 A 
ATOM     27  C   UNL     1       1.198   2.827  18.444  0.00  0.00    +0.000 A 
ATOM     28  C   UNL     1       1.721   4.071  18.087  0.00  0.00    +0.000 A 
ENDBRANCH  22  23
ENDBRANCH  20  22
ENDBRANCH   1  19
BRANCH  14  29
ATOM     29  O   UNL     1      -5.192  12.301  17.491  0.00  0.00    +0.000 OA
ATOM     30  H   UNL     1      -5.393  12.221  16.544  0.00  0.00    +0.000 HD
ENDBRANCH  14  29
BRANCH   7  31
ATOM     31  C   UNL     1      -1.061  15.368  19.783  0.00  0.00    +0.000 C 
BRANCH  31  32
ATOM     32  C   UNL     1      -0.232  15.922  18.657  0.00  0.00    +0.000 C 
ATOM     33  C   UNL     1      -0.503  17.264  18.022  0.00  0.00    +0.000 C 
ATOM     34  C   UNL     1       0.693  17.088  18.912  0.00  0.00    +0.000 C 
ENDBRANCH  31  32
ENDBRANCH   7  31
TORSDOF 6
ENDMDL
MODEL 4
REMARK VINA RESULT:      -7.4      2.555      4.200
REMARK  Name = 
REMARK  6 active torsions:
REMARK  status: ('A' for Active; 'I' for Inactive)
REMARK    1  A    between atoms: C_2  and  C_11
REMARK    2  A    between atoms: N_3  and  C_4
REMARK    3  A    between atoms: C_4  and  C_5
REMARK    4  A    between atoms: N_17  and  C_18
REMARK    5  A    between atoms: C_18  and  C_19
REMARK    6  A    between atoms: C_28  and  O_29
REMARK                            x       y       z     vdW  Elec       q    Type
REMARK                         _______ _______ _______ _____ _____    ______ ____
ROOT
ATOM      1  C   UNL     1      -0.172   9.606  18.953  0.00  0.00    +0.000 C 
ATOM      2  C   UNL     1      -1.201  10.377  18.114  0.00  0.00    +0.000 C 
ATOM      3  C   UNL     1      -0.982  11.898  18.073  0.00  0.00    +0.000 C 
ATOM      4  C   UNL     1      -0.898  12.596  19.478  0.00  0.00    +0.000 C 
ATOM      5  C   UNL     1      -2.317  12.961  19.926  0.00  0.00    +0.000 C 
ATOM      6  C   UNL     1      -2.463  13.255  21.412  0.00  0.00    +0.000 C 
ATOM      7  N   UNL     1      -1.184  13.368  22.097  0.00  0.00    +0.000 NA
ATOM      8  C   UNL     1      -0.341  12.173  21.942  0.00  0.00    +0.000 C 
ATOM      9  C   UNL     1      -0.003  11.765  20.444  0.00  0.00    +0.000 C 
ATOM     10  C   UNL     1       1.467  12.143  19.942  0.00  0.00    +0.000 C 
ATOM     11  C   UNL     1       1.293  13.445  19.232  0.00  0.00    +0.000 A 
ATOM     12  C   UNL     1       2.201  14.263  18.592  0.00  0.00    +0.000 A 
ATOM     13  C   UNL     1       1.895  15.619  18.524  0.00  0.00    +0.000 A 
ATOM     14  C   UNL     1       0.762  16.079  19.197  0.00  0.00    +0.000 A 
ATOM     15  C   UNL     1      -0.228  15.191  19.600  0.00  0.00    +0.000 A 
ATOM     16  C   UNL     1      -0.019  13.844  19.372  0.00  0.00    +0.000 A 
ATOM     17  C   UNL     1      -0.140  10.219  20.359  0.00  0.00    +0.000 C 
ENDROOT
BRANCH   1  19
ATOM     18  O   UNL     1       1.679  10.218  17.506  0.00  0.00    +0.000 OA
ATOM     19  C   UNL     1       1.203   9.404  18.265  0.00  0.00    +0.000 C 
ATOM     20  N   UNL     1       1.843   8.218  18.590  0.00  0.00    +0.000 N 
ATOM     21  H   UNL     1       1.301   7.481  19.021  0.00  0.00    +0.000 HD
BRANCH  20  22
ATOM     22  C   UNL     1       3.148   7.889  18.070  0.00  0.00    +0.000 C 
BRANCH  22  23
ATOM     23  C   UNL     1       3.263   6.418  17.752  0.00  0.00    +0.000 A 
ATOM     24  C   UNL     1       4.410   5.883  17.157  0.00  0.00    +0.000 A 
ATOM     25  C   UNL     1       4.493   4.513  16.894  0.00  0.00    +0.000 A 
ATOM     26  C   UNL     1       3.437   3.665  17.199  0.00  0.00    +0.000 A 
ATOM     27  C   UNL     1       2.291   4.185  17.801  0.00  0.00    +0.000 A 
ATOM     28  C   UNL     1       2.207   5.552  18.075  0.00  0.00    +0.000 A 
ENDBRANCH  22  23
ENDBRANCH  20  22
ENDBRANCH   1  19
BRANCH  14  29
ATOM     29  O   UNL     1       0.603  17.401  19.486  0.00  0.00    +0.000 OA
ATOM     30  H   UNL     1       0.199  17.465  20.367  0.00  0.00    +0.000 HD
ENDBRANCH  14  29
BRANCH   7  31
ATOM     31  C   UNL     1      -1.310  13.894  23.456  0.00  0.00    +0.000 C 
BRANCH  31  32
ATOM     32  C   UNL     1      -2.663  14.430  23.836  0.00  0.00    +0.000 C 
ATOM     33  C   UNL     1      -3.634  13.666  24.701  0.00  0.00    +0.000 C 
ATOM     34  C   UNL     1      -2.923  14.864  25.259  0.00  0.00    +0.000 C 
ENDBRANCH  31  32
ENDBRANCH   7  31
TORSDOF 6
ENDMDL
MODEL 5
REMARK VINA RESULT:      -7.3      8.239     10.414
REMARK  Name = 
REMARK  6 active torsions:
REMARK  status: ('A' for Active; 'I' for Inactive)
REMARK    1  A    between atoms: C_2  and  C_11
REMARK    2  A    between atoms: N_3  and  C_4
REMARK    3  A    between atoms: C_4  and  C_5
REMARK    4  A    between atoms: N_17  and  C_18
REMARK    5  A    between atoms: C_18  and  C_19
REMARK    6  A    between atoms: C_28  and  O_29
REMARK                            x       y       z     vdW  Elec       q    Type
REMARK                         _______ _______ _______ _____ _____    ______ ____
ROOT
ATOM      1  C   UNL     1       8.624  17.385  18.394  0.00  0.00    +0.000 C 
ATOM      2  C   UNL     1       8.505  18.165  19.711  0.00  0.00    +0.000 C 
ATOM      3  C   UNL     1       8.293  17.289  20.957  0.00  0.00    +0.000 C 
ATOM      4  C   UNL     1       7.072  16.303  20.877  0.00  0.00    +0.000 C 
ATOM      5  C   UNL     1       5.820  17.039  21.365  0.00  0.00    +0.000 C 
ATOM      6  C   UNL     1       4.501  16.390  20.968  0.00  0.00    +0.000 C 
ATOM      7  N   UNL     1       4.670  15.060  20.402  0.00  0.00    +0.000 NA
ATOM      8  C   UNL     1       5.564  15.042  19.234  0.00  0.00    +0.000 C 
ATOM      9  C   UNL     1       7.030  15.602  19.487  0.00  0.00    +0.000 C 
ATOM     10  C   UNL     1       8.174  14.495  19.638  0.00  0.00    +0.000 C 
ATOM     11  C   UNL     1       8.314  14.307  21.114  0.00  0.00    +0.000 A 
ATOM     12  C   UNL     1       9.137  13.483  21.853  0.00  0.00    +0.000 A 
ATOM     13  C   UNL     1       8.686  13.103  23.113  0.00  0.00    +0.000 A 
ATOM     14  C   UNL     1       7.399  13.479  23.500  0.00  0.00    +0.000 A 
ATOM     15  C   UNL     1       6.731  14.499  22.832  0.00  0.00    +0.000 A 
ATOM     16  C   UNL     1       7.356  15.074  21.742  0.00  0.00    +0.000 A 
ATOM     17  C   UNL     1       7.393  16.480  18.256  0.00  0.00    +0.000 C 
ENDROOT
BRANCH   1  19
ATOM     18  O   UNL     1      10.976  16.971  18.831  0.00  0.00    +0.000 OA
ATOM     19  C   UNL     1      10.000  16.706  18.167  0.00  0.00    +0.000 C 
ATOM     20  N   UNL     1      10.020  15.768  17.145  0.00  0.00    +0.000 N 
ATOM     21  H   UNL     1       9.259  15.768  16.478  0.00  0.00    +0.000 HD
BRANCH  20  22
ATOM     22  C   UNL     1      11.207  15.014  16.826  0.00  0.00    +0.000 C 
BRANCH  22  23
ATOM     23  C   UNL     1      11.337  13.790  17.699  0.00  0.00    +0.000 A 
ATOM     24  C   UNL     1      12.251  13.736  18.756  0.00  0.00    +0.000 A 
ATOM     25  C   UNL     1      12.333  12.595  19.559  0.00  0.00    +0.000 A 
ATOM     26  C   UNL     1      11.527  11.492  19.311  0.00  0.00    +0.000 A 
ATOM     27  C   UNL     1      10.606  11.537  18.265  0.00  0.00    +0.000 A 
ATOM     28  C   UNL     1      10.512  12.679  17.466  0.00  0.00    +0.000 A 
ENDBRANCH  22  23
ENDBRANCH  20  22
ENDBRANCH   1  19
BRANCH  14  29
ATOM     29  O   UNL     1       6.761  12.851  24.528  0.00  0.00    +0.000 OA
ATOM     30  H   UNL     1       6.403  13.535  25.116  0.00  0.00    +0.000 HD
ENDBRANCH  14  29
BRANCH   7  31
ATOM     31  C   UNL     1       3.407  14.339  20.255  0.00  0.00    +0.000 C 
BRANCH  31  32
ATOM     32  C   UNL     1       2.902  14.169  18.849  0.00  0.00    +0.000 C 
ATOM     33  C   UNL     1       2.601  12.819  18.243  0.00  0.00    +0.000 C 
ATOM     34  C   UNL     1       1.473  13.738  18.614  0.00  0.00    +0.000 C 
ENDBRANCH  31  32
ENDBRANCH   7  31
TORSDOF 6
ENDMDL
MODEL 6
REMARK VINA RESULT:      -7.3      4.011      7.064
REMARK  Name = 
REMARK  6 active torsions:
REMARK  status: ('A' for Active; 'I' for Inactive)
REMARK    1  A    between atoms: C_2  and  C_11
REMARK    2  A    between atoms: N_3  and  C_4
REMARK    3  A    between atoms: C_4  and  C_5
REMARK    4  A    between atoms: N_17  and  C_18
REMARK    5  A    between atoms: C_18  and  C_19
REMARK    6  A    between atoms: C_28  and  O_29
REMARK                            x       y       z     vdW  Elec       q    Type
REMARK                         _______ _______ _______ _____ _____    ______ ____
ROOT
ATOM      1  C   UNL     1      -1.197  11.192  18.158  0.00  0.00    +0.000 C 
ATOM      2  C   UNL     1      -0.597  10.451  19.362  0.00  0.00    +0.000 C 
ATOM      3  C   UNL     1      -1.151  10.896  20.726  0.00  0.00    +0.000 C 
ATOM      4  C   UNL     1      -1.046  12.436  21.017  0.00  0.00    +0.000 C 
ATOM      5  C   UNL     1       0.322  12.721  21.646  0.00  0.00    +0.000 C 
ATOM      6  C   UNL     1       0.752  14.181  21.605  0.00  0.00    +0.000 C 
ATOM      7  N   UNL     1      -0.316  15.077  21.190  0.00  0.00    +0.000 NA
ATOM      8  C   UNL     1      -0.885  14.726  19.880  0.00  0.00    +0.000 C 
ATOM      9  C   UNL     1      -1.475  13.255  19.764  0.00  0.00    +0.000 C 
ATOM     10  C   UNL     1      -3.069  13.146  19.825  0.00  0.00    +0.000 C 
ATOM     11  C   UNL     1      -3.364  12.828  21.255  0.00  0.00    +0.000 A 
ATOM     12  C   UNL     1      -4.557  12.622  21.915  0.00  0.00    +0.000 A 
ATOM     13  C   UNL     1      -4.585  12.902  23.277  0.00  0.00    +0.000 A 
ATOM     14  C   UNL     1      -3.454  13.475  23.861  0.00  0.00    +0.000 A 
ATOM     15  C   UNL     1      -2.225  13.425  23.214  0.00  0.00    +0.000 A 
ATOM     16  C   UNL     1      -2.179  12.852  21.958  0.00  0.00    +0.000 A 
ATOM     17  C   UNL     1      -1.024  12.700  18.384  0.00  0.00    +0.000 C 
ENDROOT
BRANCH   1  19
ATOM     18  O   UNL     1      -3.032   9.610  17.995  0.00  0.00    +0.000 OA
ATOM     19  C   UNL     1      -2.617  10.721  17.751  0.00  0.00    +0.000 C 
ATOM     20  N   UNL     1      -3.374  11.675  17.088  0.00  0.00    +0.000 N 
ATOM     21  H   UNL     1      -2.901  12.480  16.700  0.00  0.00    +0.000 HD
BRANCH  20  22
ATOM     22  C   UNL     1      -4.732  11.417  16.673  0.00  0.00    +0.000 C 
BRANCH  22  23
ATOM     23  C   UNL     1      -5.718  11.758  17.763  0.00  0.00    +0.000 A 
ATOM     24  C   UNL     1      -6.222  10.781  18.628  0.00  0.00    +0.000 A 
ATOM     25  C   UNL     1      -7.119  11.132  19.641  0.00  0.00    +0.000 A 
ATOM     26  C   UNL     1      -7.539  12.447  19.793  0.00  0.00    +0.000 A 
ATOM     27  C   UNL     1      -7.038  13.431  18.942  0.00  0.00    +0.000 A 
ATOM     28  C   UNL     1      -6.133  13.087  17.935  0.00  0.00    +0.000 A 
ENDBRANCH  22  23
ENDBRANCH  20  22
ENDBRANCH   1  19
BRANCH  14  29
ATOM     29  O   UNL     1      -3.527  14.107  25.066  0.00  0.00    +0.000 OA
ATOM     30  H   UNL     1      -3.006  14.924  25.004  0.00  0.00    +0.000 HD
ENDBRANCH  14  29
BRANCH   7  31
ATOM     31  C   UNL     1       0.014  16.487  21.390  0.00  0.00    +0.000 C 
BRANCH  31  32
ATOM     32  C   UNL     1       1.412  16.899  21.019  0.00  0.00    +0.000 C 
ATOM     33  C   UNL     1       1.822  17.227  19.603  0.00  0.00    +0.000 C 
ATOM     34  C   UNL     1       1.689  18.328  20.615  0.00  0.00    +0.000 C 
ENDBRANCH  31  32
ENDBRANCH   7  31
TORSDOF 6
ENDMDL
MODEL 7
REMARK VINA RESULT:      -7.3      2.427      4.344
REMARK  Name = 
REMARK  6 active torsions:
REMARK  status: ('A' for Active; 'I' for Inactive)
REMARK    1  A    between atoms: C_2  and  C_11
REMARK    2  A    between atoms: N_3  and  C_4
REMARK    3  A    between atoms: C_4  and  C_5
REMARK    4  A    between atoms: N_17  and  C_18
REMARK    5  A    between atoms: C_18  and  C_19
REMARK    6  A    between atoms: C_28  and  O_29
REMARK                            x       y       z     vdW  Elec       q    Type
REMARK                         _______ _______ _______ _____ _____    ______ ____
ROOT
ATOM      1  C   UNL     1       1.091   9.629  21.822  0.00  0.00    +0.000 C 
ATOM      2  C   UNL     1      -0.133  10.114  22.611  0.00  0.00    +0.000 C 
ATOM      3  C   UNL     1      -1.327  10.541  21.741  0.00  0.00    +0.000 C 
ATOM      4  C   UNL     1      -1.003  11.627  20.652  0.00  0.00    +0.000 C 
ATOM      5  C   UNL     1      -1.161  13.013  21.286  0.00  0.00    +0.000 C 
ATOM      6  C   UNL     1      -0.494  14.146  20.519  0.00  0.00    +0.000 C 
ATOM      7  N   UNL     1      -0.031  13.744  19.200  0.00  0.00    +0.000 NA
ATOM      8  C   UNL     1       0.897  12.603  19.239  0.00  0.00    +0.000 C 
ATOM      9  C   UNL     1       0.332  11.287  19.927  0.00  0.00    +0.000 C 
ATOM     10  C   UNL     1      -0.119  10.126  18.925  0.00  0.00    +0.000 C 
ATOM     11  C   UNL     1      -1.594  10.319  18.775  0.00  0.00    +0.000 A 
ATOM     12  C   UNL     1      -2.533   9.629  18.038  0.00  0.00    +0.000 A 
ATOM     13  C   UNL     1      -3.667  10.330  17.641  0.00  0.00    +0.000 A 
ATOM     14  C   UNL     1      -3.732  11.697  17.911  0.00  0.00    +0.000 A 
ATOM     15  C   UNL     1      -2.891  12.269  18.859  0.00  0.00    +0.000 A 
ATOM     16  C   UNL     1      -1.955  11.456  19.467  0.00  0.00    +0.000 A 
ATOM     17  C   UNL     1       1.477  10.718  20.812  0.00  0.00    +0.000 C 
ENDROOT
BRANCH   1  19
ATOM     18  O   UNL     1      -0.045   7.535  21.353  0.00  0.00    +0.000 OA
ATOM     19  C   UNL     1       0.969   8.189  21.259  0.00  0.00    +0.000 C 
ATOM     20  N   UNL     1       2.114   7.712  20.639  0.00  0.00    +0.000 N 
ATOM     21  H   UNL     1       2.988   8.193  20.806  0.00  0.00    +0.000 HD
BRANCH  20  22
ATOM     22  C   UNL     1       2.161   6.407  20.026  0.00  0.00    +0.000 C 
BRANCH  22  23
ATOM     23  C   UNL     1       3.350   6.269  19.108  0.00  0.00    +0.000 A 
ATOM     24  C   UNL     1       4.411   5.407  19.406  0.00  0.00    +0.000 A 
ATOM     25  C   UNL     1       5.490   5.287  18.524  0.00  0.00    +0.000 A 
ATOM     26  C   UNL     1       5.536   6.031  17.353  0.00  0.00    +0.000 A 
ATOM     27  C   UNL     1       4.480   6.887  17.041  0.00  0.00    +0.000 A 
ATOM     28  C   UNL     1       3.395   7.003  17.913  0.00  0.00    +0.000 A 
ENDBRANCH  22  23
ENDBRANCH  20  22
ENDBRANCH   1  19
BRANCH  14  29
ATOM     29  O   UNL     1      -4.606  12.505  17.249  0.00  0.00    +0.000 OA
ATOM     30  H   UNL     1      -4.095  13.048  16.627  0.00  0.00    +0.000 HD
ENDBRANCH  14  29
BRANCH   7  31
ATOM     31  C   UNL     1       0.378  14.876  18.370  0.00  0.00    +0.000 C 
BRANCH  31  32
ATOM     32  C   UNL     1       0.013  16.241  18.886  0.00  0.00    +0.000 C 
ATOM     33  C   UNL     1       0.726  17.499  18.453  0.00  0.00    +0.000 C 
ATOM     34  C   UNL     1      -0.670  17.229  17.970  0.00  0.00    +0.000 C 
ENDBRANCH  31  32
ENDBRANCH   7  31
TORSDOF 6
ENDMDL
MODEL 8
REMARK VINA RESULT:      -7.3      7.827      9.776
REMARK  Name = 
REMARK  6 active torsions:
REMARK  status: ('A' for Active; 'I' for Inactive)
REMARK    1  A    between atoms: C_2  and  C_11
REMARK    2  A    between atoms: N_3  and  C_4
REMARK    3  A    between atoms: C_4  and  C_5
REMARK    4  A    between atoms: N_17  and  C_18
REMARK    5  A    between atoms: C_18  and  C_19
REMARK    6  A    between atoms: C_28  and  O_29
REMARK                            x       y       z     vdW  Elec       q    Type
REMARK                         _______ _______ _______ _____ _____    ______ ____
ROOT
ATOM      1  C   UNL     1       8.928  17.287  18.555  0.00  0.00    +0.000 C 
ATOM      2  C   UNL     1       8.877  18.104  19.853  0.00  0.00    +0.000 C 
ATOM      3  C   UNL     1       8.259  17.364  21.051  0.00  0.00    +0.000 C 
ATOM      4  C   UNL     1       6.822  16.780  20.802  0.00  0.00    +0.000 C 
ATOM      5  C   UNL     1       5.791  17.865  21.130  0.00  0.00    +0.000 C 
ATOM      6  C   UNL     1       4.402  17.621  20.558  0.00  0.00    +0.000 C 
ATOM      7  N   UNL     1       4.241  16.286  20.004  0.00  0.00    +0.000 NA
ATOM      8  C   UNL     1       5.232  15.972  18.963  0.00  0.00    +0.000 C 
ATOM      9  C   UNL     1       6.753  16.084  19.411  0.00  0.00    +0.000 C 
ATOM     10  C   UNL     1       7.489  14.694  19.698  0.00  0.00    +0.000 C 
ATOM     11  C   UNL     1       7.379  14.514  21.177  0.00  0.00    +0.000 A 
ATOM     12  C   UNL     1       7.820  13.506  22.008  0.00  0.00    +0.000 A 
ATOM     13  C   UNL     1       7.119  13.310  23.194  0.00  0.00    +0.000 A 
ATOM     14  C   UNL     1       5.963  14.059  23.414  0.00  0.00    +0.000 A 
ATOM     15  C   UNL     1       5.717  15.211  22.676  0.00  0.00    +0.000 A 
ATOM     16  C   UNL     1       6.617  15.546  21.683  0.00  0.00    +0.000 A 
ATOM     17  C   UNL     1       7.513  16.780  18.247  0.00  0.00    +0.000 C 
ENDROOT
BRANCH   1  19
ATOM     18  O   UNL     1      11.036  16.279  19.213  0.00  0.00    +0.000 OA
ATOM     19  C   UNL     1      10.059  16.227  18.501  0.00  0.00    +0.000 C 
ATOM     20  N   UNL     1       9.859  15.214  17.576  0.00  0.00    +0.000 N 
ATOM     21  H   UNL     1       9.164  15.354  16.853  0.00  0.00    +0.000 HD
BRANCH  20  22
ATOM     22  C   UNL     1      10.793  14.126  17.423  0.00  0.00    +0.000 C 
BRANCH  22  23
ATOM     23  C   UNL     1      10.410  12.944  18.279  0.00  0.00    +0.000 A 
ATOM     24  C   UNL     1       9.519  11.965  17.824  0.00  0.00    +0.000 A 
ATOM     25  C   UNL     1       9.200  10.872  18.634  0.00  0.00    +0.000 A 
ATOM     26  C   UNL     1       9.744  10.747  19.906  0.00  0.00    +0.000 A 
ATOM     27  C   UNL     1      10.640  11.711  20.367  0.00  0.00    +0.000 A 
ATOM     28  C   UNL     1      10.970  12.800  19.558  0.00  0.00    +0.000 A 
ENDBRANCH  22  23
ENDBRANCH  20  22
ENDBRANCH   1  19
BRANCH  14  29
ATOM     29  O   UNL     1       5.042  13.675  24.343  0.00  0.00    +0.000 OA
ATOM     30  H   UNL     1       5.501  13.578  25.193  0.00  0.00    +0.000 HD
ENDBRANCH  14  29
BRANCH   7  31
ATOM     31  C   UNL     1       2.851  15.963  19.686  0.00  0.00    +0.000 C 
BRANCH  31  32
ATOM     32  C   UNL     1       2.639  14.835  18.715  0.00  0.00    +0.000 C 
ATOM     33  C   UNL     1       2.580  13.388  19.140  0.00  0.00    +0.000 C 
ATOM     34  C   UNL     1       1.325  14.090  18.709  0.00  0.00    +0.000 C 
ENDBRANCH  31  32
ENDBRANCH   7  31
TORSDOF 6
ENDMDL
MODEL 9
REMARK VINA RESULT:      -7.2      3.133      8.607
REMARK  Name = 
REMARK  6 active torsions:
REMARK  status: ('A' for Active; 'I' for Inactive)
REMARK    1  A    between atoms: C_2  and  C_11
REMARK    2  A    between atoms: N_3  and  C_4
REMARK    3  A    between atoms: C_4  and  C_5
REMARK    4  A    between atoms: N_17  and  C_18
REMARK    5  A    between atoms: C_18  and  C_19
REMARK    6  A    between atoms: C_28  and  O_29
REMARK                            x       y       z     vdW  Elec       q    Type
REMARK                         _______ _______ _______ _____ _____    ______ ____
ROOT
ATOM      1  C   UNL     1      -2.099  15.528  22.889  0.00  0.00    +0.000 C 
ATOM      2  C   UNL     1      -1.347  15.892  21.601  0.00  0.00    +0.000 C 
ATOM      3  C   UNL     1      -1.562  14.911  20.437  0.00  0.00    +0.000 C 
ATOM      4  C   UNL     1      -1.239  13.408  20.764  0.00  0.00    +0.000 C 
ATOM      5  C   UNL     1       0.250  13.162  20.503  0.00  0.00    +0.000 C 
ATOM      6  C   UNL     1       0.813  11.906  21.153  0.00  0.00    +0.000 C 
ATOM      7  N   UNL     1      -0.217  11.041  21.707  0.00  0.00    +0.000 NA
ATOM      8  C   UNL     1      -1.075  11.724  22.688  0.00  0.00    +0.000 C 
ATOM      9  C   UNL     1      -1.827  13.019  22.153  0.00  0.00    +0.000 C 
ATOM     10  C   UNL     1      -3.377  12.824  21.816  0.00  0.00    +0.000 C 
ATOM     11  C   UNL     1      -3.407  12.566  20.344  0.00  0.00    +0.000 A 
ATOM     12  C   UNL     1      -4.455  12.320  19.483  0.00  0.00    +0.000 A 
ATOM     13  C   UNL     1      -4.175  11.581  18.338  0.00  0.00    +0.000 A 
ATOM     14  C   UNL     1      -2.896  11.044  18.190  0.00  0.00    +0.000 A 
ATOM     15  C   UNL     1      -1.836  11.527  18.948  0.00  0.00    +0.000 A 
ATOM     16  C   UNL     1      -2.107  12.502  19.889  0.00  0.00    +0.000 A 
ATOM     17  C   UNL     1      -1.726  14.090  23.275  0.00  0.00    +0.000 C 
ENDROOT
BRANCH   1  19
ATOM     18  O   UNL     1      -4.110  16.595  22.048  0.00  0.00    +0.000 OA
ATOM     19  C   UNL     1      -3.613  15.860  22.871  0.00  0.00    +0.000 C 
ATOM     20  N   UNL     1      -4.352  15.244  23.870  0.00  0.00    +0.000 N 
ATOM     21  H   UNL     1      -3.858  14.849  24.660  0.00  0.00    +0.000 HD
BRANCH  20  22
ATOM     22  C   UNL     1      -5.781  15.412  23.975  0.00  0.00    +0.000 C 
BRANCH  22  23
ATOM     23  C   UNL     1      -6.522  14.311  23.255  0.00  0.00    +0.000 A 
ATOM     24  C   UNL     1      -6.778  14.376  21.881  0.00  0.00    +0.000 A 
ATOM     25  C   UNL     1      -7.450  13.331  21.240  0.00  0.00    +0.000 A 
ATOM     26  C   UNL     1      -7.888  12.224  21.955  0.00  0.00    +0.000 A 
ATOM     27  C   UNL     1      -7.631  12.144  23.323  0.00  0.00    +0.000 A 
ATOM     28  C   UNL     1      -6.951  13.181  23.967  0.00  0.00    +0.000 A 
ENDBRANCH  22  23
ENDBRANCH  20  22
ENDBRANCH   1  19
BRANCH  14  29
ATOM     29  O   UNL     1      -2.656  10.028  17.314  0.00  0.00    +0.000 OA
ATOM     30  H   UNL     1      -2.554   9.211  17.828  0.00  0.00    +0.000 HD
ENDBRANCH  14  29
BRANCH   7  31
ATOM     31  C   UNL     1       0.292   9.729  22.104  0.00  0.00    +0.000 C 
BRANCH  31  32
ATOM     32  C   UNL     1       0.330   8.681  21.026  0.00  0.00    +0.000 C 
ATOM     33  C   UNL     1       1.383   8.655  19.944  0.00  0.00    +0.000 C 
ATOM     34  C   UNL     1       1.415   7.631  21.041  0.00  0.00    +0.000 C 
ENDBRANCH  31  32
ENDBRANCH   7  31
TORSDOF 6
ENDMDL
