MODEL 1
REMARK VINA RESULT:      -8.3      0.000      0.000
REMARK  Name = 
REMARK  6 active torsions:
REMARK  status: ('A' for Active; 'I' for Inactive)
REMARK    1  A    between atoms: C_1  and  N_2
REMARK    2  A    between atoms: C_3  and  O_4
REMARK    3  A    between atoms: O_4  and  C_5
REMARK    4  A    between atoms: N_16  and  C_17
REMARK    5  A    between atoms: C_17  and  C_18
REMARK    6  A    between atoms: N_28  and  C_29
REMARK                            x       y       z     vdW  Elec       q    Type
REMARK                         _______ _______ _______ _____ _____    ______ ____
ROOT
ATOM      1  C   UNL     1       1.709   8.794  17.781  0.00  0.00    +0.000 C 
ATOM      2  N   UNL     1       1.401   8.788  19.189  0.00  0.00    +0.000 N 
ATOM      3  C   UNL     1       1.853   7.882  20.125  0.00  0.00    +0.000 A 
ATOM      4  N   UNL     1       1.357   8.141  21.318  0.00  0.00    +0.000 NA
ATOM      5  C   UNL     1       0.625   9.266  21.151  0.00  0.00    +0.000 A 
ATOM      6  C   UNL     1       0.640   9.711  19.864  0.00  0.00    +0.000 A 
ATOM      7  C   UNL     1      -0.017  10.909  19.463  0.00  0.00    +0.000 A 
ATOM      8  O   UNL     1       0.024  11.340  18.314  0.00  0.00    +0.000 OA
ATOM      9  N   UNL     1      -0.693  11.545  20.523  0.00  0.00    +0.000 N 
ATOM     10  C   UNL     1      -0.798  11.044  21.840  0.00  0.00    +0.000 A 
ATOM     11  O   UNL     1      -1.511  11.596  22.682  0.00  0.00    +0.000 OA
ATOM     12  N   UNL     1      -0.053   9.912  22.148  0.00  0.00    +0.000 N 
ATOM     13  C   UNL     1      -0.002   9.394  23.505  0.00  0.00    +0.000 C 
ENDROOT
BRANCH   3  14
ATOM     14  O   UNL     1       2.700   6.888  19.850  0.00  0.00    +0.000 OA
BRANCH  14  15
ATOM     15  C   UNL     1       2.195   5.635  19.560  0.00  0.00    +0.000 A 
ATOM     16  C   UNL     1       1.672   4.874  20.605  0.00  0.00    +0.000 A 
ATOM     17  C   UNL     1       1.122   3.616  20.342  0.00  0.00    +0.000 A 
ATOM     18  C   UNL     1       1.087   3.122  19.036  0.00  0.00    +0.000 A 
ATOM     19  C   UNL     1       1.601   3.885  17.990  0.00  0.00    +0.000 A 
ATOM     20  C   UNL     1       2.143   5.143  18.250  0.00  0.00    +0.000 A 
ENDBRANCH  14  15
ENDBRANCH   3  14
BRANCH   9  21
ATOM     21  C   UNL     1      -1.361  12.808  20.244  0.00  0.00    +0.000 C 
BRANCH  21  22
ATOM     22  C   UNL     1      -2.851  12.706  19.931  0.00  0.00    +0.000 A 
ATOM     23  C   UNL     1      -3.350  11.895  18.894  0.00  0.00    +0.000 A 
ATOM     24  C   UNL     1      -4.726  11.751  18.688  0.00  0.00    +0.000 A 
ATOM     25  C   UNL     1      -5.627  12.426  19.507  0.00  0.00    +0.000 A 
ATOM     26 CL   UNL     1      -7.318  12.198  19.289  0.00  0.00    +0.000 Cl
ATOM     27  C   UNL     1      -5.164  13.278  20.502  0.00  0.00    +0.000 A 
ATOM     28  C   UNL     1      -3.788  13.423  20.706  0.00  0.00    +0.000 A 
ATOM     29 CL   UNL     1      -3.286  14.518  21.948  0.00  0.00    +0.000 Cl
ENDBRANCH  21  22
ENDBRANCH   9  21
TORSDOF 4
ENDMDL
MODEL 2
REMARK VINA RESULT:      -7.6      2.721      4.006
REMARK  Name = 
REMARK  6 active torsions:
REMARK  status: ('A' for Active; 'I' for Inactive)
REMARK    1  A    between atoms: C_1  and  N_2
REMARK    2  A    between atoms: C_3  and  O_4
REMARK    3  A    between atoms: O_4  and  C_5
REMARK    4  A    between atoms: N_16  and  C_17
REMARK    5  A    between atoms: C_17  and  C_18
REMARK    6  A    between atoms: N_28  and  C_29
REMARK                            x       y       z     vdW  Elec       q    Type
REMARK                         _______ _______ _______ _____ _____    ______ ____
ROOT
ATOM      1  C   UNL     1       2.993   7.766  17.683  0.00  0.00    +0.000 C 
ATOM      2  N   UNL     1       2.256   7.980  18.903  0.00  0.00    +0.000 N 
ATOM      3  C   UNL     1       2.209   7.139  19.994  0.00  0.00    +0.000 A 
ATOM      4  N   UNL     1       1.414   7.615  20.932  0.00  0.00    +0.000 NA
ATOM      5  C   UNL     1       0.995   8.809  20.454  0.00  0.00    +0.000 A 
ATOM      6  C   UNL     1       1.502   9.084  19.220  0.00  0.00    +0.000 A 
ATOM      7  C   UNL     1       1.241  10.310  18.544  0.00  0.00    +0.000 A 
ATOM      8  O   UNL     1       1.726  10.585  17.450  0.00  0.00    +0.000 OA
ATOM      9  N   UNL     1       0.391  11.167  19.271  0.00  0.00    +0.000 N 
ATOM     10  C   UNL     1      -0.219  10.855  20.505  0.00  0.00    +0.000 A 
ATOM     11  O   UNL     1      -1.049  11.608  21.020  0.00  0.00    +0.000 OA
ATOM     12  N   UNL     1       0.166   9.669  21.120  0.00  0.00    +0.000 N 
ATOM     13  C   UNL     1      -0.316   9.321  22.446  0.00  0.00    +0.000 C 
ENDROOT
BRANCH   3  14
ATOM     14  O   UNL     1       2.901   6.001  20.086  0.00  0.00    +0.000 OA
BRANCH  14  15
ATOM     15  C   UNL     1       2.274   4.807  19.786  0.00  0.00    +0.000 A 
ATOM     16  C   UNL     1       1.755   4.051  20.837  0.00  0.00    +0.000 A 
ATOM     17  C   UNL     1       1.083   2.854  20.567  0.00  0.00    +0.000 A 
ATOM     18  C   UNL     1       0.926   2.417  19.250  0.00  0.00    +0.000 A 
ATOM     19  C   UNL     1       1.437   3.176  18.199  0.00  0.00    +0.000 A 
ATOM     20  C   UNL     1       2.100   4.373  18.467  0.00  0.00    +0.000 A 
ENDBRANCH  14  15
ENDBRANCH   3  14
BRANCH   9  21
ATOM     21  C   UNL     1       0.093  12.473  18.701  0.00  0.00    +0.000 C 
BRANCH  21  22
ATOM     22  C   UNL     1       1.034  13.600  19.118  0.00  0.00    +0.000 A 
ATOM     23  C   UNL     1       2.425  13.536  18.913  0.00  0.00    +0.000 A 
ATOM     24  C   UNL     1       3.252  14.620  19.222  0.00  0.00    +0.000 A 
ATOM     25  C   UNL     1       2.704  15.784  19.755  0.00  0.00    +0.000 A 
ATOM     26 CL   UNL     1       3.716  17.137  20.077  0.00  0.00    +0.000 Cl
ATOM     27  C   UNL     1       1.343  15.857  20.022  0.00  0.00    +0.000 A 
ATOM     28  C   UNL     1       0.517  14.771  19.714  0.00  0.00    +0.000 A 
ATOM     29 CL   UNL     1      -1.165  14.925  20.094  0.00  0.00    +0.000 Cl
ENDBRANCH  21  22
ENDBRANCH   9  21
TORSDOF 4
ENDMDL
MODEL 3
REMARK VINA RESULT:      -7.5      0.994      1.652
REMARK  Name = 
REMARK  6 active torsions:
REMARK  status: ('A' for Active; 'I' for Inactive)
REMARK    1  A    between atoms: C_1  and  N_2
REMARK    2  A    between atoms: C_3  and  O_4
REMARK    3  A    between atoms: O_4  and  C_5
REMARK    4  A    between atoms: N_16  and  C_17
REMARK    5  A    between atoms: C_17  and  C_18
REMARK    6  A    between atoms: N_28  and  C_29
REMARK                            x       y       z     vdW  Elec       q    Type
REMARK                         _______ _______ _______ _____ _____    ______ ____
ROOT
ATOM      1  C   UNL     1       1.691   8.962  17.750  0.00  0.00    +0.000 C 
ATOM      2  N   UNL     1       1.392   8.911  19.159  0.00  0.00    +0.000 N 
ATOM      3  C   UNL     1       1.839   7.968  20.060  0.00  0.00    +0.000 A 
ATOM      4  N   UNL     1       1.354   8.191  21.265  0.00  0.00    +0.000 NA
ATOM      5  C   UNL     1       0.635   9.329  21.142  0.00  0.00    +0.000 A 
ATOM      6  C   UNL     1       0.647   9.819  19.871  0.00  0.00    +0.000 A 
ATOM      7  C   UNL     1       0.002  11.038  19.516  0.00  0.00    +0.000 A 
ATOM      8  O   UNL     1       0.041  11.508  18.383  0.00  0.00    +0.000 OA
ATOM      9  N   UNL     1      -0.659  11.645  20.603  0.00  0.00    +0.000 N 
ATOM     10  C   UNL     1      -0.761  11.100  21.902  0.00  0.00    +0.000 A 
ATOM     11  O   UNL     1      -1.462  11.631  22.768  0.00  0.00    +0.000 OA
ATOM     12  N   UNL     1      -0.028   9.949  22.165  0.00  0.00    +0.000 N 
ATOM     13  C   UNL     1       0.025   9.384  23.503  0.00  0.00    +0.000 C 
ENDROOT
BRANCH   3  14
ATOM     14  O   UNL     1       2.672   6.974  19.744  0.00  0.00    +0.000 OA
BRANCH  14  15
ATOM     15  C   UNL     1       2.155   5.718  19.492  0.00  0.00    +0.000 A 
ATOM     16  C   UNL     1       2.207   5.231  18.186  0.00  0.00    +0.000 A 
ATOM     17  C   UNL     1       1.724   3.950  17.902  0.00  0.00    +0.000 A 
ATOM     18  C   UNL     1       1.197   3.154  18.921  0.00  0.00    +0.000 A 
ATOM     19  C   UNL     1       1.152   3.636  20.227  0.00  0.00    +0.000 A 
ATOM     20  C   UNL     1       1.640   4.910  20.513  0.00  0.00    +0.000 A 
ENDBRANCH  14  15
ENDBRANCH   3  14
BRANCH   9  21
ATOM     21  C   UNL     1      -1.313  12.925  20.373  0.00  0.00    +0.000 C 
BRANCH  21  22
ATOM     22  C   UNL     1      -2.830  12.925  20.540  0.00  0.00    +0.000 A 
ATOM     23  C   UNL     1      -3.464  13.484  21.666  0.00  0.00    +0.000 A 
ATOM     24  C   UNL     1      -4.859  13.551  21.750  0.00  0.00    +0.000 A 
ATOM     25  C   UNL     1      -5.644  13.047  20.717  0.00  0.00    +0.000 A 
ATOM     26 CL   UNL     1      -7.356  13.186  20.797  0.00  0.00    +0.000 Cl
ATOM     27  C   UNL     1      -5.048  12.439  19.619  0.00  0.00    +0.000 A 
ATOM     28  C   UNL     1      -3.653  12.371  19.536  0.00  0.00    +0.000 A 
ATOM     29 CL   UNL     1      -2.983  11.579  18.151  0.00  0.00    +0.000 Cl
ENDBRANCH  21  22
ENDBRANCH   9  21
TORSDOF 4
ENDMDL
MODEL 4
REMARK VINA RESULT:      -7.5      2.019      3.536
REMARK  Name = 
REMARK  6 active torsions:
REMARK  status: ('A' for Active; 'I' for Inactive)
REMARK    1  A    between atoms: C_1  and  N_2
REMARK    2  A    between atoms: C_3  and  O_4
REMARK    3  A    between atoms: O_4  and  C_5
REMARK    4  A    between atoms: N_16  and  C_17
REMARK    5  A    between atoms: C_17  and  C_18
REMARK    6  A    between atoms: N_28  and  C_29
REMARK                            x       y       z     vdW  Elec       q    Type
REMARK                         _______ _______ _______ _____ _____    ______ ____
ROOT
ATOM      1  C   UNL     1       1.820   8.760  17.758  0.00  0.00    +0.000 C 
ATOM      2  N   UNL     1       1.475   8.777  19.157  0.00  0.00    +0.000 N 
ATOM      3  C   UNL     1       1.854   7.854  20.108  0.00  0.00    +0.000 A 
ATOM      4  N   UNL     1       1.340   8.144  21.287  0.00  0.00    +0.000 NA
ATOM      5  C   UNL     1       0.672   9.304  21.096  0.00  0.00    +0.000 A 
ATOM      6  C   UNL     1       0.744   9.741  19.808  0.00  0.00    +0.000 A 
ATOM      7  C   UNL     1       0.161  10.969  19.385  0.00  0.00    +0.000 A 
ATOM      8  O   UNL     1       0.255  11.392  18.236  0.00  0.00    +0.000 OA
ATOM      9  N   UNL     1      -0.509  11.645  20.424  0.00  0.00    +0.000 N 
ATOM     10  C   UNL     1      -0.675  11.157  21.740  0.00  0.00    +0.000 A 
ATOM     11  O   UNL     1      -1.380  11.749  22.560  0.00  0.00    +0.000 OA
ATOM     12  N   UNL     1       0.003   9.990  22.072  0.00  0.00    +0.000 N 
ATOM     13  C   UNL     1      -0.010   9.477  23.432  0.00  0.00    +0.000 C 
ENDROOT
BRANCH   3  14
ATOM     14  O   UNL     1       2.656   6.816  19.859  0.00  0.00    +0.000 OA
BRANCH  14  15
ATOM     15  C   UNL     1       2.095   5.585  19.578  0.00  0.00    +0.000 A 
ATOM     16  C   UNL     1       2.132   5.126  18.262  0.00  0.00    +0.000 A 
ATOM     17  C   UNL     1       1.605   3.870  17.948  0.00  0.00    +0.000 A 
ATOM     18  C   UNL     1       1.047   3.070  18.948  0.00  0.00    +0.000 A 
ATOM     19  C   UNL     1       1.016   3.525  20.265  0.00  0.00    +0.000 A 
ATOM     20  C   UNL     1       1.549   4.774  20.580  0.00  0.00    +0.000 A 
ENDBRANCH  14  15
ENDBRANCH   3  14
BRANCH   9  21
ATOM     21  C   UNL     1      -1.103  12.939  20.123  0.00  0.00    +0.000 C 
BRANCH  21  22
ATOM     22  C   UNL     1      -0.218  14.149  20.411  0.00  0.00    +0.000 A 
ATOM     23  C   UNL     1       1.035  14.330  19.796  0.00  0.00    +0.000 A 
ATOM     24  C   UNL     1       1.784  15.492  20.009  0.00  0.00    +0.000 A 
ATOM     25  C   UNL     1       1.299  16.487  20.853  0.00  0.00    +0.000 A 
ATOM     26 CL   UNL     1       2.194  17.941  21.065  0.00  0.00    +0.000 Cl
ATOM     27  C   UNL     1       0.092  16.313  21.519  0.00  0.00    +0.000 A 
ATOM     28  C   UNL     1      -0.655  15.149  21.306  0.00  0.00    +0.000 A 
ATOM     29 CL   UNL     1      -2.137  14.991  22.187  0.00  0.00    +0.000 Cl
ENDBRANCH  21  22
ENDBRANCH   9  21
TORSDOF 4
ENDMDL
MODEL 5
REMARK VINA RESULT:      -7.4      0.786      1.163
REMARK  Name = 
REMARK  6 active torsions:
REMARK  status: ('A' for Active; 'I' for Inactive)
REMARK    1  A    between atoms: C_1  and  N_2
REMARK    2  A    between atoms: C_3  and  O_4
REMARK    3  A    between atoms: O_4  and  C_5
REMARK    4  A    between atoms: N_16  and  C_17
REMARK    5  A    between atoms: C_17  and  C_18
REMARK    6  A    between atoms: N_28  and  C_29
REMARK                            x       y       z     vdW  Elec       q    Type
REMARK                         _______ _______ _______ _____ _____    ______ ____
ROOT
ATOM      1  C   UNL     1       1.939   8.050  17.840  0.00  0.00    +0.000 C 
ATOM      2  N   UNL     1       1.576   8.244  19.221  0.00  0.00    +0.000 N 
ATOM      3  C   UNL     1       1.991   7.485  20.295  0.00  0.00    +0.000 A 
ATOM      4  N   UNL     1       1.449   7.910  21.418  0.00  0.00    +0.000 NA
ATOM      5  C   UNL     1       0.723   8.994  21.063  0.00  0.00    +0.000 A 
ATOM      6  C   UNL     1       0.788   9.249  19.726  0.00  0.00    +0.000 A 
ATOM      7  C   UNL     1       0.147  10.373  19.132  0.00  0.00    +0.000 A 
ATOM      8  O   UNL     1       0.233  10.635  17.935  0.00  0.00    +0.000 OA
ATOM      9  N   UNL     1      -0.571  11.151  20.062  0.00  0.00    +0.000 N 
ATOM     10  C   UNL     1      -0.727  10.844  21.432  0.00  0.00    +0.000 A 
ATOM     11  O   UNL     1      -1.473  11.507  22.158  0.00  0.00    +0.000 OA
ATOM     12  N   UNL     1       0.006   9.773  21.929  0.00  0.00    +0.000 N 
ATOM     13  C   UNL     1       0.004   9.456  23.347  0.00  0.00    +0.000 C 
ENDROOT
BRANCH   3  14
ATOM     14  O   UNL     1       2.850   6.468  20.198  0.00  0.00    +0.000 OA
BRANCH  14  15
ATOM     15  C   UNL     1       2.368   5.209  19.894  0.00  0.00    +0.000 A 
ATOM     16  C   UNL     1       3.057   4.447  18.950  0.00  0.00    +0.000 A 
ATOM     17  C   UNL     1       2.618   3.156  18.644  0.00  0.00    +0.000 A 
ATOM     18  C   UNL     1       1.496   2.623  19.284  0.00  0.00    +0.000 A 
ATOM     19  C   UNL     1       0.812   3.380  20.233  0.00  0.00    +0.000 A 
ATOM     20  C   UNL     1       1.254   4.665  20.544  0.00  0.00    +0.000 A 
ENDBRANCH  14  15
ENDBRANCH   3  14
BRANCH   9  21
ATOM     21  C   UNL     1      -1.228  12.356  19.579  0.00  0.00    +0.000 C 
BRANCH  21  22
ATOM     22  C   UNL     1      -2.673  12.175  19.118  0.00  0.00    +0.000 A 
ATOM     23  C   UNL     1      -3.018  11.366  18.020  0.00  0.00    +0.000 A 
ATOM     24  C   UNL     1      -4.356  11.146  17.677  0.00  0.00    +0.000 A 
ATOM     25  C   UNL     1      -5.371  11.744  18.417  0.00  0.00    +0.000 A 
ATOM     26 CL   UNL     1      -7.016  11.423  18.030  0.00  0.00    +0.000 Cl
ATOM     27  C   UNL     1      -5.061  12.594  19.472  0.00  0.00    +0.000 A 
ATOM     28  C   UNL     1      -3.722  12.814  19.813  0.00  0.00    +0.000 A 
ATOM     29 CL   UNL     1      -3.410  13.902  21.123  0.00  0.00    +0.000 Cl
ENDBRANCH  21  22
ENDBRANCH   9  21
TORSDOF 4
ENDMDL
MODEL 6
REMARK VINA RESULT:      -7.3      2.401      3.788
REMARK  Name = 
REMARK  6 active torsions:
REMARK  status: ('A' for Active; 'I' for Inactive)
REMARK    1  A    between atoms: C_1  and  N_2
REMARK    2  A    between atoms: C_3  and  O_4
REMARK    3  A    between atoms: O_4  and  C_5
REMARK    4  A    between atoms: N_16  and  C_17
REMARK    5  A    between atoms: C_17  and  C_18
REMARK    6  A    between atoms: N_28  and  C_29
REMARK                            x       y       z     vdW  Elec       q    Type
REMARK                         _______ _______ _______ _____ _____    ______ ____
ROOT
ATOM      1  C   UNL     1       1.971   8.941  17.832  0.00  0.00    +0.000 C 
ATOM      2  N   UNL     1       1.594   8.854  19.220  0.00  0.00    +0.000 N 
ATOM      3  C   UNL     1       1.936   7.854  20.105  0.00  0.00    +0.000 A 
ATOM      4  N   UNL     1       1.400   8.060  21.291  0.00  0.00    +0.000 NA
ATOM      5  C   UNL     1       0.753   9.242  21.177  0.00  0.00    +0.000 A 
ATOM      6  C   UNL     1       0.862   9.777  19.928  0.00  0.00    +0.000 A 
ATOM      7  C   UNL     1       0.307  11.044  19.589  0.00  0.00    +0.000 A 
ATOM      8  O   UNL     1       0.434  11.553  18.479  0.00  0.00    +0.000 OA
ATOM      9  N   UNL     1      -0.378  11.647  20.663  0.00  0.00    +0.000 N 
ATOM     10  C   UNL     1      -0.581  11.062  21.932  0.00  0.00    +0.000 A 
ATOM     11  O   UNL     1      -1.298  11.599  22.780  0.00  0.00    +0.000 OA
ATOM     12  N   UNL     1       0.071   9.861  22.187  0.00  0.00    +0.000 N 
ATOM     13  C   UNL     1       0.019   9.244  23.502  0.00  0.00    +0.000 C 
ENDROOT
BRANCH   3  14
ATOM     14  O   UNL     1       2.729   6.826  19.794  0.00  0.00    +0.000 OA
BRANCH  14  15
ATOM     15  C   UNL     1       2.160   5.594  19.534  0.00  0.00    +0.000 A 
ATOM     16  C   UNL     1       1.660   4.857  20.608  0.00  0.00    +0.000 A 
ATOM     17  C   UNL     1       1.047   3.621  20.377  0.00  0.00    +0.000 A 
ATOM     18  C   UNL     1       0.928   3.126  19.076  0.00  0.00    +0.000 A 
ATOM     19  C   UNL     1       1.420   3.865  18.003  0.00  0.00    +0.000 A 
ATOM     20  C   UNL     1       2.025   5.101  18.231  0.00  0.00    +0.000 A 
ENDBRANCH  14  15
ENDBRANCH   3  14
BRANCH   9  21
ATOM     21  C   UNL     1      -0.946  12.971  20.450  0.00  0.00    +0.000 C 
BRANCH  21  22
ATOM     22  C   UNL     1      -0.002  14.140  20.720  0.00  0.00    +0.000 A 
ATOM     23  C   UNL     1       0.481  14.437  22.009  0.00  0.00    +0.000 A 
ATOM     24  C   UNL     1       1.415  15.458  22.213  0.00  0.00    +0.000 A 
ATOM     25  C   UNL     1       1.872  16.208  21.134  0.00  0.00    +0.000 A 
ATOM     26 CL   UNL     1       3.066  17.422  21.380  0.00  0.00    +0.000 Cl
ATOM     27  C   UNL     1       1.372  15.976  19.858  0.00  0.00    +0.000 A 
ATOM     28  C   UNL     1       0.437  14.956  19.656  0.00  0.00    +0.000 A 
ATOM     29 CL   UNL     1      -0.158  14.740  18.045  0.00  0.00    +0.000 Cl
ENDBRANCH  21  22
ENDBRANCH   9  21
TORSDOF 4
ENDMDL
MODEL 7
REMARK VINA RESULT:      -7.1      3.128      4.227
REMARK  Name = 
REMARK  6 active torsions:
REMARK  status: ('A' for Active; 'I' for Inactive)
REMARK    1  A    between atoms: C_1  and  N_2
REMARK    2  A    between atoms: C_3  and  O_4
REMARK    3  A    between atoms: O_4  and  C_5
REMARK    4  A    between atoms: N_16  and  C_17
REMARK    5  A    between atoms: C_17  and  C_18
REMARK    6  A    between atoms: N_28  and  C_29
REMARK                            x       y       z     vdW  Elec       q    Type
REMARK                         _______ _______ _______ _____ _____    ______ ____
ROOT
ATOM      1  C   UNL     1       2.850   8.193  17.875  0.00  0.00    +0.000 C 
ATOM      2  N   UNL     1       2.109   8.262  19.109  0.00  0.00    +0.000 N 
ATOM      3  C   UNL     1       2.058   7.297  20.093  0.00  0.00    +0.000 A 
ATOM      4  N   UNL     1       1.260   7.660  21.077  0.00  0.00    +0.000 NA
ATOM      5  C   UNL     1       0.843   8.902  20.744  0.00  0.00    +0.000 A 
ATOM      6  C   UNL     1       1.355   9.322  19.553  0.00  0.00    +0.000 A 
ATOM      7  C   UNL     1       1.096  10.619  19.025  0.00  0.00    +0.000 A 
ATOM      8  O   UNL     1       1.585  11.021  17.973  0.00  0.00    +0.000 OA
ATOM      9  N   UNL     1       0.245  11.385  19.845  0.00  0.00    +0.000 N 
ATOM     10  C   UNL     1      -0.370  10.929  21.033  0.00  0.00    +0.000 A 
ATOM     11  O   UNL     1      -1.202  11.616  21.630  0.00  0.00    +0.000 OA
ATOM     12  N   UNL     1       0.012   9.678  21.504  0.00  0.00    +0.000 N 
ATOM     13  C   UNL     1      -0.475   9.176  22.777  0.00  0.00    +0.000 C 
ENDROOT
BRANCH   3  14
ATOM     14  O   UNL     1       2.749   6.156  20.051  0.00  0.00    +0.000 OA
BRANCH  14  15
ATOM     15  C   UNL     1       2.091   4.982  19.740  0.00  0.00    +0.000 A 
ATOM     16  C   UNL     1       2.113   4.542  18.417  0.00  0.00    +0.000 A 
ATOM     17  C   UNL     1       1.486   3.340  18.073  0.00  0.00    +0.000 A 
ATOM     18  C   UNL     1       0.844   2.576  19.050  0.00  0.00    +0.000 A 
ATOM     19  C   UNL     1       0.828   3.011  20.374  0.00  0.00    +0.000 A 
ATOM     20  C   UNL     1       1.459   4.206  20.719  0.00  0.00    +0.000 A 
ENDBRANCH  14  15
ENDBRANCH   3  14
BRANCH   9  21
ATOM     21  C   UNL     1      -0.051  12.749  19.433  0.00  0.00    +0.000 C 
BRANCH  21  22
ATOM     22  C   UNL     1       0.771  13.835  20.124  0.00  0.00    +0.000 A 
ATOM     23  C   UNL     1       0.454  14.320  21.406  0.00  0.00    +0.000 A 
ATOM     24  C   UNL     1       1.276  15.249  22.051  0.00  0.00    +0.000 A 
ATOM     25  C   UNL     1       2.423  15.720  21.419  0.00  0.00    +0.000 A 
ATOM     26 CL   UNL     1       3.464  16.816  22.239  0.00  0.00    +0.000 Cl
ATOM     27  C   UNL     1       2.732  15.303  20.130  0.00  0.00    +0.000 A 
ATOM     28  C   UNL     1       1.908  14.375  19.485  0.00  0.00    +0.000 A 
ATOM     29 CL   UNL     1       2.343  13.919  17.873  0.00  0.00    +0.000 Cl
ENDBRANCH  21  22
ENDBRANCH   9  21
TORSDOF 4
ENDMDL
MODEL 8
REMARK VINA RESULT:      -7.1      2.479      3.778
REMARK  Name = 
REMARK  6 active torsions:
REMARK  status: ('A' for Active; 'I' for Inactive)
REMARK    1  A    between atoms: C_1  and  N_2
REMARK    2  A    between atoms: C_3  and  O_4
REMARK    3  A    between atoms: O_4  and  C_5
REMARK    4  A    between atoms: N_16  and  C_17
REMARK    5  A    between atoms: C_17  and  C_18
REMARK    6  A    between atoms: N_28  and  C_29
REMARK                            x       y       z     vdW  Elec       q    Type
REMARK                         _______ _______ _______ _____ _____    ______ ____
ROOT
ATOM      1  C   UNL     1       1.815   8.957  17.813  0.00  0.00    +0.000 C 
ATOM      2  N   UNL     1       1.465   8.900  19.210  0.00  0.00    +0.000 N 
ATOM      3  C   UNL     1       1.843   7.930  20.114  0.00  0.00    +0.000 A 
ATOM      4  N   UNL     1       1.325   8.156  21.304  0.00  0.00    +0.000 NA
ATOM      5  C   UNL     1       0.655   9.323  21.172  0.00  0.00    +0.000 A 
ATOM      6  C   UNL     1       0.730   9.827  19.909  0.00  0.00    +0.000 A 
ATOM      7  C   UNL     1       0.144  11.074  19.548  0.00  0.00    +0.000 A 
ATOM      8  O   UNL     1       0.241  11.557  18.423  0.00  0.00    +0.000 OA
ATOM      9  N   UNL     1      -0.531  11.693  20.619  0.00  0.00    +0.000 N 
ATOM     10  C   UNL     1      -0.699  11.137  21.907  0.00  0.00    +0.000 A 
ATOM     11  O   UNL     1      -1.409  11.683  22.755  0.00  0.00    +0.000 OA
ATOM     12  N   UNL     1      -0.020   9.955  22.180  0.00  0.00    +0.000 N 
ATOM     13  C   UNL     1      -0.035   9.372  23.511  0.00  0.00    +0.000 C 
ENDROOT
BRANCH   3  14
ATOM     14  O   UNL     1       2.649   6.909  19.814  0.00  0.00    +0.000 OA
BRANCH  14  15
ATOM     15  C   UNL     1       2.095   5.671  19.549  0.00  0.00    +0.000 A 
ATOM     16  C   UNL     1       2.117   5.204  18.234  0.00  0.00    +0.000 A 
ATOM     17  C   UNL     1       1.596   3.941  17.937  0.00  0.00    +0.000 A 
ATOM     18  C   UNL     1       1.061   3.143  18.950  0.00  0.00    +0.000 A 
ATOM     19  C   UNL     1       1.046   3.605  20.265  0.00  0.00    +0.000 A 
ATOM     20  C   UNL     1       1.572   4.861  20.564  0.00  0.00    +0.000 A 
ENDBRANCH  14  15
ENDBRANCH   3  14
BRANCH   9  21
ATOM     21  C   UNL     1      -1.127  13.000  20.384  0.00  0.00    +0.000 C 
BRANCH  21  22
ATOM     22  C   UNL     1      -0.382  14.181  21.000  0.00  0.00    +0.000 A 
ATOM     23  C   UNL     1      -0.649  14.644  22.302  0.00  0.00    +0.000 A 
ATOM     24  C   UNL     1       0.111  15.670  22.874  0.00  0.00    +0.000 A 
ATOM     25  C   UNL     1       1.142  16.259  22.149  0.00  0.00    +0.000 A 
ATOM     26 CL   UNL     1       2.114  17.477  22.878  0.00  0.00    +0.000 Cl
ATOM     27  C   UNL     1       1.394  15.862  20.842  0.00  0.00    +0.000 A 
ATOM     28  C   UNL     1       0.632  14.837  20.270  0.00  0.00    +0.000 A 
ATOM     29 CL   UNL     1       0.987  14.411  18.630  0.00  0.00    +0.000 Cl
ENDBRANCH  21  22
ENDBRANCH   9  21
TORSDOF 4
ENDMDL
MODEL 9
REMARK VINA RESULT:      -7.0      3.545      7.835
REMARK  Name = 
REMARK  6 active torsions:
REMARK  status: ('A' for Active; 'I' for Inactive)
REMARK    1  A    between atoms: C_1  and  N_2
REMARK    2  A    between atoms: C_3  and  O_4
REMARK    3  A    between atoms: O_4  and  C_5
REMARK    4  A    between atoms: N_16  and  C_17
REMARK    5  A    between atoms: C_17  and  C_18
REMARK    6  A    between atoms: N_28  and  C_29
REMARK                            x       y       z     vdW  Elec       q    Type
REMARK                         _______ _______ _______ _____ _____    ______ ____
ROOT
ATOM      1  C   UNL     1      -3.507  11.059  16.908  0.00  0.00    +0.000 C 
ATOM      2  N   UNL     1      -3.085  11.558  18.192  0.00  0.00    +0.000 N 
ATOM      3  C   UNL     1      -3.853  12.262  19.095  0.00  0.00    +0.000 A 
ATOM      4  N   UNL     1      -3.153  12.600  20.159  0.00  0.00    +0.000 NA
ATOM      5  C   UNL     1      -1.934  12.050  19.958  0.00  0.00    +0.000 A 
ATOM      6  C   UNL     1      -1.851  11.384  18.773  0.00  0.00    +0.000 A 
ATOM      7  C   UNL     1      -0.680  10.680  18.373  0.00  0.00    +0.000 A 
ATOM      8  O   UNL     1      -0.609  10.042  17.325  0.00  0.00    +0.000 OA
ATOM      9  N   UNL     1       0.367  10.780  19.310  0.00  0.00    +0.000 N 
ATOM     10  C   UNL     1       0.329  11.547  20.496  0.00  0.00    +0.000 A 
ATOM     11  O   UNL     1       1.329  11.684  21.204  0.00  0.00    +0.000 OA
ATOM     12  N   UNL     1      -0.887  12.128  20.835  0.00  0.00    +0.000 N 
ATOM     13  C   UNL     1      -1.056  12.834  22.094  0.00  0.00    +0.000 C 
ENDROOT
BRANCH   3  14
ATOM     14  O   UNL     1      -5.146  12.540  18.912  0.00  0.00    +0.000 OA
BRANCH  14  15
ATOM     15  C   UNL     1      -6.078  12.002  19.778  0.00  0.00    +0.000 A 
ATOM     16  C   UNL     1      -6.658  10.777  19.448  0.00  0.00    +0.000 A 
ATOM     17  C   UNL     1      -7.579  10.187  20.319  0.00  0.00    +0.000 A 
ATOM     18  C   UNL     1      -7.917  10.816  21.520  0.00  0.00    +0.000 A 
ATOM     19  C   UNL     1      -7.332  12.035  21.854  0.00  0.00    +0.000 A 
ATOM     20  C   UNL     1      -6.407  12.621  20.990  0.00  0.00    +0.000 A 
ENDBRANCH  14  15
ENDBRANCH   3  14
BRANCH   9  21
ATOM     21  C   UNL     1       1.600  10.058  19.033  0.00  0.00    +0.000 C 
BRANCH  21  22
ATOM     22  C   UNL     1       1.668   8.638  19.590  0.00  0.00    +0.000 A 
ATOM     23  C   UNL     1       1.030   8.267  20.789  0.00  0.00    +0.000 A 
ATOM     24  C   UNL     1       1.033   6.939  21.228  0.00  0.00    +0.000 A 
ATOM     25  C   UNL     1       1.685   5.961  20.483  0.00  0.00    +0.000 A 
ATOM     26 CL   UNL     1       1.635   4.320  20.994  0.00  0.00    +0.000 Cl
ATOM     27  C   UNL     1       2.371   6.306  19.325  0.00  0.00    +0.000 A 
ATOM     28  C   UNL     1       2.369   7.635  18.887  0.00  0.00    +0.000 A 
ATOM     29 CL   UNL     1       3.264   7.993  17.450  0.00  0.00    +0.000 Cl
ENDBRANCH  21  22
ENDBRANCH   9  21
TORSDOF 4
ENDMDL
