MODEL 1
REMARK VINA RESULT:      -6.1      0.000      0.000
REMARK  Name = 
REMARK  11 active torsions:
REMARK  status: ('A' for Active; 'I' for Inactive)
REMARK    1  A    between atoms: C_1  and  C_2
REMARK    2  A    between atoms: C_2  and  C_3
REMARK    3  A    between atoms: C_2  and  C_4
REMARK    4  A    between atoms: C_2  and  C_5
REMARK    5  A    between atoms: C_5  and  N_6
REMARK    6  A    between atoms: N_9  and  C_10
REMARK    7  A    between atoms: C_10  and  C_11
REMARK    8  A    between atoms: C_11  and  C_12
REMARK    9  A    between atoms: C_11  and  C_13
REMARK   10  A    between atoms: C_11  and  C_14
REMARK   11  A    between atoms: C_15  and  C_16
REMARK                            x       y       z     vdW  Elec       q    Type
REMARK                         _______ _______ _______ _____ _____    ______ ____
ROOT
ATOM      1  N   UNL     1       4.255   3.326  19.217  0.00  0.00    +0.000 NA
ATOM      2  C   UNL     1       3.856   2.764  17.921  0.00  0.00    +0.000 C 
ATOM      3  C   UNL     1       3.664   3.836  16.822  0.00  0.00    +0.000 C 
ATOM      4  N   UNL     1       4.888   4.605  16.453  0.00  0.00    +0.000 NA
ATOM      5  C   UNL     1       5.448   5.095  17.778  0.00  0.00    +0.000 C 
ATOM      6  C   UNL     1       5.538   4.052  18.945  0.00  0.00    +0.000 C 
ENDROOT
BRANCH   5   7
ATOM      7  C   UNL     1       6.629   6.073  17.783  0.00  0.00    +0.000 C 
ATOM      8  N   UNL     1       7.460   6.059  18.797  0.00  0.00    +0.000 NA
ATOM      9  C   UNL     1       8.271   7.293  18.655  0.00  0.00    +0.000 C 
ATOM     10  C   UNL     1       7.594   8.115  17.553  0.00  0.00    +0.000 C 
ATOM     11  N   UNL     1       6.784   7.109  16.894  0.00  0.00    +0.000 N 
ATOM     12  H   UNL     1       5.930   7.407  16.441  0.00  0.00    +0.000 HD
ENDBRANCH   5   7
BRANCH   1  13
ATOM     13  C   UNL     1       3.262   4.260  19.811  0.00  0.00    +0.000 C 
BRANCH  13  15
ATOM     14  C   UNL     1       2.133   2.962  21.687  0.00  0.00    +0.000 C 
ATOM     15  C   UNL     1       1.903   3.735  20.381  0.00  0.00    +0.000 C 
ATOM     16  C   UNL     1       1.097   2.857  19.408  0.00  0.00    +0.000 C 
ATOM     17  C   UNL     1       1.026   4.974  20.684  0.00  0.00    +0.000 C 
ENDBRANCH  13  15
ENDBRANCH   1  13
BRANCH   4  18
ATOM     18  C   UNL     1       5.786   3.804  15.587  0.00  0.00    +0.000 C 
BRANCH  18  19
ATOM     19  C   UNL     1       6.201   4.442  14.177  0.00  0.00    +0.000 C 
ATOM     20  C   UNL     1       5.937   3.443  13.036  0.00  0.00    +0.000 C 
ATOM     21  C   UNL     1       5.337   5.703  13.929  0.00  0.00    +0.000 C 
ATOM     22  C   UNL     1       7.669   4.918  14.060  0.00  0.00    +0.000 C 
ENDBRANCH  18  19
ENDBRANCH   4  18
TORSDOF 5
ENDMDL
MODEL 2
REMARK VINA RESULT:      -6.1      2.754      6.378
REMARK  Name = 
REMARK  11 active torsions:
REMARK  status: ('A' for Active; 'I' for Inactive)
REMARK    1  A    between atoms: C_1  and  C_2
REMARK    2  A    between atoms: C_2  and  C_3
REMARK    3  A    between atoms: C_2  and  C_4
REMARK    4  A    between atoms: C_2  and  C_5
REMARK    5  A    between atoms: C_5  and  N_6
REMARK    6  A    between atoms: N_9  and  C_10
REMARK    7  A    between atoms: C_10  and  C_11
REMARK    8  A    between atoms: C_11  and  C_12
REMARK    9  A    between atoms: C_11  and  C_13
REMARK   10  A    between atoms: C_11  and  C_14
REMARK   11  A    between atoms: C_15  and  C_16
REMARK                            x       y       z     vdW  Elec       q    Type
REMARK                         _______ _______ _______ _____ _____    ______ ____
ROOT
ATOM      1  N   UNL     1       4.466   6.548  17.284  0.00  0.00    +0.000 NA
ATOM      2  C   UNL     1       4.321   5.108  17.531  0.00  0.00    +0.000 C 
ATOM      3  C   UNL     1       4.148   4.759  19.029  0.00  0.00    +0.000 C 
ATOM      4  N   UNL     1       2.919   5.302  19.678  0.00  0.00    +0.000 NA
ATOM      5  C   UNL     1       2.922   6.781  19.329  0.00  0.00    +0.000 C 
ATOM      6  C   UNL     1       3.216   7.163  17.838  0.00  0.00    +0.000 C 
ENDROOT
BRANCH   5   7
ATOM      7  C   UNL     1       1.883   7.708  19.971  0.00  0.00    +0.000 C 
ATOM      8  N   UNL     1       1.477   8.762  19.305  0.00  0.00    +0.000 NA
ATOM      9  C   UNL     1       0.745   9.591  20.294  0.00  0.00    +0.000 C 
ATOM     10  C   UNL     1       1.024   8.957  21.662  0.00  0.00    +0.000 C 
ATOM     11  N   UNL     1       1.479   7.634  21.282  0.00  0.00    +0.000 N 
ATOM     12  H   UNL     1       2.127   7.158  21.897  0.00  0.00    +0.000 HD
ENDBRANCH   5   7
BRANCH   1  13
ATOM     13  C   UNL     1       5.659   7.163  17.925  0.00  0.00    +0.000 C 
BRANCH  13  15
ATOM     14  C   UNL     1       7.116   5.961  16.219  0.00  0.00    +0.000 C 
ATOM     15  C   UNL     1       7.102   6.668  17.581  0.00  0.00    +0.000 C 
ATOM     16  C   UNL     1       7.732   5.745  18.639  0.00  0.00    +0.000 C 
ATOM     17  C   UNL     1       8.007   7.922  17.499  0.00  0.00    +0.000 C 
ENDBRANCH  13  15
ENDBRANCH   1  13
BRANCH   4  18
ATOM     18  C   UNL     1       1.720   4.513  19.303  0.00  0.00    +0.000 C 
BRANCH  18  19
ATOM     19  C   UNL     1       1.676   2.982  19.772  0.00  0.00    +0.000 C 
ATOM     20  C   UNL     1       1.322   2.889  21.268  0.00  0.00    +0.000 C 
ATOM     21  C   UNL     1       0.579   2.247  18.965  0.00  0.00    +0.000 C 
ATOM     22  C   UNL     1       2.973   2.170  19.541  0.00  0.00    +0.000 C 
ENDBRANCH  18  19
ENDBRANCH   4  18
TORSDOF 5
ENDMDL
MODEL 3
REMARK VINA RESULT:      -5.9      0.731      1.241
REMARK  Name = 
REMARK  11 active torsions:
REMARK  status: ('A' for Active; 'I' for Inactive)
REMARK    1  A    between atoms: C_1  and  C_2
REMARK    2  A    between atoms: C_2  and  C_3
REMARK    3  A    between atoms: C_2  and  C_4
REMARK    4  A    between atoms: C_2  and  C_5
REMARK    5  A    between atoms: C_5  and  N_6
REMARK    6  A    between atoms: N_9  and  C_10
REMARK    7  A    between atoms: C_10  and  C_11
REMARK    8  A    between atoms: C_11  and  C_12
REMARK    9  A    between atoms: C_11  and  C_13
REMARK   10  A    between atoms: C_11  and  C_14
REMARK   11  A    between atoms: C_15  and  C_16
REMARK                            x       y       z     vdW  Elec       q    Type
REMARK                         _______ _______ _______ _____ _____    ______ ____
ROOT
ATOM      1  N   UNL     1       3.837   2.705  19.280  0.00  0.00    +0.000 NA
ATOM      2  C   UNL     1       3.376   2.469  17.906  0.00  0.00    +0.000 C 
ATOM      3  C   UNL     1       3.353   3.751  17.040  0.00  0.00    +0.000 C 
ATOM      4  N   UNL     1       4.679   4.393  16.807  0.00  0.00    +0.000 NA
ATOM      5  C   UNL     1       5.290   4.530  18.192  0.00  0.00    +0.000 C 
ATOM      6  C   UNL     1       5.215   3.277  19.131  0.00  0.00    +0.000 C 
ENDROOT
BRANCH   5   7
ATOM      7  C   UNL     1       6.599   5.307  18.366  0.00  0.00    +0.000 C 
ATOM      8  N   UNL     1       7.270   5.177  19.484  0.00  0.00    +0.000 NA
ATOM      9  C   UNL     1       8.280   6.263  19.464  0.00  0.00    +0.000 C 
ATOM     10  C   UNL     1       7.900   7.167  18.285  0.00  0.00    +0.000 C 
ATOM     11  N   UNL     1       7.037   6.293  17.514  0.00  0.00    +0.000 N 
ATOM     12  H   UNL     1       6.312   6.715  16.950  0.00  0.00    +0.000 HD
ENDBRANCH   5   7
BRANCH   1  13
ATOM     13  C   UNL     1       2.984   3.638  20.062  0.00  0.00    +0.000 C 
BRANCH  13  15
ATOM     14  C   UNL     1       1.377   2.600  21.741  0.00  0.00    +0.000 C 
ATOM     15  C   UNL     1       1.491   3.291  20.376  0.00  0.00    +0.000 C 
ATOM     16  C   UNL     1       0.796   2.426  19.309  0.00  0.00    +0.000 C 
ATOM     17  C   UNL     1       0.714   4.629  20.430  0.00  0.00    +0.000 C 
ENDBRANCH  13  15
ENDBRANCH   1  13
BRANCH   4  18
ATOM     18  C   UNL     1       5.461   3.656  15.785  0.00  0.00    +0.000 C 
BRANCH  18  19
ATOM     19  C   UNL     1       5.882   4.462  14.466  0.00  0.00    +0.000 C 
ATOM     20  C   UNL     1       5.226   5.855  14.455  0.00  0.00    +0.000 C 
ATOM     21  C   UNL     1       7.419   4.647  14.467  0.00  0.00    +0.000 C 
ATOM     22  C   UNL     1       5.550   3.772  13.121  0.00  0.00    +0.000 C 
ENDBRANCH  18  19
ENDBRANCH   4  18
TORSDOF 5
ENDMDL
MODEL 4
REMARK VINA RESULT:      -5.8      2.725      6.381
REMARK  Name = 
REMARK  11 active torsions:
REMARK  status: ('A' for Active; 'I' for Inactive)
REMARK    1  A    between atoms: C_1  and  C_2
REMARK    2  A    between atoms: C_2  and  C_3
REMARK    3  A    between atoms: C_2  and  C_4
REMARK    4  A    between atoms: C_2  and  C_5
REMARK    5  A    between atoms: C_5  and  N_6
REMARK    6  A    between atoms: N_9  and  C_10
REMARK    7  A    between atoms: C_10  and  C_11
REMARK    8  A    between atoms: C_11  and  C_12
REMARK    9  A    between atoms: C_11  and  C_13
REMARK   10  A    between atoms: C_11  and  C_14
REMARK   11  A    between atoms: C_15  and  C_16
REMARK                            x       y       z     vdW  Elec       q    Type
REMARK                         _______ _______ _______ _____ _____    ______ ____
ROOT
ATOM      1  N   UNL     1       4.595   6.708  17.231  0.00  0.00    +0.000 NA
ATOM      2  C   UNL     1       4.457   5.252  17.358  0.00  0.00    +0.000 C 
ATOM      3  C   UNL     1       4.237   4.784  18.816  0.00  0.00    +0.000 C 
ATOM      4  N   UNL     1       2.981   5.263  19.463  0.00  0.00    +0.000 NA
ATOM      5  C   UNL     1       2.980   6.765  19.233  0.00  0.00    +0.000 C 
ATOM      6  C   UNL     1       3.320   7.267  17.788  0.00  0.00    +0.000 C 
ENDROOT
BRANCH   5   7
ATOM      7  C   UNL     1       1.911   7.631  19.910  0.00  0.00    +0.000 C 
ATOM      8  N   UNL     1       1.492   8.713  19.301  0.00  0.00    +0.000 NA
ATOM      9  C   UNL     1       0.725   9.466  20.323  0.00  0.00    +0.000 C 
ATOM     10  C   UNL     1       0.996   8.758  21.656  0.00  0.00    +0.000 C 
ATOM     11  N   UNL     1       1.487   7.470  21.207  0.00  0.00    +0.000 N 
ATOM     12  H   UNL     1       2.135   6.972  21.804  0.00  0.00    +0.000 HD
ENDBRANCH   5   7
BRANCH   1  13
ATOM     13  C   UNL     1       5.759   7.279  17.960  0.00  0.00    +0.000 C 
BRANCH  13  15
ATOM     14  C   UNL     1       8.110   8.126  17.479  0.00  0.00    +0.000 C 
ATOM     15  C   UNL     1       7.222   6.878  17.579  0.00  0.00    +0.000 C 
ATOM     16  C   UNL     1       7.346   6.062  16.280  0.00  0.00    +0.000 C 
ATOM     17  C   UNL     1       7.758   5.976  18.718  0.00  0.00    +0.000 C 
ENDBRANCH  13  15
ENDBRANCH   1  13
BRANCH   4  18
ATOM     18  C   UNL     1       1.804   4.498  18.985  0.00  0.00    +0.000 C 
BRANCH  18  19
ATOM     19  C   UNL     1       1.613   3.015  19.561  0.00  0.00    +0.000 C 
ATOM     20  C   UNL     1       2.914   2.205  19.403  0.00  0.00    +0.000 C 
ATOM     21  C   UNL     1       1.280   3.109  21.071  0.00  0.00    +0.000 C 
ATOM     22  C   UNL     1       0.463   2.192  18.934  0.00  0.00    +0.000 C 
ENDBRANCH  18  19
ENDBRANCH   4  18
TORSDOF 5
ENDMDL
MODEL 5
REMARK VINA RESULT:      -5.8      0.179      1.300
REMARK  Name = 
REMARK  11 active torsions:
REMARK  status: ('A' for Active; 'I' for Inactive)
REMARK    1  A    between atoms: C_1  and  C_2
REMARK    2  A    between atoms: C_2  and  C_3
REMARK    3  A    between atoms: C_2  and  C_4
REMARK    4  A    between atoms: C_2  and  C_5
REMARK    5  A    between atoms: C_5  and  N_6
REMARK    6  A    between atoms: N_9  and  C_10
REMARK    7  A    between atoms: C_10  and  C_11
REMARK    8  A    between atoms: C_11  and  C_12
REMARK    9  A    between atoms: C_11  and  C_13
REMARK   10  A    between atoms: C_11  and  C_14
REMARK   11  A    between atoms: C_15  and  C_16
REMARK                            x       y       z     vdW  Elec       q    Type
REMARK                         _______ _______ _______ _____ _____    ______ ____
ROOT
ATOM      1  N   UNL     1       4.332   3.210  19.188  0.00  0.00    +0.000 NA
ATOM      2  C   UNL     1       3.945   2.656  17.884  0.00  0.00    +0.000 C 
ATOM      3  C   UNL     1       3.732   3.738  16.799  0.00  0.00    +0.000 C 
ATOM      4  N   UNL     1       4.940   4.536  16.441  0.00  0.00    +0.000 NA
ATOM      5  C   UNL     1       5.490   5.020  17.773  0.00  0.00    +0.000 C 
ATOM      6  C   UNL     1       5.600   3.964  18.926  0.00  0.00    +0.000 C 
ENDROOT
BRANCH   5   7
ATOM      7  C   UNL     1       6.650   6.021  17.790  0.00  0.00    +0.000 C 
ATOM      8  N   UNL     1       7.447   6.050  18.831  0.00  0.00    +0.000 NA
ATOM      9  C   UNL     1       8.239   7.296  18.684  0.00  0.00    +0.000 C 
ATOM     10  C   UNL     1       7.583   8.076  17.539  0.00  0.00    +0.000 C 
ATOM     11  N   UNL     1       6.815   7.038  16.880  0.00  0.00    +0.000 N 
ATOM     12  H   UNL     1       5.971   7.307  16.392  0.00  0.00    +0.000 HD
ENDBRANCH   5   7
BRANCH   1  13
ATOM     13  C   UNL     1       3.320   4.116  19.793  0.00  0.00    +0.000 C 
BRANCH  13  15
ATOM     14  C   UNL     1       1.428   2.452  19.430  0.00  0.00    +0.000 C 
ATOM     15  C   UNL     1       1.968   3.557  20.348  0.00  0.00    +0.000 C 
ATOM     16  C   UNL     1       0.875   4.619  20.561  0.00  0.00    +0.000 C 
ATOM     17  C   UNL     1       2.264   2.946  21.739  0.00  0.00    +0.000 C 
ENDBRANCH  13  15
ENDBRANCH   1  13
BRANCH   4  18
ATOM     18  C   UNL     1       5.855   3.764  15.565  0.00  0.00    +0.000 C 
BRANCH  18  19
ATOM     19  C   UNL     1       6.183   4.385  14.125  0.00  0.00    +0.000 C 
ATOM     20  C   UNL     1       5.296   5.614  13.854  0.00  0.00    +0.000 C 
ATOM     21  C   UNL     1       7.663   4.840  14.106  0.00  0.00    +0.000 C 
ATOM     22  C   UNL     1       6.032   3.419  12.925  0.00  0.00    +0.000 C 
ENDBRANCH  18  19
ENDBRANCH   4  18
TORSDOF 5
ENDMDL
MODEL 6
REMARK VINA RESULT:      -5.7      0.165      1.291
REMARK  Name = 
REMARK  11 active torsions:
REMARK  status: ('A' for Active; 'I' for Inactive)
REMARK    1  A    between atoms: C_1  and  C_2
REMARK    2  A    between atoms: C_2  and  C_3
REMARK    3  A    between atoms: C_2  and  C_4
REMARK    4  A    between atoms: C_2  and  C_5
REMARK    5  A    between atoms: C_5  and  N_6
REMARK    6  A    between atoms: N_9  and  C_10
REMARK    7  A    between atoms: C_10  and  C_11
REMARK    8  A    between atoms: C_11  and  C_12
REMARK    9  A    between atoms: C_11  and  C_13
REMARK   10  A    between atoms: C_11  and  C_14
REMARK   11  A    between atoms: C_15  and  C_16
REMARK                            x       y       z     vdW  Elec       q    Type
REMARK                         _______ _______ _______ _____ _____    ______ ____
ROOT
ATOM      1  N   UNL     1       4.259   3.418  19.134  0.00  0.00    +0.000 NA
ATOM      2  C   UNL     1       3.899   2.835  17.835  0.00  0.00    +0.000 C 
ATOM      3  C   UNL     1       3.744   3.891  16.714  0.00  0.00    +0.000 C 
ATOM      4  N   UNL     1       4.979   4.652  16.372  0.00  0.00    +0.000 NA
ATOM      5  C   UNL     1       5.499   5.162  17.706  0.00  0.00    +0.000 C 
ATOM      6  C   UNL     1       5.551   4.137  18.891  0.00  0.00    +0.000 C 
ENDROOT
BRANCH   5   7
ATOM      7  C   UNL     1       6.681   6.138  17.732  0.00  0.00    +0.000 C 
ATOM      8  N   UNL     1       7.459   6.164  18.786  0.00  0.00    +0.000 NA
ATOM      9  C   UNL     1       8.280   7.390  18.637  0.00  0.00    +0.000 C 
ATOM     10  C   UNL     1       7.663   8.169  17.470  0.00  0.00    +0.000 C 
ATOM     11  N   UNL     1       6.884   7.139  16.811  0.00  0.00    +0.000 N 
ATOM     12  H   UNL     1       6.055   7.418  16.304  0.00  0.00    +0.000 HD
ENDBRANCH   5   7
BRANCH   1  13
ATOM     13  C   UNL     1       3.250   4.362  19.682  0.00  0.00    +0.000 C 
BRANCH  13  15
ATOM     14  C   UNL     1       1.159   5.009  20.981  0.00  0.00    +0.000 C 
ATOM     15  C   UNL     1       1.967   3.837  20.407  0.00  0.00    +0.000 C 
ATOM     16  C   UNL     1       2.235   2.811  21.523  0.00  0.00    +0.000 C 
ATOM     17  C   UNL     1       1.106   3.113  19.344  0.00  0.00    +0.000 C 
ENDBRANCH  13  15
ENDBRANCH   1  13
BRANCH   4  18
ATOM     18  C   UNL     1       5.902   3.837  15.546  0.00  0.00    +0.000 C 
BRANCH  18  19
ATOM     19  C   UNL     1       6.261   4.392  14.086  0.00  0.00    +0.000 C 
ATOM     20  C   UNL     1       5.384   5.612  13.745  0.00  0.00    +0.000 C 
ATOM     21  C   UNL     1       7.743   4.841  14.077  0.00  0.00    +0.000 C 
ATOM     22  C   UNL     1       6.130   3.375  12.928  0.00  0.00    +0.000 C 
ENDBRANCH  18  19
ENDBRANCH   4  18
TORSDOF 5
ENDMDL
MODEL 7
REMARK VINA RESULT:      -5.7      0.594      1.388
REMARK  Name = 
REMARK  11 active torsions:
REMARK  status: ('A' for Active; 'I' for Inactive)
REMARK    1  A    between atoms: C_1  and  C_2
REMARK    2  A    between atoms: C_2  and  C_3
REMARK    3  A    between atoms: C_2  and  C_4
REMARK    4  A    between atoms: C_2  and  C_5
REMARK    5  A    between atoms: C_5  and  N_6
REMARK    6  A    between atoms: N_9  and  C_10
REMARK    7  A    between atoms: C_10  and  C_11
REMARK    8  A    between atoms: C_11  and  C_12
REMARK    9  A    between atoms: C_11  and  C_13
REMARK   10  A    between atoms: C_11  and  C_14
REMARK   11  A    between atoms: C_15  and  C_16
REMARK                            x       y       z     vdW  Elec       q    Type
REMARK                         _______ _______ _______ _____ _____    ______ ____
ROOT
ATOM      1  N   UNL     1       4.046   2.951  19.465  0.00  0.00    +0.000 NA
ATOM      2  C   UNL     1       3.738   2.437  18.124  0.00  0.00    +0.000 C 
ATOM      3  C   UNL     1       3.469   3.554  17.088  0.00  0.00    +0.000 C 
ATOM      4  N   UNL     1       4.619   4.461  16.807  0.00  0.00    +0.000 NA
ATOM      5  C   UNL     1       5.093   4.917  18.177  0.00  0.00    +0.000 C 
ATOM      6  C   UNL     1       5.257   3.815  19.279  0.00  0.00    +0.000 C 
ENDROOT
BRANCH   5   7
ATOM      7  C   UNL     1       6.170   6.004  18.279  0.00  0.00    +0.000 C 
ATOM      8  N   UNL     1       6.212   6.943  17.365  0.00  0.00    +0.000 NA
ATOM      9  C   UNL     1       7.513   7.625  17.565  0.00  0.00    +0.000 C 
ATOM     10  C   UNL     1       8.292   6.760  18.563  0.00  0.00    +0.000 C 
ATOM     11  N   UNL     1       7.230   5.968  19.153  0.00  0.00    +0.000 N 
ATOM     12  H   UNL     1       7.459   5.046  19.500  0.00  0.00    +0.000 HD
ENDBRANCH   5   7
BRANCH   1  13
ATOM     13  C   UNL     1       2.950   3.743  20.083  0.00  0.00    +0.000 C 
BRANCH  13  15
ATOM     14  C   UNL     1       1.541   2.454  21.767  0.00  0.00    +0.000 C 
ATOM     15  C   UNL     1       1.554   3.097  20.373  0.00  0.00    +0.000 C 
ATOM     16  C   UNL     1       1.100   2.059  19.331  0.00  0.00    +0.000 C 
ATOM     17  C   UNL     1       0.508   4.238  20.342  0.00  0.00    +0.000 C 
ENDBRANCH  13  15
ENDBRANCH   1  13
BRANCH   4  18
ATOM     18  C   UNL     1       5.614   3.809  15.921  0.00  0.00    +0.000 C 
BRANCH  18  19
ATOM     19  C   UNL     1       6.047   4.604  14.599  0.00  0.00    +0.000 C 
ATOM     20  C   UNL     1       7.545   4.956  14.650  0.00  0.00    +0.000 C 
ATOM     21  C   UNL     1       5.803   3.694  13.371  0.00  0.00    +0.000 C 
ATOM     22  C   UNL     1       5.264   5.907  14.310  0.00  0.00    +0.000 C 
ENDBRANCH  18  19
ENDBRANCH   4  18
TORSDOF 5
ENDMDL
MODEL 8
REMARK VINA RESULT:      -5.7      2.722      6.400
REMARK  Name = 
REMARK  11 active torsions:
REMARK  status: ('A' for Active; 'I' for Inactive)
REMARK    1  A    between atoms: C_1  and  C_2
REMARK    2  A    between atoms: C_2  and  C_3
REMARK    3  A    between atoms: C_2  and  C_4
REMARK    4  A    between atoms: C_2  and  C_5
REMARK    5  A    between atoms: C_5  and  N_6
REMARK    6  A    between atoms: N_9  and  C_10
REMARK    7  A    between atoms: C_10  and  C_11
REMARK    8  A    between atoms: C_11  and  C_12
REMARK    9  A    between atoms: C_11  and  C_13
REMARK   10  A    between atoms: C_11  and  C_14
REMARK   11  A    between atoms: C_15  and  C_16
REMARK                            x       y       z     vdW  Elec       q    Type
REMARK                         _______ _______ _______ _____ _____    ______ ____
ROOT
ATOM      1  N   UNL     1       4.615   6.740  17.250  0.00  0.00    +0.000 NA
ATOM      2  C   UNL     1       4.500   5.282  17.385  0.00  0.00    +0.000 C 
ATOM      3  C   UNL     1       4.273   4.819  18.843  0.00  0.00    +0.000 C 
ATOM      4  N   UNL     1       3.002   5.280  19.474  0.00  0.00    +0.000 NA
ATOM      5  C   UNL     1       2.977   6.781  19.235  0.00  0.00    +0.000 C 
ATOM      6  C   UNL     1       3.324   7.280  17.790  0.00  0.00    +0.000 C 
ENDROOT
BRANCH   5   7
ATOM      7  C   UNL     1       1.886   7.632  19.895  0.00  0.00    +0.000 C 
ATOM      8  N   UNL     1       1.484   8.725  19.294  0.00  0.00    +0.000 NA
ATOM      9  C   UNL     1       0.685   9.457  20.307  0.00  0.00    +0.000 C 
ATOM     10  C   UNL     1       0.916   8.724  21.633  0.00  0.00    +0.000 C 
ATOM     11  N   UNL     1       1.422   7.445  21.175  0.00  0.00    +0.000 N 
ATOM     12  H   UNL     1       2.053   6.937  21.782  0.00  0.00    +0.000 HD
ENDBRANCH   5   7
BRANCH   1  13
ATOM     13  C   UNL     1       5.760   7.336  17.988  0.00  0.00    +0.000 C 
BRANCH  13  15
ATOM     14  C   UNL     1       7.777   5.959  18.707  0.00  0.00    +0.000 C 
ATOM     15  C   UNL     1       7.233   6.930  17.650  0.00  0.00    +0.000 C 
ATOM     16  C   UNL     1       8.205   8.114  17.501  0.00  0.00    +0.000 C 
ATOM     17  C   UNL     1       7.205   6.209  16.280  0.00  0.00    +0.000 C 
ENDBRANCH  13  15
ENDBRANCH   1  13
BRANCH   4  18
ATOM     18  C   UNL     1       1.844   4.492  18.988  0.00  0.00    +0.000 C 
BRANCH  18  19
ATOM     19  C   UNL     1       1.619   3.046  19.641  0.00  0.00    +0.000 C 
ATOM     20  C   UNL     1       0.465   2.311  18.933  0.00  0.00    +0.000 C 
ATOM     21  C   UNL     1       2.911   2.213  19.459  0.00  0.00    +0.000 C 
ATOM     22  C   UNL     1       1.328   3.032  21.160  0.00  0.00    +0.000 C 
ENDBRANCH  18  19
ENDBRANCH   4  18
TORSDOF 5
ENDMDL
MODEL 9
REMARK VINA RESULT:      -5.6      0.499      1.102
REMARK  Name = 
REMARK  11 active torsions:
REMARK  status: ('A' for Active; 'I' for Inactive)
REMARK    1  A    between atoms: C_1  and  C_2
REMARK    2  A    between atoms: C_2  and  C_3
REMARK    3  A    between atoms: C_2  and  C_4
REMARK    4  A    between atoms: C_2  and  C_5
REMARK    5  A    between atoms: C_5  and  N_6
REMARK    6  A    between atoms: N_9  and  C_10
REMARK    7  A    between atoms: C_10  and  C_11
REMARK    8  A    between atoms: C_11  and  C_12
REMARK    9  A    between atoms: C_11  and  C_13
REMARK   10  A    between atoms: C_11  and  C_14
REMARK   11  A    between atoms: C_15  and  C_16
REMARK                            x       y       z     vdW  Elec       q    Type
REMARK                         _______ _______ _______ _____ _____    ______ ____
ROOT
ATOM      1  N   UNL     1       4.095   2.854  19.266  0.00  0.00    +0.000 NA
ATOM      2  C   UNL     1       3.633   2.462  17.928  0.00  0.00    +0.000 C 
ATOM      3  C   UNL     1       3.480   3.658  16.959  0.00  0.00    +0.000 C 
ATOM      4  N   UNL     1       4.738   4.392  16.640  0.00  0.00    +0.000 NA
ATOM      5  C   UNL     1       5.358   4.700  17.993  0.00  0.00    +0.000 C 
ATOM      6  C   UNL     1       5.413   3.531  19.035  0.00  0.00    +0.000 C 
ENDROOT
BRANCH   5   7
ATOM      7  C   UNL     1       6.595   5.602  18.068  0.00  0.00    +0.000 C 
ATOM      8  N   UNL     1       7.356   5.547  19.134  0.00  0.00    +0.000 NA
ATOM      9  C   UNL     1       8.251   6.726  19.038  0.00  0.00    +0.000 C 
ATOM     10  C   UNL     1       7.699   7.578  17.888  0.00  0.00    +0.000 C 
ATOM     11  N   UNL     1       6.872   6.618  17.184  0.00  0.00    +0.000 N 
ATOM     12  H   UNL     1       6.070   6.963  16.674  0.00  0.00    +0.000 HD
ENDBRANCH   5   7
BRANCH   1  13
ATOM     13  C   UNL     1       3.175   3.772  19.987  0.00  0.00    +0.000 C 
BRANCH  13  15
ATOM     14  C   UNL     1       0.758   4.449  20.409  0.00  0.00    +0.000 C 
ATOM     15  C   UNL     1       1.762   3.290  20.457  0.00  0.00    +0.000 C 
ATOM     16  C   UNL     1       1.736   2.652  21.857  0.00  0.00    +0.000 C 
ATOM     17  C   UNL     1       1.302   2.192  19.466  0.00  0.00    +0.000 C 
ENDBRANCH  13  15
ENDBRANCH   1  13
BRANCH   4  18
ATOM     18  C   UNL     1       5.566   3.642  15.664  0.00  0.00    +0.000 C 
BRANCH  18  19
ATOM     19  C   UNL     1       6.001   4.413  14.329  0.00  0.00    +0.000 C 
ATOM     20  C   UNL     1       5.566   3.619  13.083  0.00  0.00    +0.000 C 
ATOM     21  C   UNL     1       5.295   5.791  14.299  0.00  0.00    +0.000 C 
ATOM     22  C   UNL     1       7.511   4.721  14.192  0.00  0.00    +0.000 C 
ENDBRANCH  18  19
ENDBRANCH   4  18
TORSDOF 5
ENDMDL
