MODEL 1
REMARK VINA RESULT:      -7.6      0.000      0.000
REMARK  Name = 
REMARK  5 active torsions:
REMARK  status: ('A' for Active; 'I' for Inactive)
REMARK    1  A    between atoms: C_1  and  C_2
REMARK    2  A    between atoms: C_2  and  C_3
REMARK    3  A    between atoms: C_3  and  C_4
REMARK    4  A    between atoms: C_4  and  N_5
REMARK    5  A    between atoms: C_11  and  C_12
REMARK                            x       y       z     vdW  Elec       q    Type
REMARK                         _______ _______ _______ _____ _____    ______ ____
ROOT
ATOM      1  N   UNL     1       5.814   4.348  17.710  0.00  0.00    +0.000 N 
ATOM      2  C   UNL     1       4.454   4.069  17.777  0.00  0.00    +0.000 A 
ATOM      3  N   UNL     1       3.769   4.044  18.958  0.00  0.00    +0.000 N 
ATOM      4  C   UNL     1       2.650   3.122  19.117  0.00  0.00    +0.000 C 
ATOM      5  C   UNL     1       1.324   3.836  19.346  0.00  0.00    +0.000 C 
ATOM      6  C   UNL     1       1.404   5.016  20.307  0.00  0.00    +0.000 C 
ATOM      7  C   UNL     1       2.565   5.974  20.025  0.00  0.00    +0.000 C 
ATOM      8  C   UNL     1       3.860   5.168  19.902  0.00  0.00    +0.000 C 
ATOM      9  N   UNL     1       3.997   3.784  16.578  0.00  0.00    +0.000 NA
ATOM     10  C   UNL     1       5.010   4.096  15.700  0.00  0.00    +0.000 A 
ATOM     11  C   UNL     1       5.027   4.105  14.295  0.00  0.00    +0.000 A 
ATOM     12  C   UNL     1       6.194   4.499  13.627  0.00  0.00    +0.000 A 
ATOM     13  C   UNL     1       7.343   4.849  14.339  0.00  0.00    +0.000 A 
ATOM     14  C   UNL     1       7.352   4.820  15.735  0.00  0.00    +0.000 A 
ATOM     15  C   UNL     1       6.167   4.458  16.382  0.00  0.00    +0.000 A 
ENDROOT
BRANCH   7  16
ATOM     16  C   UNL     1       2.437   6.934  18.831  0.00  0.00    +0.000 C 
ATOM     17  O   UNL     1       2.868   6.634  17.712  0.00  0.00    +0.000 OA
ATOM     18  N   UNL     1       1.909   8.183  19.023  0.00  0.00    +0.000 N 
ATOM     19  C   UNL     1       1.569   8.891  20.238  0.00  0.00    +0.000 C 
ATOM     20  C   UNL     1       0.257   9.540  19.839  0.00  0.00    +0.000 C 
ATOM     21  C   UNL     1       0.556  10.021  18.417  0.00  0.00    +0.000 C 
ATOM     22  C   UNL     1       1.526   8.978  17.863  0.00  0.00    +0.000 C 
ENDBRANCH   7  16
BRANCH   1  23
ATOM     23  C   UNL     1       6.750   4.472  18.811  0.00  0.00    +0.000 C 
BRANCH  23  24
ATOM     24  C   UNL     1       6.919   5.897  19.332  0.00  0.00    +0.000 C 
BRANCH  24  26
ATOM     25  C   UNL     1       7.749   7.746  17.845  0.00  0.00    +0.000 C 
ATOM     26  C   UNL     1       8.144   6.555  18.699  0.00  0.00    +0.000 C 
ENDBRANCH  24  26
ENDBRANCH  23  24
ENDBRANCH   1  23
TORSDOF 4
ENDMDL
MODEL 2
REMARK VINA RESULT:      -6.7      1.747      5.980
REMARK  Name = 
REMARK  5 active torsions:
REMARK  status: ('A' for Active; 'I' for Inactive)
REMARK    1  A    between atoms: C_1  and  C_2
REMARK    2  A    between atoms: C_2  and  C_3
REMARK    3  A    between atoms: C_3  and  C_4
REMARK    4  A    between atoms: C_4  and  N_5
REMARK    5  A    between atoms: C_11  and  C_12
REMARK                            x       y       z     vdW  Elec       q    Type
REMARK                         _______ _______ _______ _____ _____    ______ ____
ROOT
ATOM      1  N   UNL     1       2.992   4.950  18.067  0.00  0.00    +0.000 N 
ATOM      2  C   UNL     1       3.949   4.226  17.366  0.00  0.00    +0.000 A 
ATOM      3  N   UNL     1       4.430   4.632  16.155  0.00  0.00    +0.000 N 
ATOM      4  C   UNL     1       4.820   3.630  15.168  0.00  0.00    +0.000 C 
ATOM      5  C   UNL     1       6.302   3.690  14.818  0.00  0.00    +0.000 C 
ATOM      6  C   UNL     1       6.848   5.102  14.640  0.00  0.00    +0.000 C 
ATOM      7  C   UNL     1       6.452   6.070  15.758  0.00  0.00    +0.000 C 
ATOM      8  C   UNL     1       4.937   5.999  15.968  0.00  0.00    +0.000 C 
ATOM      9  N   UNL     1       4.233   3.117  18.012  0.00  0.00    +0.000 NA
ATOM     10  C   UNL     1       3.626   3.227  19.242  0.00  0.00    +0.000 A 
ATOM     11  C   UNL     1       3.698   2.393  20.372  0.00  0.00    +0.000 A 
ATOM     12  C   UNL     1       3.000   2.750  21.532  0.00  0.00    +0.000 A 
ATOM     13  C   UNL     1       2.212   3.903  21.567  0.00  0.00    +0.000 A 
ATOM     14  C   UNL     1       2.108   4.729  20.446  0.00  0.00    +0.000 A 
ATOM     15  C   UNL     1       2.840   4.372  19.310  0.00  0.00    +0.000 A 
ENDROOT
BRANCH   7  16
ATOM     16  C   UNL     1       7.168   5.946  17.112  0.00  0.00    +0.000 C 
ATOM     17  O   UNL     1       7.431   4.844  17.605  0.00  0.00    +0.000 OA
ATOM     18  N   UNL     1       7.451   7.077  17.833  0.00  0.00    +0.000 N 
ATOM     19  C   UNL     1       7.041   8.450  17.637  0.00  0.00    +0.000 C 
ATOM     20  C   UNL     1       8.329   9.186  17.960  0.00  0.00    +0.000 C 
ATOM     21  C   UNL     1       8.833   8.427  19.189  0.00  0.00    +0.000 C 
ATOM     22  C   UNL     1       8.369   6.989  18.960  0.00  0.00    +0.000 C 
ENDBRANCH   7  16
BRANCH   1  23
ATOM     23  C   UNL     1       2.229   6.093  17.606  0.00  0.00    +0.000 C 
BRANCH  23  24
ATOM     24  C   UNL     1       2.567   7.400  18.318  0.00  0.00    +0.000 C 
BRANCH  24  26
ATOM     25  C   UNL     1       1.331   9.557  18.698  0.00  0.00    +0.000 C 
ATOM     26  C   UNL     1       1.836   8.570  17.661  0.00  0.00    +0.000 C 
ENDBRANCH  24  26
ENDBRANCH  23  24
ENDBRANCH   1  23
TORSDOF 4
ENDMDL
MODEL 3
REMARK VINA RESULT:      -6.6      7.385      9.823
REMARK  Name = 
REMARK  5 active torsions:
REMARK  status: ('A' for Active; 'I' for Inactive)
REMARK    1  A    between atoms: C_1  and  C_2
REMARK    2  A    between atoms: C_2  and  C_3
REMARK    3  A    between atoms: C_3  and  C_4
REMARK    4  A    between atoms: C_4  and  N_5
REMARK    5  A    between atoms: C_11  and  C_12
REMARK                            x       y       z     vdW  Elec       q    Type
REMARK                         _______ _______ _______ _____ _____    ______ ____
ROOT
ATOM      1  N   UNL     1      -0.910  11.111  19.762  0.00  0.00    +0.000 N 
ATOM      2  C   UNL     1      -1.596  12.039  20.535  0.00  0.00    +0.000 A 
ATOM      3  N   UNL     1      -1.053  12.601  21.656  0.00  0.00    +0.000 N 
ATOM      4  C   UNL     1      -1.924  12.956  22.771  0.00  0.00    +0.000 C 
ATOM      5  C   UNL     1      -1.932  14.452  23.062  0.00  0.00    +0.000 C 
ATOM      6  C   UNL     1      -0.558  15.109  23.006  0.00  0.00    +0.000 C 
ATOM      7  C   UNL     1       0.261  14.740  21.767  0.00  0.00    +0.000 C 
ATOM      8  C   UNL     1       0.282  13.217  21.616  0.00  0.00    +0.000 C 
ATOM      9  N   UNL     1      -2.808  12.212  20.057  0.00  0.00    +0.000 NA
ATOM     10  C   UNL     1      -2.834  11.564  18.844  0.00  0.00    +0.000 A 
ATOM     11  C   UNL     1      -3.831  11.525  17.853  0.00  0.00    +0.000 A 
ATOM     12  C   UNL     1      -3.596  10.807  16.674  0.00  0.00    +0.000 A 
ATOM     13  C   UNL     1      -2.402  10.107  16.488  0.00  0.00    +0.000 A 
ATOM     14  C   UNL     1      -1.412  10.112  17.473  0.00  0.00    +0.000 A 
ATOM     15  C   UNL     1      -1.652  10.863  18.627  0.00  0.00    +0.000 A 
ENDROOT
BRANCH   7  16
ATOM     16  C   UNL     1      -0.121  15.386  20.426  0.00  0.00    +0.000 C 
ATOM     17  O   UNL     1      -1.301  15.512  20.082  0.00  0.00    +0.000 OA
ATOM     18  N   UNL     1       0.865  15.760  19.551  0.00  0.00    +0.000 N 
ATOM     19  C   UNL     1       2.289  15.506  19.565  0.00  0.00    +0.000 C 
ATOM     20  C   UNL     1       2.829  16.851  19.115  0.00  0.00    +0.000 C 
ATOM     21  C   UNL     1       1.861  17.225  17.990  0.00  0.00    +0.000 C 
ATOM     22  C   UNL     1       0.527  16.620  18.425  0.00  0.00    +0.000 C 
ENDBRANCH   7  16
BRANCH   1  23
ATOM     23  C   UNL     1       0.347  10.456  20.068  0.00  0.00    +0.000 C 
BRANCH  23  24
ATOM     24  C   UNL     1       0.201   9.156  20.856  0.00  0.00    +0.000 C 
BRANCH  24  26
ATOM     25  C   UNL     1      -0.174   9.562  23.309  0.00  0.00    +0.000 C 
ATOM     26  C   UNL     1       0.858   9.288  22.229  0.00  0.00    +0.000 C 
ENDBRANCH  24  26
ENDBRANCH  23  24
ENDBRANCH   1  23
TORSDOF 4
ENDMDL
MODEL 4
REMARK VINA RESULT:      -6.6      5.817      9.470
REMARK  Name = 
REMARK  5 active torsions:
REMARK  status: ('A' for Active; 'I' for Inactive)
REMARK    1  A    between atoms: C_1  and  C_2
REMARK    2  A    between atoms: C_2  and  C_3
REMARK    3  A    between atoms: C_3  and  C_4
REMARK    4  A    between atoms: C_4  and  N_5
REMARK    5  A    between atoms: C_11  and  C_12
REMARK                            x       y       z     vdW  Elec       q    Type
REMARK                         _______ _______ _______ _____ _____    ______ ____
ROOT
ATOM      1  N   UNL     1      -1.124  10.853  19.298  0.00  0.00    +0.000 N 
ATOM      2  C   UNL     1      -1.743  11.753  20.156  0.00  0.00    +0.000 A 
ATOM      3  N   UNL     1      -1.151  12.195  21.305  0.00  0.00    +0.000 N 
ATOM      4  C   UNL     1      -1.981  12.507  22.463  0.00  0.00    +0.000 C 
ATOM      5  C   UNL     1      -1.901  13.973  22.870  0.00  0.00    +0.000 C 
ATOM      6  C   UNL     1      -0.495  14.559  22.835  0.00  0.00    +0.000 C 
ATOM      7  C   UNL     1       0.281  14.245  21.553  0.00  0.00    +0.000 C 
ATOM      8  C   UNL     1       0.215  12.740  21.284  0.00  0.00    +0.000 C 
ATOM      9  N   UNL     1      -2.952  12.027  19.720  0.00  0.00    +0.000 NA
ATOM     10  C   UNL     1      -3.036  11.479  18.461  0.00  0.00    +0.000 A 
ATOM     11  C   UNL     1      -4.050  11.572  17.492  0.00  0.00    +0.000 A 
ATOM     12  C   UNL     1      -3.877  10.938  16.255  0.00  0.00    +0.000 A 
ATOM     13  C   UNL     1      -2.726  10.192  15.989  0.00  0.00    +0.000 A 
ATOM     14  C   UNL     1      -1.720  10.067  16.949  0.00  0.00    +0.000 A 
ATOM     15  C   UNL     1      -1.898  10.737  18.164  0.00  0.00    +0.000 A 
ENDROOT
BRANCH   7  16
ATOM     16  C   UNL     1      -0.090  15.015  20.275  0.00  0.00    +0.000 C 
ATOM     17  O   UNL     1      -1.267  15.184  19.941  0.00  0.00    +0.000 OA
ATOM     18  N   UNL     1       0.904  15.456  19.441  0.00  0.00    +0.000 N 
ATOM     19  C   UNL     1       2.325  15.186  19.437  0.00  0.00    +0.000 C 
ATOM     20  C   UNL     1       2.881  16.561  19.112  0.00  0.00    +0.000 C 
ATOM     21  C   UNL     1       1.922  17.046  18.023  0.00  0.00    +0.000 C 
ATOM     22  C   UNL     1       0.580  16.418  18.397  0.00  0.00    +0.000 C 
ENDBRANCH   7  16
BRANCH   1  23
ATOM     23  C   UNL     1       0.101  10.110  19.523  0.00  0.00    +0.000 C 
BRANCH  23  24
ATOM     24  C   UNL     1       1.283  10.579  18.679  0.00  0.00    +0.000 C 
BRANCH  24  26
ATOM     25  C   UNL     1       2.109   8.204  18.647  0.00  0.00    +0.000 C 
ATOM     26  C   UNL     1       1.807   9.436  17.811  0.00  0.00    +0.000 C 
ENDBRANCH  24  26
ENDBRANCH  23  24
ENDBRANCH   1  23
TORSDOF 4
ENDMDL
MODEL 5
REMARK VINA RESULT:      -6.5      7.487     10.712
REMARK  Name = 
REMARK  5 active torsions:
REMARK  status: ('A' for Active; 'I' for Inactive)
REMARK    1  A    between atoms: C_1  and  C_2
REMARK    2  A    between atoms: C_2  and  C_3
REMARK    3  A    between atoms: C_3  and  C_4
REMARK    4  A    between atoms: C_4  and  N_5
REMARK    5  A    between atoms: C_11  and  C_12
REMARK                            x       y       z     vdW  Elec       q    Type
REMARK                         _______ _______ _______ _____ _____    ______ ____
ROOT
ATOM      1  N   UNL     1      -0.633  12.640  21.261  0.00  0.00    +0.000 N 
ATOM      2  C   UNL     1      -1.279  12.871  22.469  0.00  0.00    +0.000 A 
ATOM      3  N   UNL     1      -1.883  14.061  22.760  0.00  0.00    +0.000 N 
ATOM      4  C   UNL     1      -1.902  14.534  24.140  0.00  0.00    +0.000 C 
ATOM      5  C   UNL     1      -3.313  14.657  24.703  0.00  0.00    +0.000 C 
ATOM      6  C   UNL     1      -4.323  15.265  23.737  0.00  0.00    +0.000 C 
ATOM      7  C   UNL     1      -4.284  14.660  22.330  0.00  0.00    +0.000 C 
ATOM      8  C   UNL     1      -2.840  14.666  21.823  0.00  0.00    +0.000 C 
ATOM      9  N   UNL     1      -1.149  11.824  23.253  0.00  0.00    +0.000 NA
ATOM     10  C   UNL     1      -0.610  10.828  22.472  0.00  0.00    +0.000 A 
ATOM     11  C   UNL     1      -0.374   9.472  22.758  0.00  0.00    +0.000 A 
ATOM     12  C   UNL     1       0.163   8.645  21.763  0.00  0.00    +0.000 A 
ATOM     13  C   UNL     1       0.494   9.159  20.507  0.00  0.00    +0.000 A 
ATOM     14  C   UNL     1       0.292  10.509  20.214  0.00  0.00    +0.000 A 
ATOM     15  C   UNL     1      -0.277  11.309  21.210  0.00  0.00    +0.000 A 
ENDROOT
BRANCH   7  16
ATOM     16  C   UNL     1      -4.900  13.267  22.124  0.00  0.00    +0.000 C 
ATOM     17  O   UNL     1      -4.700  12.347  22.924  0.00  0.00    +0.000 OA
ATOM     18  N   UNL     1      -5.620  13.009  20.987  0.00  0.00    +0.000 N 
ATOM     19  C   UNL     1      -5.797  13.790  19.781  0.00  0.00    +0.000 C 
ATOM     20  C   UNL     1      -7.274  13.573  19.510  0.00  0.00    +0.000 C 
ATOM     21  C   UNL     1      -7.439  12.080  19.803  0.00  0.00    +0.000 C 
ATOM     22  C   UNL     1      -6.433  11.803  20.920  0.00  0.00    +0.000 C 
ENDBRANCH   7  16
BRANCH   1  23
ATOM     23  C   UNL     1      -0.325  13.602  20.220  0.00  0.00    +0.000 C 
BRANCH  23  24
ATOM     24  C   UNL     1       1.149  13.990  20.142  0.00  0.00    +0.000 C 
BRANCH  24  26
ATOM     25  C   UNL     1       2.495  12.894  18.322  0.00  0.00    +0.000 C 
ATOM     26  C   UNL     1       1.603  14.068  18.685  0.00  0.00    +0.000 C 
ENDBRANCH  24  26
ENDBRANCH  23  24
ENDBRANCH   1  23
TORSDOF 4
ENDMDL
MODEL 6
REMARK VINA RESULT:      -6.5      8.868     11.165
REMARK  Name = 
REMARK  5 active torsions:
REMARK  status: ('A' for Active; 'I' for Inactive)
REMARK    1  A    between atoms: C_1  and  C_2
REMARK    2  A    between atoms: C_2  and  C_3
REMARK    3  A    between atoms: C_3  and  C_4
REMARK    4  A    between atoms: C_4  and  N_5
REMARK    5  A    between atoms: C_11  and  C_12
REMARK                            x       y       z     vdW  Elec       q    Type
REMARK                         _______ _______ _______ _____ _____    ______ ____
ROOT
ATOM      1  N   UNL     1       8.535  15.740  18.757  0.00  0.00    +0.000 N 
ATOM      2  C   UNL     1       8.849  14.457  18.327  0.00  0.00    +0.000 A 
ATOM      3  N   UNL     1      10.106  13.934  18.441  0.00  0.00    +0.000 N 
ATOM      4  C   UNL     1      10.584  12.995  17.432  0.00  0.00    +0.000 C 
ATOM      5  C   UNL     1      10.884  11.615  18.005  0.00  0.00    +0.000 C 
ATOM      6  C   UNL     1      11.607  11.635  19.346  0.00  0.00    +0.000 C 
ATOM      7  C   UNL     1      10.996  12.594  20.371  0.00  0.00    +0.000 C 
ATOM      8  C   UNL     1      10.820  13.971  19.726  0.00  0.00    +0.000 C 
ATOM      9  N   UNL     1       7.798  13.903  17.765  0.00  0.00    +0.000 NA
ATOM     10  C   UNL     1       6.739  14.741  18.029  0.00  0.00    +0.000 A 
ATOM     11  C   UNL     1       5.366  14.583  17.774  0.00  0.00    +0.000 A 
ATOM     12  C   UNL     1       4.475  15.585  18.177  0.00  0.00    +0.000 A 
ATOM     13  C   UNL     1       4.938  16.748  18.798  0.00  0.00    +0.000 A 
ATOM     14  C   UNL     1       6.301  16.933  19.036  0.00  0.00    +0.000 A 
ATOM     15  C   UNL     1       7.170  15.906  18.656  0.00  0.00    +0.000 A 
ENDROOT
BRANCH   7  16
ATOM     16  C   UNL     1       9.688  12.177  21.063  0.00  0.00    +0.000 C 
ATOM     17  O   UNL     1       9.156  11.086  20.836  0.00  0.00    +0.000 OA
ATOM     18  N   UNL     1       9.050  13.064  21.890  0.00  0.00    +0.000 N 
ATOM     19  C   UNL     1       9.290  14.469  22.137  0.00  0.00    +0.000 C 
ATOM     20  C   UNL     1       9.095  14.538  23.640  0.00  0.00    +0.000 C 
ATOM     21  C   UNL     1       7.864  13.653  23.845  0.00  0.00    +0.000 C 
ATOM     22  C   UNL     1       7.984  12.584  22.759  0.00  0.00    +0.000 C 
ENDBRANCH   7  16
BRANCH   1  23
ATOM     23  C   UNL     1       9.446  16.775  19.204  0.00  0.00    +0.000 C 
BRANCH  23  24
ATOM     24  C   UNL     1      10.079  17.583  18.073  0.00  0.00    +0.000 C 
BRANCH  24  26
ATOM     25  C   UNL     1      12.142  16.455  17.183  0.00  0.00    +0.000 C 
ATOM     26  C   UNL     1      11.603  17.499  18.145  0.00  0.00    +0.000 C 
ENDBRANCH  24  26
ENDBRANCH  23  24
ENDBRANCH   1  23
TORSDOF 4
ENDMDL
MODEL 7
REMARK VINA RESULT:      -6.5      9.086     11.717
REMARK  Name = 
REMARK  5 active torsions:
REMARK  status: ('A' for Active; 'I' for Inactive)
REMARK    1  A    between atoms: C_1  and  C_2
REMARK    2  A    between atoms: C_2  and  C_3
REMARK    3  A    between atoms: C_3  and  C_4
REMARK    4  A    between atoms: C_4  and  N_5
REMARK    5  A    between atoms: C_11  and  C_12
REMARK                            x       y       z     vdW  Elec       q    Type
REMARK                         _______ _______ _______ _____ _____    ______ ____
ROOT
ATOM      1  N   UNL     1      -3.531  12.013  18.924  0.00  0.00    +0.000 N 
ATOM      2  C   UNL     1      -3.255  12.388  20.233  0.00  0.00    +0.000 A 
ATOM      3  N   UNL     1      -1.981  12.458  20.721  0.00  0.00    +0.000 N 
ATOM      4  C   UNL     1      -1.736  12.146  22.125  0.00  0.00    +0.000 C 
ATOM      5  C   UNL     1      -1.187  13.334  22.906  0.00  0.00    +0.000 C 
ATOM      6  C   UNL     1      -0.122  14.134  22.166  0.00  0.00    +0.000 C 
ATOM      7  C   UNL     1      -0.492  14.481  20.722  0.00  0.00    +0.000 C 
ATOM      8  C   UNL     1      -0.942  13.208  20.001  0.00  0.00    +0.000 C 
ATOM      9  N   UNL     1      -4.378  12.582  20.889  0.00  0.00    +0.000 NA
ATOM     10  C   UNL     1      -5.379  12.551  19.946  0.00  0.00    +0.000 A 
ATOM     11  C   UNL     1      -6.754  12.821  20.068  0.00  0.00    +0.000 A 
ATOM     12  C   UNL     1      -7.569  12.749  18.931  0.00  0.00    +0.000 A 
ATOM     13  C   UNL     1      -7.038  12.385  17.691  0.00  0.00    +0.000 A 
ATOM     14  C   UNL     1      -5.680  12.089  17.557  0.00  0.00    +0.000 A 
ATOM     15  C   UNL     1      -4.878  12.199  18.697  0.00  0.00    +0.000 A 
ENDROOT
BRANCH   7  16
ATOM     16  C   UNL     1      -1.520  15.599  20.486  0.00  0.00    +0.000 C 
ATOM     17  O   UNL     1      -2.552  15.681  21.160  0.00  0.00    +0.000 OA
ATOM     18  N   UNL     1      -1.334  16.480  19.452  0.00  0.00    +0.000 N 
ATOM     19  C   UNL     1      -0.382  16.473  18.363  0.00  0.00    +0.000 C 
ATOM     20  C   UNL     1      -0.003  17.941  18.300  0.00  0.00    +0.000 C 
ATOM     21  C   UNL     1      -1.357  18.631  18.479  0.00  0.00    +0.000 C 
ATOM     22  C   UNL     1      -2.137  17.694  19.400  0.00  0.00    +0.000 C 
ENDBRANCH   7  16
BRANCH   1  23
ATOM     23  C   UNL     1      -2.610  11.477  17.941  0.00  0.00    +0.000 C 
BRANCH  23  24
ATOM     24  C   UNL     1      -2.737   9.972  17.719  0.00  0.00    +0.000 C 
BRANCH  24  26
ATOM     25  C   UNL     1      -3.007  10.849  15.378  0.00  0.00    +0.000 C 
ATOM     26  C   UNL     1      -2.654   9.643  16.229  0.00  0.00    +0.000 C 
ENDBRANCH  24  26
ENDBRANCH  23  24
ENDBRANCH   1  23
TORSDOF 4
ENDMDL
MODEL 8
REMARK VINA RESULT:      -6.5      5.815     10.071
REMARK  Name = 
REMARK  5 active torsions:
REMARK  status: ('A' for Active; 'I' for Inactive)
REMARK    1  A    between atoms: C_1  and  C_2
REMARK    2  A    between atoms: C_2  and  C_3
REMARK    3  A    between atoms: C_3  and  C_4
REMARK    4  A    between atoms: C_4  and  N_5
REMARK    5  A    between atoms: C_11  and  C_12
REMARK                            x       y       z     vdW  Elec       q    Type
REMARK                         _______ _______ _______ _____ _____    ______ ____
ROOT
ATOM      1  N   UNL     1      -0.956  11.695  18.970  0.00  0.00    +0.000 N 
ATOM      2  C   UNL     1      -1.384  12.355  20.116  0.00  0.00    +0.000 A 
ATOM      3  N   UNL     1      -0.512  12.864  21.035  0.00  0.00    +0.000 N 
ATOM      4  C   UNL     1      -0.890  12.884  22.444  0.00  0.00    +0.000 C 
ATOM      5  C   UNL     1      -0.980  14.296  23.012  0.00  0.00    +0.000 C 
ATOM      6  C   UNL     1       0.147  15.222  22.573  0.00  0.00    +0.000 C 
ATOM      7  C   UNL     1       0.429  15.194  21.068  0.00  0.00    +0.000 C 
ATOM      8  C   UNL     1       0.593  13.740  20.618  0.00  0.00    +0.000 C 
ATOM      9  N   UNL     1      -2.696  12.336  20.179  0.00  0.00    +0.000 NA
ATOM     10  C   UNL     1      -3.129  11.860  18.962  0.00  0.00    +0.000 A 
ATOM     11  C   UNL     1      -4.428  11.748  18.437  0.00  0.00    +0.000 A 
ATOM     12  C   UNL     1      -4.602  11.253  17.138  0.00  0.00    +0.000 A 
ATOM     13  C   UNL     1      -3.505  10.844  16.376  0.00  0.00    +0.000 A 
ATOM     14  C   UNL     1      -2.210  10.923  16.891  0.00  0.00    +0.000 A 
ATOM     15  C   UNL     1      -2.056  11.452  18.177  0.00  0.00    +0.000 A 
ENDROOT
BRANCH   7  16
ATOM     16  C   UNL     1      -0.552  15.918  20.133  0.00  0.00    +0.000 C 
ATOM     17  O   UNL     1      -1.766  15.939  20.362  0.00  0.00    +0.000 OA
ATOM     18  N   UNL     1      -0.088  16.484  18.975  0.00  0.00    +0.000 N 
ATOM     19  C   UNL     1       1.203  16.395  18.329  0.00  0.00    +0.000 C 
ATOM     20  C   UNL     1       1.402  17.830  17.877  0.00  0.00    +0.000 C 
ATOM     21  C   UNL     1       0.012  18.196  17.353  0.00  0.00    +0.000 C 
ATOM     22  C   UNL     1      -0.946  17.403  18.240  0.00  0.00    +0.000 C 
ENDBRANCH   7  16
BRANCH   1  23
ATOM     23  C   UNL     1       0.392  11.278  18.637  0.00  0.00    +0.000 C 
BRANCH  23  24
ATOM     24  C   UNL     1       0.592   9.765  18.614  0.00  0.00    +0.000 C 
BRANCH  24  26
ATOM     25  C   UNL     1       2.352   8.018  18.195  0.00  0.00    +0.000 C 
ATOM     26  C   UNL     1       1.851   9.404  17.827  0.00  0.00    +0.000 C 
ENDBRANCH  24  26
ENDBRANCH  23  24
ENDBRANCH   1  23
TORSDOF 4
ENDMDL
MODEL 9
REMARK VINA RESULT:      -6.4      5.503      9.393
REMARK  Name = 
REMARK  5 active torsions:
REMARK  status: ('A' for Active; 'I' for Inactive)
REMARK    1  A    between atoms: C_1  and  C_2
REMARK    2  A    between atoms: C_2  and  C_3
REMARK    3  A    between atoms: C_3  and  C_4
REMARK    4  A    between atoms: C_4  and  N_5
REMARK    5  A    between atoms: C_11  and  C_12
REMARK                            x       y       z     vdW  Elec       q    Type
REMARK                         _______ _______ _______ _____ _____    ______ ____
ROOT
ATOM      1  N   UNL     1      -0.737  10.743  19.115  0.00  0.00    +0.000 N 
ATOM      2  C   UNL     1      -1.096  11.776  19.972  0.00  0.00    +0.000 A 
ATOM      3  N   UNL     1      -0.255  12.251  20.937  0.00  0.00    +0.000 N 
ATOM      4  C   UNL     1      -0.814  12.752  22.189  0.00  0.00    +0.000 C 
ATOM      5  C   UNL     1      -0.527  14.231  22.415  0.00  0.00    +0.000 C 
ATOM      6  C   UNL     1       0.892  14.657  22.058  0.00  0.00    +0.000 C 
ATOM      7  C   UNL     1       1.374  14.149  20.697  0.00  0.00    +0.000 C 
ATOM      8  C   UNL     1       1.123  12.642  20.607  0.00  0.00    +0.000 C 
ATOM      9  N   UNL     1      -2.338  12.139  19.739  0.00  0.00    +0.000 NA
ATOM     10  C   UNL     1      -2.712  11.494  18.583  0.00  0.00    +0.000 A 
ATOM     11  C   UNL     1      -3.883  11.610  17.813  0.00  0.00    +0.000 A 
ATOM     12  C   UNL     1      -4.009  10.854  16.641  0.00  0.00    +0.000 A 
ATOM     13  C   UNL     1      -3.003   9.968  16.249  0.00  0.00    +0.000 A 
ATOM     14  C   UNL     1      -1.845   9.821  17.015  0.00  0.00    +0.000 A 
ATOM     15  C   UNL     1      -1.724  10.610  18.162  0.00  0.00    +0.000 A 
ENDROOT
BRANCH   7  16
ATOM     16  C   UNL     1       0.832  14.839  19.434  0.00  0.00    +0.000 C 
ATOM     17  O   UNL     1       0.180  14.219  18.588  0.00  0.00    +0.000 OA
ATOM     18  N   UNL     1       1.145  16.152  19.195  0.00  0.00    +0.000 N 
ATOM     19  C   UNL     1       2.078  17.038  19.856  0.00  0.00    +0.000 C 
ATOM     20  C   UNL     1       1.276  18.325  19.900  0.00  0.00    +0.000 C 
ATOM     21  C   UNL     1       0.639  18.354  18.510  0.00  0.00    +0.000 C 
ATOM     22  C   UNL     1       0.412  16.881  18.169  0.00  0.00    +0.000 C 
ENDBRANCH   7  16
BRANCH   1  23
ATOM     23  C   UNL     1       0.437   9.895  19.190  0.00  0.00    +0.000 C 
BRANCH  23  24
ATOM     24  C   UNL     1       1.459  10.141  18.083  0.00  0.00    +0.000 C 
BRANCH  24  26
ATOM     25  C   UNL     1       2.216   7.875  18.867  0.00  0.00    +0.000 C 
ATOM     26  C   UNL     1       2.149   8.835  17.692  0.00  0.00    +0.000 C 
ENDBRANCH  24  26
ENDBRANCH  23  24
ENDBRANCH   1  23
TORSDOF 4
ENDMDL
