MODEL 1
REMARK VINA RESULT:      -7.6      0.000      0.000
REMARK  Name = 
REMARK  6 active torsions:
REMARK  status: ('A' for Active; 'I' for Inactive)
REMARK    1  A    between atoms: C_1  and  C_2
REMARK    2  A    between atoms: C_2  and  C_3
REMARK    3  A    between atoms: C_3  and  N_4
REMARK    4  A    between atoms: C_5  and  O_6
REMARK    5  A    between atoms: O_6  and  C_7
REMARK    6  A    between atoms: C_15  and  C_16
REMARK                            x       y       z     vdW  Elec       q    Type
REMARK                         _______ _______ _______ _____ _____    ______ ____
ROOT
ATOM      1  N   UNL     1       3.325   4.936  18.824  0.00  0.00    +0.000 N 
ATOM      2  C   UNL     1       3.550   5.844  17.775  0.00  0.00    +0.000 A 
ATOM      3  N   UNL     1       3.166   7.092  17.725  0.00  0.00    +0.000 NA
ATOM      4  C   UNL     1       2.492   7.531  18.887  0.00  0.00    +0.000 A 
ATOM      5  N   UNL     1       2.011   8.783  19.207  0.00  0.00    +0.000 NA
ATOM      6  C   UNL     1       1.515   8.669  20.435  0.00  0.00    +0.000 A 
ATOM      7  N   UNL     1       1.645   7.384  20.891  0.00  0.00    +0.000 N 
ATOM      8  C   UNL     1       2.283   6.686  19.926  0.00  0.00    +0.000 A 
ATOM      9  C   UNL     1       2.703   5.342  19.991  0.00  0.00    +0.000 A 
ATOM     10  O   UNL     1       2.536   4.659  20.995  0.00  0.00    +0.000 OA
ATOM     11  H   UNL     1       1.351   7.023  21.792  0.00  0.00    +0.000 HD
ENDROOT
BRANCH   6  12
ATOM     12  C   UNL     1       0.856   9.666  21.333  0.00  0.00    +0.000 C 
ATOM     13  C   UNL     1      -0.159  10.592  20.687  0.00  0.00    +0.000 C 
ATOM     14  C   UNL     1      -0.904  11.175  21.887  0.00  0.00    +0.000 C 
ATOM     15  C   UNL     1      -0.873  10.096  22.969  0.00  0.00    +0.000 C 
ATOM     16  C   UNL     1       0.070   9.008  22.463  0.00  0.00    +0.000 C 
ENDBRANCH   6  12
BRANCH   1  17
ATOM     17  C   UNL     1       3.882   3.582  18.850  0.00  0.00    +0.000 C 
BRANCH  17  19
ATOM     18  C   UNL     1       1.904   1.960  18.880  0.00  0.00    +0.000 C 
ATOM     19  C   UNL     1       3.064   2.529  18.084  0.00  0.00    +0.000 C 
ENDBRANCH  17  19
ENDBRANCH   1  17
BRANCH   2  20
ATOM     20  O   UNL     1       4.254   5.267  16.763  0.00  0.00    +0.000 OA
BRANCH  20  21
ATOM     21  C   UNL     1       5.274   5.935  15.973  0.00  0.00    +0.000 C 
ATOM     22  C   UNL     1       5.604   4.967  14.846  0.00  0.00    +0.000 C 
ATOM     23  C   UNL     1       6.518   3.986  15.554  0.00  0.00    +0.000 C 
ATOM     24  O   UNL     1       7.318   4.772  16.444  0.00  0.00    +0.000 OA
ATOM     25  C   UNL     1       6.632   6.028  16.663  0.00  0.00    +0.000 C 
ENDBRANCH  20  21
ENDBRANCH   2  20
TORSDOF 5
ENDMDL
MODEL 2
REMARK VINA RESULT:      -7.6      0.623      1.046
REMARK  Name = 
REMARK  6 active torsions:
REMARK  status: ('A' for Active; 'I' for Inactive)
REMARK    1  A    between atoms: C_1  and  C_2
REMARK    2  A    between atoms: C_2  and  C_3
REMARK    3  A    between atoms: C_3  and  N_4
REMARK    4  A    between atoms: C_5  and  O_6
REMARK    5  A    between atoms: O_6  and  C_7
REMARK    6  A    between atoms: C_15  and  C_16
REMARK                            x       y       z     vdW  Elec       q    Type
REMARK                         _______ _______ _______ _____ _____    ______ ____
ROOT
ATOM      1  N   UNL     1       3.609   4.768  19.288  0.00  0.00    +0.000 N 
ATOM      2  C   UNL     1       3.913   5.696  18.278  0.00  0.00    +0.000 A 
ATOM      3  N   UNL     1       3.393   6.885  18.125  0.00  0.00    +0.000 NA
ATOM      4  C   UNL     1       2.462   7.236  19.128  0.00  0.00    +0.000 A 
ATOM      5  N   UNL     1       1.777   8.417  19.320  0.00  0.00    +0.000 NA
ATOM      6  C   UNL     1       1.075   8.243  20.435  0.00  0.00    +0.000 A 
ATOM      7  N   UNL     1       1.275   6.986  20.940  0.00  0.00    +0.000 N 
ATOM      8  C   UNL     1       2.166   6.373  20.130  0.00  0.00    +0.000 A 
ATOM      9  C   UNL     1       2.731   5.094  20.307  0.00  0.00    +0.000 A 
ATOM     10  O   UNL     1       2.463   4.396  21.279  0.00  0.00    +0.000 OA
ATOM     11  H   UNL     1       0.863   6.591  21.779  0.00  0.00    +0.000 HD
ENDROOT
BRANCH   6  12
ATOM     12  C   UNL     1       0.138   9.149  21.168  0.00  0.00    +0.000 C 
ATOM     13  C   UNL     1       0.217   9.124  22.683  0.00  0.00    +0.000 C 
ATOM     14  C   UNL     1      -0.538  10.389  23.088  0.00  0.00    +0.000 C 
ATOM     15  C   UNL     1      -0.323  11.390  21.952  0.00  0.00    +0.000 C 
ATOM     16  C   UNL     1       0.356  10.620  20.824  0.00  0.00    +0.000 C 
ENDBRANCH   6  12
BRANCH   1  17
ATOM     17  C   UNL     1       4.315   3.497  19.452  0.00  0.00    +0.000 C 
BRANCH  17  19
ATOM     18  C   UNL     1       2.772   2.352  17.763  0.00  0.00    +0.000 C 
ATOM     19  C   UNL     1       3.494   2.247  19.094  0.00  0.00    +0.000 C 
ENDBRANCH  17  19
ENDBRANCH   1  17
BRANCH   2  20
ATOM     20  O   UNL     1       4.862   5.212  17.430  0.00  0.00    +0.000 OA
BRANCH  20  21
ATOM     21  C   UNL     1       5.664   6.022  16.530  0.00  0.00    +0.000 C 
ATOM     22  C   UNL     1       5.575   5.325  15.180  0.00  0.00    +0.000 C 
ATOM     23  C   UNL     1       6.569   4.196  15.362  0.00  0.00    +0.000 C 
ATOM     24  O   UNL     1       7.654   4.750  16.115  0.00  0.00    +0.000 OA
ATOM     25  C   UNL     1       7.165   5.936  16.785  0.00  0.00    +0.000 C 
ENDBRANCH  20  21
ENDBRANCH   2  20
TORSDOF 5
ENDMDL
MODEL 3
REMARK VINA RESULT:      -7.2      2.096      7.352
REMARK  Name = 
REMARK  6 active torsions:
REMARK  status: ('A' for Active; 'I' for Inactive)
REMARK    1  A    between atoms: C_1  and  C_2
REMARK    2  A    between atoms: C_2  and  C_3
REMARK    3  A    between atoms: C_3  and  N_4
REMARK    4  A    between atoms: C_5  and  O_6
REMARK    5  A    between atoms: O_6  and  C_7
REMARK    6  A    between atoms: C_15  and  C_16
REMARK                            x       y       z     vdW  Elec       q    Type
REMARK                         _______ _______ _______ _____ _____    ______ ____
ROOT
ATOM      1  N   UNL     1       3.020   5.142  19.838  0.00  0.00    +0.000 N 
ATOM      2  C   UNL     1       2.711   6.357  19.203  0.00  0.00    +0.000 A 
ATOM      3  N   UNL     1       3.183   6.787  18.064  0.00  0.00    +0.000 NA
ATOM      4  C   UNL     1       4.063   5.881  17.430  0.00  0.00    +0.000 A 
ATOM      5  N   UNL     1       4.689   5.971  16.205  0.00  0.00    +0.000 NA
ATOM      6  C   UNL     1       5.360   4.832  16.064  0.00  0.00    +0.000 A 
ATOM      7  N   UNL     1       5.197   4.037  17.168  0.00  0.00    +0.000 N 
ATOM      8  C   UNL     1       4.362   4.690  18.004  0.00  0.00    +0.000 A 
ATOM      9  C   UNL     1       3.847   4.216  19.228  0.00  0.00    +0.000 A 
ATOM     10  O   UNL     1       4.112   3.095  19.651  0.00  0.00    +0.000 OA
ATOM     11  H   UNL     1       5.597   3.117  17.322  0.00  0.00    +0.000 HD
ENDROOT
BRANCH   6  12
ATOM     12  C   UNL     1       6.230   4.325  14.960  0.00  0.00    +0.000 C 
ATOM     13  C   UNL     1       5.523   3.834  13.710  0.00  0.00    +0.000 C 
ATOM     14  C   UNL     1       6.649   3.774  12.679  0.00  0.00    +0.000 C 
ATOM     15  C   UNL     1       7.639   4.870  13.071  0.00  0.00    +0.000 C 
ATOM     16  C   UNL     1       7.188   5.390  14.432  0.00  0.00    +0.000 C 
ENDBRANCH   6  12
BRANCH   1  17
ATOM     17  C   UNL     1       2.364   4.685  21.064  0.00  0.00    +0.000 C 
BRANCH  17  19
ATOM     18  C   UNL     1       1.300   2.441  21.679  0.00  0.00    +0.000 C 
ATOM     19  C   UNL     1       1.197   3.707  20.850  0.00  0.00    +0.000 C 
ENDBRANCH  17  19
ENDBRANCH   1  17
BRANCH   2  20
ATOM     20  O   UNL     1       1.813   7.080  19.928  0.00  0.00    +0.000 OA
BRANCH  20  21
ATOM     21  C   UNL     1       1.962   8.482  20.276  0.00  0.00    +0.000 C 
ATOM     22  C   UNL     1       1.408   8.603  21.688  0.00  0.00    +0.000 C 
ATOM     23  C   UNL     1      -0.084   8.627  21.422  0.00  0.00    +0.000 C 
ATOM     24  O   UNL     1      -0.254   9.398  20.227  0.00  0.00    +0.000 OA
ATOM     25  C   UNL     1       1.013   9.413  19.527  0.00  0.00    +0.000 C 
ENDBRANCH  20  21
ENDBRANCH   2  20
TORSDOF 5
ENDMDL
MODEL 4
REMARK VINA RESULT:      -7.1      1.444      1.803
REMARK  Name = 
REMARK  6 active torsions:
REMARK  status: ('A' for Active; 'I' for Inactive)
REMARK    1  A    between atoms: C_1  and  C_2
REMARK    2  A    between atoms: C_2  and  C_3
REMARK    3  A    between atoms: C_3  and  N_4
REMARK    4  A    between atoms: C_5  and  O_6
REMARK    5  A    between atoms: O_6  and  C_7
REMARK    6  A    between atoms: C_15  and  C_16
REMARK                            x       y       z     vdW  Elec       q    Type
REMARK                         _______ _______ _______ _____ _____    ______ ____
ROOT
ATOM      1  N   UNL     1       3.541   5.643  18.778  0.00  0.00    +0.000 N 
ATOM      2  C   UNL     1       4.042   6.220  17.599  0.00  0.00    +0.000 A 
ATOM      3  N   UNL     1       3.691   7.366  17.079  0.00  0.00    +0.000 NA
ATOM      4  C   UNL     1       2.733   8.072  17.841  0.00  0.00    +0.000 A 
ATOM      5  N   UNL     1       2.189   9.322  17.634  0.00  0.00    +0.000 NA
ATOM      6  C   UNL     1       1.383   9.533  18.669  0.00  0.00    +0.000 A 
ATOM      7  N   UNL     1       1.381   8.451  19.509  0.00  0.00    +0.000 N 
ATOM      8  C   UNL     1       2.250   7.553  18.996  0.00  0.00    +0.000 A 
ATOM      9  C   UNL     1       2.632   6.323  19.568  0.00  0.00    +0.000 A 
ATOM     10  O   UNL     1       2.200   5.951  20.654  0.00  0.00    +0.000 OA
ATOM     11  H   UNL     1       0.855   8.347  20.370  0.00  0.00    +0.000 HD
ENDROOT
BRANCH   6  12
ATOM     12  C   UNL     1       0.511  10.695  19.024  0.00  0.00    +0.000 C 
ATOM     13  C   UNL     1      -0.947  10.600  18.613  0.00  0.00    +0.000 C 
ATOM     14  C   UNL     1      -1.610  11.700  19.440  0.00  0.00    +0.000 C 
ATOM     15  C   UNL     1      -0.794  11.810  20.728  0.00  0.00    +0.000 C 
ATOM     16  C   UNL     1       0.442  10.938  20.529  0.00  0.00    +0.000 C 
ENDBRANCH   6  12
BRANCH   1  17
ATOM     17  C   UNL     1       4.066   4.403  19.352  0.00  0.00    +0.000 C 
BRANCH  17  19
ATOM     18  C   UNL     1       3.590   2.341  17.913  0.00  0.00    +0.000 C 
ATOM     19  C   UNL     1       3.188   3.161  19.125  0.00  0.00    +0.000 C 
ENDBRANCH  17  19
ENDBRANCH   1  17
BRANCH   2  20
ATOM     20  O   UNL     1       4.989   5.429  17.023  0.00  0.00    +0.000 OA
BRANCH  20  21
ATOM     21  C   UNL     1       6.243   5.904  16.467  0.00  0.00    +0.000 C 
ATOM     22  C   UNL     1       7.154   4.685  16.437  0.00  0.00    +0.000 C 
ATOM     23  C   UNL     1       7.599   4.610  17.883  0.00  0.00    +0.000 C 
ATOM     24  O   UNL     1       7.782   5.966  18.305  0.00  0.00    +0.000 OA
ATOM     25  C   UNL     1       7.033   6.814  17.403  0.00  0.00    +0.000 C 
ENDBRANCH  20  21
ENDBRANCH   2  20
TORSDOF 5
ENDMDL
MODEL 5
REMARK VINA RESULT:      -7.0      1.655      3.673
REMARK  Name = 
REMARK  6 active torsions:
REMARK  status: ('A' for Active; 'I' for Inactive)
REMARK    1  A    between atoms: C_1  and  C_2
REMARK    2  A    between atoms: C_2  and  C_3
REMARK    3  A    between atoms: C_3  and  N_4
REMARK    4  A    between atoms: C_5  and  O_6
REMARK    5  A    between atoms: O_6  and  C_7
REMARK    6  A    between atoms: C_15  and  C_16
REMARK                            x       y       z     vdW  Elec       q    Type
REMARK                         _______ _______ _______ _____ _____    ______ ____
ROOT
ATOM      1  N   UNL     1       3.001   6.597  18.534  0.00  0.00    +0.000 N 
ATOM      2  C   UNL     1       2.699   5.830  19.672  0.00  0.00    +0.000 A 
ATOM      3  N   UNL     1       1.994   6.206  20.705  0.00  0.00    +0.000 NA
ATOM      4  C   UNL     1       1.475   7.516  20.598  0.00  0.00    +0.000 A 
ATOM      5  N   UNL     1       0.646   8.209  21.455  0.00  0.00    +0.000 NA
ATOM      6  C   UNL     1       0.417   9.375  20.860  0.00  0.00    +0.000 A 
ATOM      7  N   UNL     1       1.090   9.451  19.670  0.00  0.00    +0.000 N 
ATOM      8  C   UNL     1       1.727   8.273  19.502  0.00  0.00    +0.000 A 
ATOM      9  C   UNL     1       2.478   7.869  18.379  0.00  0.00    +0.000 A 
ATOM     10  O   UNL     1       2.606   8.586  17.393  0.00  0.00    +0.000 OA
ATOM     11  H   UNL     1       1.090  10.228  19.017  0.00  0.00    +0.000 HD
ENDROOT
BRANCH   6  12
ATOM     12  C   UNL     1      -0.400  10.556  21.278  0.00  0.00    +0.000 C 
ATOM     13  C   UNL     1      -0.813  10.612  22.737  0.00  0.00    +0.000 C 
ATOM     14  C   UNL     1      -1.258  12.063  22.914  0.00  0.00    +0.000 C 
ATOM     15  C   UNL     1      -0.417  12.884  21.936  0.00  0.00    +0.000 C 
ATOM     16  C   UNL     1       0.330  11.879  21.064  0.00  0.00    +0.000 C 
ENDBRANCH   6  12
BRANCH   1  17
ATOM     17  C   UNL     1       3.708   6.064  17.369  0.00  0.00    +0.000 C 
BRANCH  17  19
ATOM     18  C   UNL     1       5.993   5.331  16.481  0.00  0.00    +0.000 C 
ATOM     19  C   UNL     1       5.229   6.292  17.373  0.00  0.00    +0.000 C 
ENDBRANCH  17  19
ENDBRANCH   1  17
BRANCH   2  20
ATOM     20  O   UNL     1       3.236   4.581  19.584  0.00  0.00    +0.000 OA
BRANCH  20  21
ATOM     21  C   UNL     1       2.477   3.344  19.642  0.00  0.00    +0.000 C 
ATOM     22  C   UNL     1       3.456   2.256  19.226  0.00  0.00    +0.000 C 
ATOM     23  C   UNL     1       3.453   2.414  17.718  0.00  0.00    +0.000 C 
ATOM     24  O   UNL     1       2.099   2.712  17.360  0.00  0.00    +0.000 OA
ATOM     25  C   UNL     1       1.428   3.206  18.543  0.00  0.00    +0.000 C 
ENDBRANCH  20  21
ENDBRANCH   2  20
TORSDOF 5
ENDMDL
MODEL 6
REMARK VINA RESULT:      -7.0      0.951      1.168
REMARK  Name = 
REMARK  6 active torsions:
REMARK  status: ('A' for Active; 'I' for Inactive)
REMARK    1  A    between atoms: C_1  and  C_2
REMARK    2  A    between atoms: C_2  and  C_3
REMARK    3  A    between atoms: C_3  and  N_4
REMARK    4  A    between atoms: C_5  and  O_6
REMARK    5  A    between atoms: O_6  and  C_7
REMARK    6  A    between atoms: C_15  and  C_16
REMARK                            x       y       z     vdW  Elec       q    Type
REMARK                         _______ _______ _______ _____ _____    ______ ____
ROOT
ATOM      1  N   UNL     1       3.488   5.217  19.014  0.00  0.00    +0.000 N 
ATOM      2  C   UNL     1       3.768   6.003  17.883  0.00  0.00    +0.000 A 
ATOM      3  N   UNL     1       3.296   7.193  17.621  0.00  0.00    +0.000 NA
ATOM      4  C   UNL     1       2.451   7.709  18.629  0.00  0.00    +0.000 A 
ATOM      5  N   UNL     1       1.837   8.939  18.719  0.00  0.00    +0.000 NA
ATOM      6  C   UNL     1       1.203   8.934  19.888  0.00  0.00    +0.000 A 
ATOM      7  N   UNL     1       1.377   7.735  20.526  0.00  0.00    +0.000 N 
ATOM      8  C   UNL     1       2.182   6.985  19.743  0.00  0.00    +0.000 A 
ATOM      9  C   UNL     1       2.696   5.706  20.037  0.00  0.00    +0.000 A 
ATOM     10  O   UNL     1       2.461   5.142  21.100  0.00  0.00    +0.000 OA
ATOM     11  H   UNL     1       1.003   7.465  21.429  0.00  0.00    +0.000 HD
ENDROOT
BRANCH   6  12
ATOM     12  C   UNL     1       0.360   9.970  20.561  0.00  0.00    +0.000 C 
ATOM     13  C   UNL     1       1.043  11.281  20.904  0.00  0.00    +0.000 C 
ATOM     14  C   UNL     1      -0.131  12.215  21.191  0.00  0.00    +0.000 C 
ATOM     15  C   UNL     1      -1.284  11.726  20.315  0.00  0.00    +0.000 C 
ATOM     16  C   UNL     1      -0.832  10.400  19.712  0.00  0.00    +0.000 C 
ENDBRANCH   6  12
BRANCH   1  17
ATOM     17  C   UNL     1       4.143   3.937  19.286  0.00  0.00    +0.000 C 
BRANCH  17  19
ATOM     18  C   UNL     1       3.272   2.057  17.784  0.00  0.00    +0.000 C 
ATOM     19  C   UNL     1       3.235   2.703  19.157  0.00  0.00    +0.000 C 
ENDBRANCH  17  19
ENDBRANCH   1  17
BRANCH   2  20
ATOM     20  O   UNL     1       4.636   5.372  17.044  0.00  0.00    +0.000 OA
BRANCH  20  21
ATOM     21  C   UNL     1       5.634   6.039  16.226  0.00  0.00    +0.000 C 
ATOM     22  C   UNL     1       5.752   5.188  14.969  0.00  0.00    +0.000 C 
ATOM     23  C   UNL     1       6.630   4.054  15.460  0.00  0.00    +0.000 C 
ATOM     24  O   UNL     1       7.589   4.655  16.338  0.00  0.00    +0.000 OA
ATOM     25  C   UNL     1       7.056   5.930  16.768  0.00  0.00    +0.000 C 
ENDBRANCH  20  21
ENDBRANCH   2  20
TORSDOF 5
ENDMDL
MODEL 7
REMARK VINA RESULT:      -7.0      1.073      1.635
REMARK  Name = 
REMARK  6 active torsions:
REMARK  status: ('A' for Active; 'I' for Inactive)
REMARK    1  A    between atoms: C_1  and  C_2
REMARK    2  A    between atoms: C_2  and  C_3
REMARK    3  A    between atoms: C_3  and  N_4
REMARK    4  A    between atoms: C_5  and  O_6
REMARK    5  A    between atoms: O_6  and  C_7
REMARK    6  A    between atoms: C_15  and  C_16
REMARK                            x       y       z     vdW  Elec       q    Type
REMARK                         _______ _______ _______ _____ _____    ______ ____
ROOT
ATOM      1  N   UNL     1       3.559   4.445  19.399  0.00  0.00    +0.000 N 
ATOM      2  C   UNL     1       3.976   5.366  18.423  0.00  0.00    +0.000 A 
ATOM      3  N   UNL     1       3.538   6.586  18.260  0.00  0.00    +0.000 NA
ATOM      4  C   UNL     1       2.573   6.980  19.214  0.00  0.00    +0.000 A 
ATOM      5  N   UNL     1       1.949   8.198  19.387  0.00  0.00    +0.000 NA
ATOM      6  C   UNL     1       1.175   8.051  20.458  0.00  0.00    +0.000 A 
ATOM      7  N   UNL     1       1.271   6.777  20.952  0.00  0.00    +0.000 N 
ATOM      8  C   UNL     1       2.168   6.123  20.184  0.00  0.00    +0.000 A 
ATOM      9  C   UNL     1       2.645   4.809  20.371  0.00  0.00    +0.000 A 
ATOM     10  O   UNL     1       2.280   4.117  21.315  0.00  0.00    +0.000 OA
ATOM     11  H   UNL     1       0.788   6.398  21.760  0.00  0.00    +0.000 HD
ENDROOT
BRANCH   6  12
ATOM     12  C   UNL     1       0.253   9.003  21.150  0.00  0.00    +0.000 C 
ATOM     13  C   UNL     1       0.374   9.084  22.661  0.00  0.00    +0.000 C 
ATOM     14  C   UNL     1      -0.377  10.371  22.997  0.00  0.00    +0.000 C 
ATOM     15  C   UNL     1      -0.200  11.291  21.789  0.00  0.00    +0.000 C 
ATOM     16  C   UNL     1       0.453  10.446  20.699  0.00  0.00    +0.000 C 
ENDBRANCH   6  12
BRANCH   1  17
ATOM     17  C   UNL     1       4.178   3.131  19.582  0.00  0.00    +0.000 C 
BRANCH  17  19
ATOM     18  C   UNL     1       2.230   2.112  18.272  0.00  0.00    +0.000 C 
ATOM     19  C   UNL     1       3.713   2.051  18.591  0.00  0.00    +0.000 C 
ENDBRANCH  17  19
ENDBRANCH   1  17
BRANCH   2  20
ATOM     20  O   UNL     1       4.942   4.837  17.623  0.00  0.00    +0.000 OA
BRANCH  20  21
ATOM     21  C   UNL     1       6.345   4.717  17.981  0.00  0.00    +0.000 C 
ATOM     22  C   UNL     1       6.749   6.098  18.475  0.00  0.00    +0.000 C 
ATOM     23  C   UNL     1       6.947   6.836  17.167  0.00  0.00    +0.000 C 
ATOM     24  O   UNL     1       7.550   5.893  16.274  0.00  0.00    +0.000 OA
ATOM     25  C   UNL     1       7.281   4.566  16.787  0.00  0.00    +0.000 C 
ENDBRANCH  20  21
ENDBRANCH   2  20
TORSDOF 5
ENDMDL
MODEL 8
REMARK VINA RESULT:      -7.0      1.672      2.004
REMARK  Name = 
REMARK  6 active torsions:
REMARK  status: ('A' for Active; 'I' for Inactive)
REMARK    1  A    between atoms: C_1  and  C_2
REMARK    2  A    between atoms: C_2  and  C_3
REMARK    3  A    between atoms: C_3  and  N_4
REMARK    4  A    between atoms: C_5  and  O_6
REMARK    5  A    between atoms: O_6  and  C_7
REMARK    6  A    between atoms: C_15  and  C_16
REMARK                            x       y       z     vdW  Elec       q    Type
REMARK                         _______ _______ _______ _____ _____    ______ ____
ROOT
ATOM      1  N   UNL     1       3.216   5.920  18.953  0.00  0.00    +0.000 N 
ATOM      2  C   UNL     1       3.781   6.529  17.819  0.00  0.00    +0.000 A 
ATOM      3  N   UNL     1       3.488   7.707  17.336  0.00  0.00    +0.000 NA
ATOM      4  C   UNL     1       2.524   8.412  18.090  0.00  0.00    +0.000 A 
ATOM      5  N   UNL     1       2.030   9.687  17.917  0.00  0.00    +0.000 NA
ATOM      6  C   UNL     1       1.190   9.883  18.929  0.00  0.00    +0.000 A 
ATOM      7  N   UNL     1       1.120   8.767  19.721  0.00  0.00    +0.000 N 
ATOM      8  C   UNL     1       1.979   7.863  19.204  0.00  0.00    +0.000 A 
ATOM      9  C   UNL     1       2.299   6.597  19.737  0.00  0.00    +0.000 A 
ATOM     10  O   UNL     1       1.812   6.196  20.788  0.00  0.00    +0.000 OA
ATOM     11  H   UNL     1       0.558   8.646  20.556  0.00  0.00    +0.000 HD
ENDROOT
BRANCH   6  12
ATOM     12  C   UNL     1       0.344  11.058  19.300  0.00  0.00    +0.000 C 
ATOM     13  C   UNL     1       0.735  12.394  18.695  0.00  0.00    +0.000 C 
ATOM     14  C   UNL     1      -0.504  13.255  18.933  0.00  0.00    +0.000 C 
ATOM     15  C   UNL     1      -1.695  12.298  18.908  0.00  0.00    +0.000 C 
ATOM     16  C   UNL     1      -1.113  10.888  18.878  0.00  0.00    +0.000 C 
ENDBRANCH   6  12
BRANCH   1  17
ATOM     17  C   UNL     1       3.677   4.640  19.493  0.00  0.00    +0.000 C 
BRANCH  17  19
ATOM     18  C   UNL     1       3.569   2.555  18.015  0.00  0.00    +0.000 C 
ATOM     19  C   UNL     1       2.862   3.416  19.045  0.00  0.00    +0.000 C 
ENDBRANCH  17  19
ENDBRANCH   1  17
BRANCH   2  20
ATOM     20  O   UNL     1       4.724   5.730  17.247  0.00  0.00    +0.000 OA
BRANCH  20  21
ATOM     21  C   UNL     1       5.740   6.183  16.313  0.00  0.00    +0.000 C 
ATOM     22  C   UNL     1       5.664   5.214  15.141  0.00  0.00    +0.000 C 
ATOM     23  C   UNL     1       6.422   4.022  15.690  0.00  0.00    +0.000 C 
ATOM     24  O   UNL     1       7.507   4.567  16.450  0.00  0.00    +0.000 OA
ATOM     25  C   UNL     1       7.171   5.935  16.782  0.00  0.00    +0.000 C 
ENDBRANCH  20  21
ENDBRANCH   2  20
TORSDOF 5
ENDMDL
MODEL 9
REMARK VINA RESULT:      -6.9      2.454      3.323
REMARK  Name = 
REMARK  6 active torsions:
REMARK  status: ('A' for Active; 'I' for Inactive)
REMARK    1  A    between atoms: C_1  and  C_2
REMARK    2  A    between atoms: C_2  and  C_3
REMARK    3  A    between atoms: C_3  and  N_4
REMARK    4  A    between atoms: C_5  and  O_6
REMARK    5  A    between atoms: O_6  and  C_7
REMARK    6  A    between atoms: C_15  and  C_16
REMARK                            x       y       z     vdW  Elec       q    Type
REMARK                         _______ _______ _______ _____ _____    ______ ____
ROOT
ATOM      1  N   UNL     1       2.062   6.624  19.729  0.00  0.00    +0.000 N 
ATOM      2  C   UNL     1       2.547   6.659  18.410  0.00  0.00    +0.000 A 
ATOM      3  N   UNL     1       2.556   7.690  17.607  0.00  0.00    +0.000 NA
ATOM      4  C   UNL     1       2.047   8.873  18.188  0.00  0.00    +0.000 A 
ATOM      5  N   UNL     1       1.965  10.147  17.667  0.00  0.00    +0.000 NA
ATOM      6  C   UNL     1       1.461  10.897  18.641  0.00  0.00    +0.000 A 
ATOM      7  N   UNL     1       1.200  10.137  19.750  0.00  0.00    +0.000 N 
ATOM      8  C   UNL     1       1.596   8.878  19.467  0.00  0.00    +0.000 A 
ATOM      9  C   UNL     1       1.593   7.772  20.342  0.00  0.00    +0.000 A 
ATOM     10  O   UNL     1       1.231   7.871  21.509  0.00  0.00    +0.000 OA
ATOM     11  H   UNL     1       0.813  10.457  20.632  0.00  0.00    +0.000 HD
ENDROOT
BRANCH   6  12
ATOM     12  C   UNL     1       1.133  12.355  18.700  0.00  0.00    +0.000 C 
ATOM     13  C   UNL     1       0.887  12.939  20.078  0.00  0.00    +0.000 C 
ATOM     14  C   UNL     1       0.979  14.445  19.835  0.00  0.00    +0.000 C 
ATOM     15  C   UNL     1       1.964  14.626  18.680  0.00  0.00    +0.000 C 
ATOM     16  C   UNL     1       2.249  13.230  18.136  0.00  0.00    +0.000 C 
ENDBRANCH   6  12
BRANCH   1  17
ATOM     17  C   UNL     1       2.187   5.455  20.601  0.00  0.00    +0.000 C 
BRANCH  17  19
ATOM     18  C   UNL     1       1.386   3.076  21.095  0.00  0.00    +0.000 C 
ATOM     19  C   UNL     1       1.066   4.413  20.454  0.00  0.00    +0.000 C 
ENDBRANCH  17  19
ENDBRANCH   1  17
BRANCH   2  20
ATOM     20  O   UNL     1       3.042   5.449  18.032  0.00  0.00    +0.000 OA
BRANCH  20  21
ATOM     21  C   UNL     1       4.419   5.200  17.640  0.00  0.00    +0.000 C 
ATOM     22  C   UNL     1       4.492   3.705  17.367  0.00  0.00    +0.000 C 
ATOM     23  C   UNL     1       4.588   3.150  18.774  0.00  0.00    +0.000 C 
ATOM     24  O   UNL     1       5.423   4.062  19.496  0.00  0.00    +0.000 OA
ATOM     25  C   UNL     1       5.423   5.321  18.783  0.00  0.00    +0.000 C 
ENDBRANCH  20  21
ENDBRANCH   2  20
TORSDOF 5
ENDMDL
