MODEL 1
REMARK VINA RESULT:      -8.4      0.000      0.000
REMARK  Name = 
REMARK  8 active torsions:
REMARK  status: ('A' for Active; 'I' for Inactive)
REMARK    1  A    between atoms: C_2  and  O_3
REMARK    2  A    between atoms: C_2  and  C_4
REMARK    3  A    between atoms: C_8  and  N_9
REMARK    4  A    between atoms: N_9  and  C_10
REMARK    5  A    between atoms: C_10  and  C_11
REMARK    6  A    between atoms: C_14  and  C_15
REMARK    7  A    between atoms: C_15  and  N_16
REMARK    8  A    between atoms: N_16  and  C_17
REMARK                            x       y       z     vdW  Elec       q    Type
REMARK                         _______ _______ _______ _____ _____    ______ ____
ROOT
ATOM      1  C   UNL     1       7.673   7.786  17.891  0.00  0.00    +0.000 A 
ATOM      2  C   UNL     1       6.530   7.601  17.102  0.00  0.00    +0.000 A 
ATOM      3  C   UNL     1       5.866   6.372  17.100  0.00  0.00    +0.000 A 
ATOM      4  C   UNL     1       6.324   5.314  17.896  0.00  0.00    +0.000 A 
ATOM      5  C   UNL     1       7.478   5.497  18.670  0.00  0.00    +0.000 A 
ATOM      6  C   UNL     1       8.141   6.724  18.677  0.00  0.00    +0.000 A 
ENDROOT
BRANCH   1   7
ATOM      7  C   UNL     1       8.362   9.127  17.933  0.00  0.00    +0.000 C 
BRANCH   7   8
ATOM      8  N   UNL     1       8.967   9.310  19.244  0.00  0.00    +0.000 N 
ATOM      9  H   UNL     1       9.393   8.472  19.626  0.00  0.00    +0.000 HD
BRANCH   8  14
ATOM     10  C   UNL     1      11.018  12.414  18.970  0.00  0.00    +0.000 A 
ATOM     11  C   UNL     1      10.746  13.010  20.205  0.00  0.00    +0.000 A 
ATOM     12  C   UNL     1       9.938  12.341  21.122  0.00  0.00    +0.000 A 
ATOM     13  C   UNL     1       9.394  11.095  20.797  0.00  0.00    +0.000 A 
ATOM     14  C   UNL     1       9.641  10.488  19.557  0.00  0.00    +0.000 A 
ATOM     15  C   UNL     1      10.441  11.181  18.643  0.00  0.00    +0.000 A 
BRANCH  10  17
ATOM     16  O   UNL     1      12.187  14.241  17.993  0.00  0.00    +0.000 OA
ATOM     17  C   UNL     1      11.876  13.063  17.949  0.00  0.00    +0.000 C 
BRANCH  17  18
ATOM     18  O   UNL     1      12.223  12.244  16.936  0.00  0.00    +0.000 OA
ATOM     19  H   UNL     1      11.484  11.740  16.547  0.00  0.00    +0.000 HD
ENDBRANCH  17  18
ENDBRANCH  10  17
ENDBRANCH   8  14
ENDBRANCH   7   8
ENDBRANCH   1   7
BRANCH   4  20
ATOM     20  C   UNL     1       5.614   3.980  17.886  0.00  0.00    +0.000 C 
BRANCH  20  21
ATOM     21  N   UNL     1       5.178   3.669  19.241  0.00  0.00    +0.000 N 
ATOM     22  H   UNL     1       5.675   2.867  19.618  0.00  0.00    +0.000 HD
BRANCH  21  23
ATOM     23  C   UNL     1       3.805   3.604  19.511  0.00  0.00    +0.000 A 
ATOM     24  C   UNL     1       3.123   2.414  19.215  0.00  0.00    +0.000 A 
ATOM     25  C   UNL     1       1.767   2.257  19.517  0.00  0.00    +0.000 A 
ATOM     26  C   UNL     1       1.077   3.278  20.159  0.00  0.00    +0.000 A 
ATOM     27  C   UNL     1       1.745   4.449  20.503  0.00  0.00    +0.000 A 
ATOM     28  C   UNL     1       3.101   4.607  20.188  0.00  0.00    +0.000 A 
ENDBRANCH  21  23
ENDBRANCH  20  21
ENDBRANCH   4  20
TORSDOF 8
ENDMDL
MODEL 2
REMARK VINA RESULT:      -8.3      0.692      1.592
REMARK  Name = 
REMARK  8 active torsions:
REMARK  status: ('A' for Active; 'I' for Inactive)
REMARK    1  A    between atoms: C_2  and  O_3
REMARK    2  A    between atoms: C_2  and  C_4
REMARK    3  A    between atoms: C_8  and  N_9
REMARK    4  A    between atoms: N_9  and  C_10
REMARK    5  A    between atoms: C_10  and  C_11
REMARK    6  A    between atoms: C_14  and  C_15
REMARK    7  A    between atoms: C_15  and  N_16
REMARK    8  A    between atoms: N_16  and  C_17
REMARK                            x       y       z     vdW  Elec       q    Type
REMARK                         _______ _______ _______ _____ _____    ______ ____
ROOT
ATOM      1  C   UNL     1       7.432   7.577  17.817  0.00  0.00    +0.000 A 
ATOM      2  C   UNL     1       7.917   6.537  18.620  0.00  0.00    +0.000 A 
ATOM      3  C   UNL     1       7.257   5.306  18.655  0.00  0.00    +0.000 A 
ATOM      4  C   UNL     1       6.111   5.091  17.878  0.00  0.00    +0.000 A 
ATOM      5  C   UNL     1       5.617   6.140  17.091  0.00  0.00    +0.000 A 
ATOM      6  C   UNL     1       6.277   7.368  17.051  0.00  0.00    +0.000 A 
ENDROOT
BRANCH   1   7
ATOM      7  C   UNL     1       8.171   8.889  17.739  0.00  0.00    +0.000 C 
BRANCH   7   8
ATOM      8  N   UNL     1       8.786   9.166  19.029  0.00  0.00    +0.000 N 
ATOM      9  H   UNL     1       9.222   8.359  19.463  0.00  0.00    +0.000 HD
BRANCH   8  14
ATOM     10  C   UNL     1      10.412  12.483  18.509  0.00  0.00    +0.000 A 
ATOM     11  C   UNL     1      10.560  12.905  19.832  0.00  0.00    +0.000 A 
ATOM     12  C   UNL     1      10.172  12.057  20.867  0.00  0.00    +0.000 A 
ATOM     13  C   UNL     1       9.625  10.803  20.576  0.00  0.00    +0.000 A 
ATOM     14  C   UNL     1       9.453  10.367  19.254  0.00  0.00    +0.000 A 
ATOM     15  C   UNL     1       9.833  11.239  18.229  0.00  0.00    +0.000 A 
BRANCH  10  17
ATOM     16  O   UNL     1      11.864  13.183  16.759  0.00  0.00    +0.000 OA
ATOM     17  C   UNL     1      10.812  13.328  17.358  0.00  0.00    +0.000 C 
BRANCH  17  18
ATOM     18  O   UNL     1       9.933  14.313  17.081  0.00  0.00    +0.000 OA
ATOM     19  H   UNL     1       9.028  14.157  17.408  0.00  0.00    +0.000 HD
ENDBRANCH  17  18
ENDBRANCH  10  17
ENDBRANCH   8  14
ENDBRANCH   7   8
ENDBRANCH   1   7
BRANCH   4  20
ATOM     20  C   UNL     1       5.389   3.764  17.924  0.00  0.00    +0.000 C 
BRANCH  20  21
ATOM     21  N   UNL     1       4.977   3.501  19.298  0.00  0.00    +0.000 N 
ATOM     22  H   UNL     1       5.523   2.752  19.714  0.00  0.00    +0.000 HD
BRANCH  21  23
ATOM     23  C   UNL     1       3.612   3.368  19.580  0.00  0.00    +0.000 A 
ATOM     24  C   UNL     1       2.986   4.369  20.337  0.00  0.00    +0.000 A 
ATOM     25  C   UNL     1       1.614   4.333  20.601  0.00  0.00    +0.000 A 
ATOM     26  C   UNL     1       0.833   3.311  20.076  0.00  0.00    +0.000 A 
ATOM     27  C   UNL     1       1.425   2.331  19.284  0.00  0.00    +0.000 A 
ATOM     28  C   UNL     1       2.803   2.365  19.031  0.00  0.00    +0.000 A 
ENDBRANCH  21  23
ENDBRANCH  20  21
ENDBRANCH   4  20
TORSDOF 8
ENDMDL
MODEL 3
REMARK VINA RESULT:      -8.1      3.409      9.147
REMARK  Name = 
REMARK  8 active torsions:
REMARK  status: ('A' for Active; 'I' for Inactive)
REMARK    1  A    between atoms: C_2  and  O_3
REMARK    2  A    between atoms: C_2  and  C_4
REMARK    3  A    between atoms: C_8  and  N_9
REMARK    4  A    between atoms: N_9  and  C_10
REMARK    5  A    between atoms: C_10  and  C_11
REMARK    6  A    between atoms: C_14  and  C_15
REMARK    7  A    between atoms: C_15  and  N_16
REMARK    8  A    between atoms: N_16  and  C_17
REMARK                            x       y       z     vdW  Elec       q    Type
REMARK                         _______ _______ _______ _____ _____    ______ ____
ROOT
ATOM      1  C   UNL     1       6.258   5.248  17.787  0.00  0.00    +0.000 A 
ATOM      2  C   UNL     1       5.841   6.297  16.958  0.00  0.00    +0.000 A 
ATOM      3  C   UNL     1       6.502   7.527  16.987  0.00  0.00    +0.000 A 
ATOM      4  C   UNL     1       7.601   7.724  17.836  0.00  0.00    +0.000 A 
ATOM      5  C   UNL     1       8.004   6.679  18.678  0.00  0.00    +0.000 A 
ATOM      6  C   UNL     1       7.347   5.449  18.647  0.00  0.00    +0.000 A 
ENDROOT
BRANCH   1   7
ATOM      7  C   UNL     1       5.577   3.905  17.719  0.00  0.00    +0.000 C 
BRANCH   7   8
ATOM      8  N   UNL     1       5.192   3.498  19.063  0.00  0.00    +0.000 N 
ATOM      9  H   UNL     1       5.966   3.439  19.716  0.00  0.00    +0.000 HD
BRANCH   8  14
ATOM     10  C   UNL     1       2.353   5.679  20.111  0.00  0.00    +0.000 A 
ATOM     11  C   UNL     1       1.441   4.718  20.553  0.00  0.00    +0.000 A 
ATOM     12  C   UNL     1       1.810   3.374  20.548  0.00  0.00    +0.000 A 
ATOM     13  C   UNL     1       3.076   2.998  20.089  0.00  0.00    +0.000 A 
ATOM     14  C   UNL     1       4.000   3.946  19.626  0.00  0.00    +0.000 A 
ATOM     15  C   UNL     1       3.606   5.288  19.623  0.00  0.00    +0.000 A 
BRANCH  10  17
ATOM     16  O   UNL     1       2.161   7.828  19.106  0.00  0.00    +0.000 OA
ATOM     17  C   UNL     1       2.033   7.128  20.097  0.00  0.00    +0.000 C 
BRANCH  17  18
ATOM     18  O   UNL     1       1.652   7.608  21.297  0.00  0.00    +0.000 OA
ATOM     19  H   UNL     1       1.706   6.967  22.030  0.00  0.00    +0.000 HD
ENDBRANCH  17  18
ENDBRANCH  10  17
ENDBRANCH   8  14
ENDBRANCH   7   8
ENDBRANCH   1   7
BRANCH   4  20
ATOM     20  C   UNL     1       8.310   9.058  17.878  0.00  0.00    +0.000 C 
BRANCH  20  21
ATOM     21  N   UNL     1       8.948   9.209  19.180  0.00  0.00    +0.000 N 
ATOM     22  H   UNL     1       8.351   8.872  19.929  0.00  0.00    +0.000 HD
BRANCH  21  23
ATOM     23  C   UNL     1       9.543  10.435  19.501  0.00  0.00    +0.000 A 
ATOM     24  C   UNL     1      10.170  11.161  18.478  0.00  0.00    +0.000 A 
ATOM     25  C   UNL     1      10.727  12.421  18.714  0.00  0.00    +0.000 A 
ATOM     26  C   UNL     1      10.632  12.997  19.975  0.00  0.00    +0.000 A 
ATOM     27  C   UNL     1       9.974  12.314  20.994  0.00  0.00    +0.000 A 
ATOM     28  C   UNL     1       9.427  11.047  20.756  0.00  0.00    +0.000 A 
ENDBRANCH  21  23
ENDBRANCH  20  21
ENDBRANCH   4  20
TORSDOF 8
ENDMDL
MODEL 4
REMARK VINA RESULT:      -8.0      5.481      7.996
REMARK  Name = 
REMARK  8 active torsions:
REMARK  status: ('A' for Active; 'I' for Inactive)
REMARK    1  A    between atoms: C_2  and  O_3
REMARK    2  A    between atoms: C_2  and  C_4
REMARK    3  A    between atoms: C_8  and  N_9
REMARK    4  A    between atoms: N_9  and  C_10
REMARK    5  A    between atoms: C_10  and  C_11
REMARK    6  A    between atoms: C_14  and  C_15
REMARK    7  A    between atoms: C_15  and  N_16
REMARK    8  A    between atoms: N_16  and  C_17
REMARK                            x       y       z     vdW  Elec       q    Type
REMARK                         _______ _______ _______ _____ _____    ______ ____
ROOT
ATOM      1  C   UNL     1       2.319   6.817  19.296  0.00  0.00    +0.000 A 
ATOM      2  C   UNL     1       2.252   7.609  18.143  0.00  0.00    +0.000 A 
ATOM      3  C   UNL     1       1.689   8.887  18.195  0.00  0.00    +0.000 A 
ATOM      4  C   UNL     1       1.197   9.397  19.405  0.00  0.00    +0.000 A 
ATOM      5  C   UNL     1       1.248   8.595  20.552  0.00  0.00    +0.000 A 
ATOM      6  C   UNL     1       1.813   7.321  20.502  0.00  0.00    +0.000 A 
ENDROOT
BRANCH   1   7
ATOM      7  C   UNL     1       2.971   5.458  19.251  0.00  0.00    +0.000 C 
BRANCH   7   8
ATOM      8  N   UNL     1       3.234   5.101  17.865  0.00  0.00    +0.000 N 
ATOM      9  H   UNL     1       2.500   5.376  17.219  0.00  0.00    +0.000 HD
BRANCH   8  14
ATOM     10  C   UNL     1       6.785   6.096  17.304  0.00  0.00    +0.000 A 
ATOM     11  C   UNL     1       7.187   5.109  16.401  0.00  0.00    +0.000 A 
ATOM     12  C   UNL     1       6.257   4.173  15.953  0.00  0.00    +0.000 A 
ATOM     13  C   UNL     1       4.940   4.217  16.421  0.00  0.00    +0.000 A 
ATOM     14  C   UNL     1       4.520   5.189  17.340  0.00  0.00    +0.000 A 
ATOM     15  C   UNL     1       5.472   6.110  17.790  0.00  0.00    +0.000 A 
BRANCH  10  17
ATOM     16  O   UNL     1       7.939   8.175  17.229  0.00  0.00    +0.000 OA
ATOM     17  C   UNL     1       7.718   7.129  17.816  0.00  0.00    +0.000 C 
BRANCH  17  18
ATOM     18  O   UNL     1       8.347   6.772  18.954  0.00  0.00    +0.000 OA
ATOM     19  H   UNL     1       8.126   5.881  19.281  0.00  0.00    +0.000 HD
ENDBRANCH  17  18
ENDBRANCH  10  17
ENDBRANCH   8  14
ENDBRANCH   7   8
ENDBRANCH   1   7
BRANCH   4  20
ATOM     20  C   UNL     1       0.577  10.774  19.461  0.00  0.00    +0.000 C 
BRANCH  20  21
ATOM     21  N   UNL     1      -0.002  11.083  18.159  0.00  0.00    +0.000 N 
ATOM     22  H   UNL     1       0.381  11.942  17.775  0.00  0.00    +0.000 HD
BRANCH  21  23
ATOM     23  C   UNL     1      -1.393  11.019  18.006  0.00  0.00    +0.000 A 
ATOM     24  C   UNL     1      -1.933   9.970  17.248  0.00  0.00    +0.000 A 
ATOM     25  C   UNL     1      -3.315   9.809  17.108  0.00  0.00    +0.000 A 
ATOM     26  C   UNL     1      -4.184  10.674  17.760  0.00  0.00    +0.000 A 
ATOM     27  C   UNL     1      -3.670  11.695  18.555  0.00  0.00    +0.000 A 
ATOM     28  C   UNL     1      -2.285  11.860  18.683  0.00  0.00    +0.000 A 
ENDBRANCH  21  23
ENDBRANCH  20  21
ENDBRANCH   4  20
TORSDOF 8
ENDMDL
MODEL 5
REMARK VINA RESULT:      -8.0      4.628      7.738
REMARK  Name = 
REMARK  8 active torsions:
REMARK  status: ('A' for Active; 'I' for Inactive)
REMARK    1  A    between atoms: C_2  and  O_3
REMARK    2  A    between atoms: C_2  and  C_4
REMARK    3  A    between atoms: C_8  and  N_9
REMARK    4  A    between atoms: N_9  and  C_10
REMARK    5  A    between atoms: C_10  and  C_11
REMARK    6  A    between atoms: C_14  and  C_15
REMARK    7  A    between atoms: C_15  and  N_16
REMARK    8  A    between atoms: N_16  and  C_17
REMARK                            x       y       z     vdW  Elec       q    Type
REMARK                         _______ _______ _______ _____ _____    ______ ____
ROOT
ATOM      1  C   UNL     1       2.442   4.503  18.524  0.00  0.00    +0.000 A 
ATOM      2  C   UNL     1       2.497   5.766  17.921  0.00  0.00    +0.000 A 
ATOM      3  C   UNL     1       2.277   6.920  18.676  0.00  0.00    +0.000 A 
ATOM      4  C   UNL     1       2.012   6.830  20.050  0.00  0.00    +0.000 A 
ATOM      5  C   UNL     1       1.938   5.564  20.646  0.00  0.00    +0.000 A 
ATOM      6  C   UNL     1       2.162   4.411  19.894  0.00  0.00    +0.000 A 
ENDROOT
BRANCH   1   7
ATOM      7  C   UNL     1       2.730   3.260  17.720  0.00  0.00    +0.000 C 
BRANCH   7   8
ATOM      8  N   UNL     1       4.135   2.913  17.865  0.00  0.00    +0.000 N 
ATOM      9  H   UNL     1       4.345   1.939  17.668  0.00  0.00    +0.000 HD
BRANCH   8  14
ATOM     10  C   UNL     1       6.977   5.328  17.944  0.00  0.00    +0.000 A 
ATOM     11  C   UNL     1       7.306   5.381  16.587  0.00  0.00    +0.000 A 
ATOM     12  C   UNL     1       6.541   4.661  15.671  0.00  0.00    +0.000 A 
ATOM     13  C   UNL     1       5.467   3.883  16.115  0.00  0.00    +0.000 A 
ATOM     14  C   UNL     1       5.131   3.804  17.474  0.00  0.00    +0.000 A 
ATOM     15  C   UNL     1       5.920   4.520  18.380  0.00  0.00    +0.000 A 
BRANCH  10  17
ATOM     16  O   UNL     1       8.322   7.121  18.742  0.00  0.00    +0.000 OA
ATOM     17  C   UNL     1       7.740   6.074  18.974  0.00  0.00    +0.000 C 
BRANCH  17  18
ATOM     18  O   UNL     1       7.785   5.452  20.169  0.00  0.00    +0.000 OA
ATOM     19  H   UNL     1       8.668   5.127  20.427  0.00  0.00    +0.000 HD
ENDBRANCH  17  18
ENDBRANCH  10  17
ENDBRANCH   8  14
ENDBRANCH   7   8
ENDBRANCH   1   7
BRANCH   4  20
ATOM     20  C   UNL     1       1.761   8.076  20.867  0.00  0.00    +0.000 C 
BRANCH  20  21
ATOM     21  N   UNL     1       0.362   8.096  21.275  0.00  0.00    +0.000 N 
ATOM     22  H   UNL     1      -0.208   7.500  20.682  0.00  0.00    +0.000 HD
BRANCH  21  23
ATOM     23  C   UNL     1      -0.253   9.331  21.516  0.00  0.00    +0.000 A 
ATOM     24  C   UNL     1      -0.582   9.666  22.838  0.00  0.00    +0.000 A 
ATOM     25  C   UNL     1      -1.138  10.908  23.159  0.00  0.00    +0.000 A 
ATOM     26  C   UNL     1      -1.339  11.856  22.163  0.00  0.00    +0.000 A 
ATOM     27  C   UNL     1      -0.979  11.562  20.851  0.00  0.00    +0.000 A 
ATOM     28  C   UNL     1      -0.432  10.312  20.532  0.00  0.00    +0.000 A 
ENDBRANCH  21  23
ENDBRANCH  20  21
ENDBRANCH   4  20
TORSDOF 8
ENDMDL
MODEL 6
REMARK VINA RESULT:      -8.0      4.363      9.646
REMARK  Name = 
REMARK  8 active torsions:
REMARK  status: ('A' for Active; 'I' for Inactive)
REMARK    1  A    between atoms: C_2  and  O_3
REMARK    2  A    between atoms: C_2  and  C_4
REMARK    3  A    between atoms: C_8  and  N_9
REMARK    4  A    between atoms: N_9  and  C_10
REMARK    5  A    between atoms: C_10  and  C_11
REMARK    6  A    between atoms: C_14  and  C_15
REMARK    7  A    between atoms: C_15  and  N_16
REMARK    8  A    between atoms: N_16  and  C_17
REMARK                            x       y       z     vdW  Elec       q    Type
REMARK                         _______ _______ _______ _____ _____    ______ ____
ROOT
ATOM      1  C   UNL     1       6.605   5.754  17.817  0.00  0.00    +0.000 A 
ATOM      2  C   UNL     1       6.273   6.824  16.975  0.00  0.00    +0.000 A 
ATOM      3  C   UNL     1       6.946   8.043  17.084  0.00  0.00    +0.000 A 
ATOM      4  C   UNL     1       7.970   8.208  18.027  0.00  0.00    +0.000 A 
ATOM      5  C   UNL     1       8.286   7.142  18.880  0.00  0.00    +0.000 A 
ATOM      6  C   UNL     1       7.618   5.923  18.770  0.00  0.00    +0.000 A 
ENDROOT
BRANCH   1   7
ATOM      7  C   UNL     1       5.914   4.422  17.666  0.00  0.00    +0.000 C 
BRANCH   7   8
ATOM      8  N   UNL     1       4.512   4.646  17.346  0.00  0.00    +0.000 N 
ATOM      9  H   UNL     1       4.149   4.034  16.622  0.00  0.00    +0.000 HD
BRANCH   8  14
ATOM     10  C   UNL     1       2.295   4.409  20.336  0.00  0.00    +0.000 A 
ATOM     11  C   UNL     1       1.945   5.751  20.502  0.00  0.00    +0.000 A 
ATOM     12  C   UNL     1       2.404   6.695  19.584  0.00  0.00    +0.000 A 
ATOM     13  C   UNL     1       3.220   6.297  18.521  0.00  0.00    +0.000 A 
ATOM     14  C   UNL     1       3.596   4.957  18.346  0.00  0.00    +0.000 A 
ATOM     15  C   UNL     1       3.139   4.028  19.286  0.00  0.00    +0.000 A 
BRANCH  10  17
ATOM     16  O   UNL     1       2.501   2.962  22.214  0.00  0.00    +0.000 OA
ATOM     17  C   UNL     1       1.836   3.350  21.267  0.00  0.00    +0.000 C 
BRANCH  17  18
ATOM     18  O   UNL     1       0.648   2.810  20.928  0.00  0.00    +0.000 OA
ATOM     19  H   UNL     1       0.239   2.256  21.618  0.00  0.00    +0.000 HD
ENDBRANCH  17  18
ENDBRANCH  10  17
ENDBRANCH   8  14
ENDBRANCH   7   8
ENDBRANCH   1   7
BRANCH   4  20
ATOM     20  C   UNL     1       8.691   9.530  18.155  0.00  0.00    +0.000 C 
BRANCH  20  21
ATOM     21  N   UNL     1       9.278   9.618  19.486  0.00  0.00    +0.000 N 
ATOM     22  H   UNL     1       8.682   9.187  20.186  0.00  0.00    +0.000 HD
BRANCH  21  23
ATOM     23  C   UNL     1       9.782  10.851  19.921  0.00  0.00    +0.000 A 
ATOM     24  C   UNL     1      10.777  11.473  19.153  0.00  0.00    +0.000 A 
ATOM     25  C   UNL     1      11.278  12.733  19.492  0.00  0.00    +0.000 A 
ATOM     26  C   UNL     1      10.763  13.412  20.590  0.00  0.00    +0.000 A 
ATOM     27  C   UNL     1       9.744  12.833  21.340  0.00  0.00    +0.000 A 
ATOM     28  C   UNL     1       9.252  11.565  21.002  0.00  0.00    +0.000 A 
ENDBRANCH  21  23
ENDBRANCH  20  21
ENDBRANCH   4  20
TORSDOF 8
ENDMDL
MODEL 7
REMARK VINA RESULT:      -8.0      1.683      1.981
REMARK  Name = 
REMARK  8 active torsions:
REMARK  status: ('A' for Active; 'I' for Inactive)
REMARK    1  A    between atoms: C_2  and  O_3
REMARK    2  A    between atoms: C_2  and  C_4
REMARK    3  A    between atoms: C_8  and  N_9
REMARK    4  A    between atoms: N_9  and  C_10
REMARK    5  A    between atoms: C_10  and  C_11
REMARK    6  A    between atoms: C_14  and  C_15
REMARK    7  A    between atoms: C_15  and  N_16
REMARK    8  A    between atoms: N_16  and  C_17
REMARK                            x       y       z     vdW  Elec       q    Type
REMARK                         _______ _______ _______ _____ _____    ______ ____
ROOT
ATOM      1  C   UNL     1       7.693   7.004  17.989  0.00  0.00    +0.000 A 
ATOM      2  C   UNL     1       6.706   7.397  17.076  0.00  0.00    +0.000 A 
ATOM      3  C   UNL     1       5.870   6.446  16.486  0.00  0.00    +0.000 A 
ATOM      4  C   UNL     1       5.998   5.088  16.811  0.00  0.00    +0.000 A 
ATOM      5  C   UNL     1       6.999   4.696  17.710  0.00  0.00    +0.000 A 
ATOM      6  C   UNL     1       7.831   5.645  18.303  0.00  0.00    +0.000 A 
ENDROOT
BRANCH   1   7
ATOM      7  C   UNL     1       8.562   8.035  18.664  0.00  0.00    +0.000 C 
BRANCH   7   8
ATOM      8  N   UNL     1       8.326   9.333  18.050  0.00  0.00    +0.000 N 
ATOM      9  H   UNL     1       7.365   9.487  17.763  0.00  0.00    +0.000 HD
BRANCH   8  14
ATOM     10  C   UNL     1       9.398  12.873  18.528  0.00  0.00    +0.000 A 
ATOM     11  C   UNL     1      10.114  12.764  19.723  0.00  0.00    +0.000 A 
ATOM     12  C   UNL     1      10.275  11.511  20.311  0.00  0.00    +0.000 A 
ATOM     13  C   UNL     1       9.708  10.381  19.714  0.00  0.00    +0.000 A 
ATOM     14  C   UNL     1       8.972  10.471  18.524  0.00  0.00    +0.000 A 
ATOM     15  C   UNL     1       8.808  11.739  17.957  0.00  0.00    +0.000 A 
BRANCH  10  17
ATOM     16  O   UNL     1      10.083  14.997  17.703  0.00  0.00    +0.000 OA
ATOM     17  C   UNL     1       9.195  14.172  17.842  0.00  0.00    +0.000 C 
BRANCH  17  18
ATOM     18  O   UNL     1       7.923  14.381  17.446  0.00  0.00    +0.000 OA
ATOM     19  H   UNL     1       7.319  13.631  17.602  0.00  0.00    +0.000 HD
ENDBRANCH  17  18
ENDBRANCH  10  17
ENDBRANCH   8  14
ENDBRANCH   7   8
ENDBRANCH   1   7
BRANCH   4  20
ATOM     20  C   UNL     1       5.103   4.056  16.165  0.00  0.00    +0.000 C 
BRANCH  20  21
ATOM     21  N   UNL     1       4.845   2.991  17.125  0.00  0.00    +0.000 N 
ATOM     22  H   UNL     1       5.054   2.077  16.734  0.00  0.00    +0.000 HD
BRANCH  21  23
ATOM     23  C   UNL     1       3.631   2.991  17.824  0.00  0.00    +0.000 A 
ATOM     24  C   UNL     1       2.688   3.984  17.522  0.00  0.00    +0.000 A 
ATOM     25  C   UNL     1       1.431   4.006  18.133  0.00  0.00    +0.000 A 
ATOM     26  C   UNL     1       1.080   3.008  19.034  0.00  0.00    +0.000 A 
ATOM     27  C   UNL     1       1.984   1.988  19.316  0.00  0.00    +0.000 A 
ATOM     28  C   UNL     1       3.247   1.976  18.709  0.00  0.00    +0.000 A 
ENDBRANCH  21  23
ENDBRANCH  20  21
ENDBRANCH   4  20
TORSDOF 8
ENDMDL
MODEL 8
REMARK VINA RESULT:      -8.0      6.457      8.223
REMARK  Name = 
REMARK  8 active torsions:
REMARK  status: ('A' for Active; 'I' for Inactive)
REMARK    1  A    between atoms: C_2  and  O_3
REMARK    2  A    between atoms: C_2  and  C_4
REMARK    3  A    between atoms: C_8  and  N_9
REMARK    4  A    between atoms: N_9  and  C_10
REMARK    5  A    between atoms: C_10  and  C_11
REMARK    6  A    between atoms: C_14  and  C_15
REMARK    7  A    between atoms: C_15  and  N_16
REMARK    8  A    between atoms: N_16  and  C_17
REMARK                            x       y       z     vdW  Elec       q    Type
REMARK                         _______ _______ _______ _____ _____    ______ ____
ROOT
ATOM      1  C   UNL     1       5.730   4.589  17.429  0.00  0.00    +0.000 A 
ATOM      2  C   UNL     1       5.831   5.104  18.728  0.00  0.00    +0.000 A 
ATOM      3  C   UNL     1       4.681   5.351  19.481  0.00  0.00    +0.000 A 
ATOM      4  C   UNL     1       3.412   5.075  18.952  0.00  0.00    +0.000 A 
ATOM      5  C   UNL     1       3.314   4.578  17.646  0.00  0.00    +0.000 A 
ATOM      6  C   UNL     1       4.462   4.326  16.895  0.00  0.00    +0.000 A 
ENDROOT
BRANCH   1   7
ATOM      7  C   UNL     1       6.973   4.274  16.635  0.00  0.00    +0.000 C 
BRANCH   7   8
ATOM      8  N   UNL     1       7.145   5.284  15.601  0.00  0.00    +0.000 N 
ATOM      9  H   UNL     1       7.785   6.031  15.853  0.00  0.00    +0.000 HD
BRANCH   8  14
ATOM     10  C   UNL     1       6.327   3.734  12.309  0.00  0.00    +0.000 A 
ATOM     11  C   UNL     1       7.168   4.464  11.466  0.00  0.00    +0.000 A 
ATOM     12  C   UNL     1       8.030   5.411  12.016  0.00  0.00    +0.000 A 
ATOM     13  C   UNL     1       8.034   5.635  13.396  0.00  0.00    +0.000 A 
ATOM     14  C   UNL     1       7.186   4.925  14.257  0.00  0.00    +0.000 A 
ATOM     15  C   UNL     1       6.317   3.990  13.685  0.00  0.00    +0.000 A 
BRANCH  10  17
ATOM     16  O   UNL     1       4.233   2.946  11.497  0.00  0.00    +0.000 OA
ATOM     17  C   UNL     1       5.391   2.704  11.795  0.00  0.00    +0.000 C 
BRANCH  17  18
ATOM     18  O   UNL     1       5.922   1.465  11.754  0.00  0.00    +0.000 OA
ATOM     19  H   UNL     1       6.028   1.096  10.858  0.00  0.00    +0.000 HD
ENDBRANCH  17  18
ENDBRANCH  10  17
ENDBRANCH   8  14
ENDBRANCH   7   8
ENDBRANCH   1   7
BRANCH   4  20
ATOM     20  C   UNL     1       2.165   5.353  19.761  0.00  0.00    +0.000 C 
BRANCH  20  21
ATOM     21  N   UNL     1       2.318   6.639  20.430  0.00  0.00    +0.000 N 
ATOM     22  H   UNL     1       2.000   6.598  21.394  0.00  0.00    +0.000 HD
BRANCH  21  23
ATOM     23  C   UNL     1       1.864   7.795  19.783  0.00  0.00    +0.000 A 
ATOM     24  C   UNL     1       1.146   8.740  20.529  0.00  0.00    +0.000 A 
ATOM     25  C   UNL     1       0.720   9.945  19.964  0.00  0.00    +0.000 A 
ATOM     26  C   UNL     1       1.041  10.245  18.645  0.00  0.00    +0.000 A 
ATOM     27  C   UNL     1       1.792   9.341  17.899  0.00  0.00    +0.000 A 
ATOM     28  C   UNL     1       2.207   8.130  18.467  0.00  0.00    +0.000 A 
ENDBRANCH  21  23
ENDBRANCH  20  21
ENDBRANCH   4  20
TORSDOF 8
ENDMDL
MODEL 9
REMARK VINA RESULT:      -8.0      1.760      2.255
REMARK  Name = 
REMARK  8 active torsions:
REMARK  status: ('A' for Active; 'I' for Inactive)
REMARK    1  A    between atoms: C_2  and  O_3
REMARK    2  A    between atoms: C_2  and  C_4
REMARK    3  A    between atoms: C_8  and  N_9
REMARK    4  A    between atoms: N_9  and  C_10
REMARK    5  A    between atoms: C_10  and  C_11
REMARK    6  A    between atoms: C_14  and  C_15
REMARK    7  A    between atoms: C_15  and  N_16
REMARK    8  A    between atoms: N_16  and  C_17
REMARK                            x       y       z     vdW  Elec       q    Type
REMARK                         _______ _______ _______ _____ _____    ______ ____
ROOT
ATOM      1  C   UNL     1       7.245   6.753  17.995  0.00  0.00    +0.000 A 
ATOM      2  C   UNL     1       6.291   7.004  17.000  0.00  0.00    +0.000 A 
ATOM      3  C   UNL     1       5.328   6.043  16.686  0.00  0.00    +0.000 A 
ATOM      4  C   UNL     1       5.293   4.821  17.372  0.00  0.00    +0.000 A 
ATOM      5  C   UNL     1       6.260   4.565  18.353  0.00  0.00    +0.000 A 
ATOM      6  C   UNL     1       7.221   5.525  18.670  0.00  0.00    +0.000 A 
ENDROOT
BRANCH   1   7
ATOM      7  C   UNL     1       8.254   7.810  18.369  0.00  0.00    +0.000 C 
BRANCH   7   8
ATOM      8  N   UNL     1       8.007   9.005  17.576  0.00  0.00    +0.000 N 
ATOM      9  H   UNL     1       7.112   9.009  17.098  0.00  0.00    +0.000 HD
BRANCH   8  14
ATOM     10  C   UNL     1       9.815  11.704  19.409  0.00  0.00    +0.000 A 
ATOM     11  C   UNL     1       9.393  12.827  18.693  0.00  0.00    +0.000 A 
ATOM     12  C   UNL     1       8.473  12.670  17.658  0.00  0.00    +0.000 A 
ATOM     13  C   UNL     1       7.995  11.397  17.334  0.00  0.00    +0.000 A 
ATOM     14  C   UNL     1       8.419  10.255  18.030  0.00  0.00    +0.000 A 
ATOM     15  C   UNL     1       9.355  10.431  19.055  0.00  0.00    +0.000 A 
BRANCH  10  17
ATOM     16  O   UNL     1      11.988  11.678  20.378  0.00  0.00    +0.000 OA
ATOM     17  C   UNL     1      10.784  11.797  20.529  0.00  0.00    +0.000 C 
BRANCH  17  18
ATOM     18  O   UNL     1      10.202  11.957  21.734  0.00  0.00    +0.000 OA
ATOM     19  H   UNL     1      10.100  12.884  22.019  0.00  0.00    +0.000 HD
ENDBRANCH  17  18
ENDBRANCH  10  17
ENDBRANCH   8  14
ENDBRANCH   7   8
ENDBRANCH   1   7
BRANCH   4  20
ATOM     20  C   UNL     1       4.259   3.774  17.025  0.00  0.00    +0.000 C 
BRANCH  20  21
ATOM     21  N   UNL     1       4.247   2.761  18.073  0.00  0.00    +0.000 N 
ATOM     22  H   UNL     1       4.411   1.832  17.696  0.00  0.00    +0.000 HD
BRANCH  21  23
ATOM     23  C   UNL     1       3.202   2.766  19.005  0.00  0.00    +0.000 A 
ATOM     24  C   UNL     1       3.522   2.682  20.368  0.00  0.00    +0.000 A 
ATOM     25  C   UNL     1       2.533   2.746  21.354  0.00  0.00    +0.000 A 
ATOM     26  C   UNL     1       1.205   2.937  20.994  0.00  0.00    +0.000 A 
ATOM     27  C   UNL     1       0.870   3.069  19.650  0.00  0.00    +0.000 A 
ATOM     28  C   UNL     1       1.862   2.992  18.663  0.00  0.00    +0.000 A 
ENDBRANCH  21  23
ENDBRANCH  20  21
ENDBRANCH   4  20
TORSDOF 8
ENDMDL
