MODEL 1
REMARK VINA RESULT:      -7.7      0.000      0.000
REMARK  Name = 
REMARK  5 active torsions:
REMARK  status: ('A' for Active; 'I' for Inactive)
REMARK    1  A    between atoms: C_2  and  C_3
REMARK    2  A    between atoms: C_3  and  C_4
REMARK    3  A    between atoms: C_4  and  C_5
REMARK    4  A    between atoms: N_11  and  C_12
REMARK    5  A    between atoms: C_12  and  C_13
REMARK                            x       y       z     vdW  Elec       q    Type
REMARK                         _______ _______ _______ _____ _____    ______ ____
ROOT
ATOM      1  O   UNL     1       6.724   5.138  19.746  0.00  0.00    +0.000 OA
ATOM      2  C   UNL     1       6.411   4.813  18.608  0.00  0.00    +0.000 C 
ATOM      3  N   UNL     1       5.113   4.579  18.222  0.00  0.00    +0.000 N 
ATOM      4  H   UNL     1       4.924   4.604  17.229  0.00  0.00    +0.000 HD
ENDROOT
BRANCH   2   5
ATOM      5  C   UNL     1       7.432   4.694  17.500  0.00  0.00    +0.000 C 
BRANCH   5   6
ATOM      6  C   UNL     1       7.097   5.711  16.421  0.00  0.00    +0.000 C 
BRANCH   6   7
ATOM      7  C   UNL     1       6.896   5.066  15.084  0.00  0.00    +0.000 A 
ATOM      8  N   UNL     1       5.915   4.156  14.972  0.00  0.00    +0.000 NA
ATOM      9  C   UNL     1       5.725   3.629  13.749  0.00  0.00    +0.000 A 
ATOM     10  C   UNL     1       6.492   3.959  12.657  0.00  0.00    +0.000 A 
ATOM     11  C   UNL     1       7.498   4.870  12.888  0.00  0.00    +0.000 A 
ATOM     12  N   UNL     1       7.729   5.429  14.089  0.00  0.00    +0.000 NA
ENDBRANCH   6   7
ENDBRANCH   5   6
ENDBRANCH   2   5
BRANCH   3  13
ATOM     13  C   UNL     1       4.038   4.898  19.134  0.00  0.00    +0.000 C 
BRANCH  13  14
ATOM     14  C   UNL     1       3.019   3.779  19.431  0.00  0.00    +0.000 C 
ATOM     15  C   UNL     1       2.003   4.254  20.481  0.00  0.00    +0.000 C 
ATOM     16  C   UNL     1       0.730   3.439  20.297  0.00  0.00    +0.000 C 
ATOM     17  C   UNL     1       0.888   2.685  18.988  0.00  0.00    +0.000 C 
ATOM     18  C   UNL     1       2.130   3.277  18.296  0.00  0.00    +0.000 C 
ATOM     19  O   UNL     1       2.835   2.227  17.637  0.00  0.00    +0.000 OA
ATOM     20  C   UNL     1       3.596   1.536  18.630  0.00  0.00    +0.000 C 
ATOM     21  C   UNL     1       3.846   2.519  19.767  0.00  0.00    +0.000 C 
ENDBRANCH  13  14
ENDBRANCH   3  13
TORSDOF 5
ENDMDL
MODEL 2
REMARK VINA RESULT:      -7.6      0.367      1.108
REMARK  Name = 
REMARK  5 active torsions:
REMARK  status: ('A' for Active; 'I' for Inactive)
REMARK    1  A    between atoms: C_2  and  C_3
REMARK    2  A    between atoms: C_3  and  C_4
REMARK    3  A    between atoms: C_4  and  C_5
REMARK    4  A    between atoms: N_11  and  C_12
REMARK    5  A    between atoms: C_12  and  C_13
REMARK                            x       y       z     vdW  Elec       q    Type
REMARK                         _______ _______ _______ _____ _____    ______ ____
ROOT
ATOM      1  O   UNL     1       6.779   4.863  19.435  0.00  0.00    +0.000 OA
ATOM      2  C   UNL     1       6.333   4.709  18.304  0.00  0.00    +0.000 C 
ATOM      3  N   UNL     1       4.990   4.605  18.033  0.00  0.00    +0.000 N 
ATOM      4  H   UNL     1       4.706   4.772  17.077  0.00  0.00    +0.000 HD
ENDROOT
BRANCH   2   5
ATOM      5  C   UNL     1       7.229   4.680  17.087  0.00  0.00    +0.000 C 
BRANCH   5   6
ATOM      6  C   UNL     1       6.644   5.604  16.032  0.00  0.00    +0.000 C 
BRANCH   6   7
ATOM      7  C   UNL     1       6.737   5.017  14.657  0.00  0.00    +0.000 A 
ATOM      8  N   UNL     1       7.672   5.511  13.831  0.00  0.00    +0.000 NA
ATOM      9  C   UNL     1       7.766   4.932  12.619  0.00  0.00    +0.000 A 
ATOM     10  C   UNL     1       6.946   3.908  12.206  0.00  0.00    +0.000 A 
ATOM     11  C   UNL     1       5.993   3.504  13.113  0.00  0.00    +0.000 A 
ATOM     12  N   UNL     1       5.859   4.046  14.338  0.00  0.00    +0.000 NA
ENDBRANCH   6   7
ENDBRANCH   5   6
ENDBRANCH   2   5
BRANCH   3  13
ATOM     13  C   UNL     1       4.035   4.861  19.087  0.00  0.00    +0.000 C 
BRANCH  13  14
ATOM     14  C   UNL     1       3.012   3.748  19.389  0.00  0.00    +0.000 C 
ATOM     15  C   UNL     1       1.988   4.238  20.425  0.00  0.00    +0.000 C 
ATOM     16  C   UNL     1       0.714   3.423  20.239  0.00  0.00    +0.000 C 
ATOM     17  C   UNL     1       0.882   2.654  18.940  0.00  0.00    +0.000 C 
ATOM     18  C   UNL     1       2.130   3.235  18.253  0.00  0.00    +0.000 C 
ATOM     19  O   UNL     1       2.839   2.176  17.612  0.00  0.00    +0.000 OA
ATOM     20  C   UNL     1       3.591   1.495  18.619  0.00  0.00    +0.000 C 
ATOM     21  C   UNL     1       3.833   2.491  19.746  0.00  0.00    +0.000 C 
ENDBRANCH  13  14
ENDBRANCH   3  13
TORSDOF 5
ENDMDL
MODEL 3
REMARK VINA RESULT:      -7.5      1.090      1.948
REMARK  Name = 
REMARK  5 active torsions:
REMARK  status: ('A' for Active; 'I' for Inactive)
REMARK    1  A    between atoms: C_2  and  C_3
REMARK    2  A    between atoms: C_3  and  C_4
REMARK    3  A    between atoms: C_4  and  C_5
REMARK    4  A    between atoms: N_11  and  C_12
REMARK    5  A    between atoms: C_12  and  C_13
REMARK                            x       y       z     vdW  Elec       q    Type
REMARK                         _______ _______ _______ _____ _____    ______ ____
ROOT
ATOM      1  O   UNL     1       7.021   5.486  20.111  0.00  0.00    +0.000 OA
ATOM      2  C   UNL     1       6.645   5.160  18.992  0.00  0.00    +0.000 C 
ATOM      3  N   UNL     1       5.327   4.937  18.676  0.00  0.00    +0.000 N 
ATOM      4  H   UNL     1       5.085   4.962  17.694  0.00  0.00    +0.000 HD
ENDROOT
BRANCH   2   5
ATOM      5  C   UNL     1       7.605   5.029  17.831  0.00  0.00    +0.000 C 
BRANCH   5   6
ATOM      6  C   UNL     1       7.172   5.987  16.734  0.00  0.00    +0.000 C 
BRANCH   6   7
ATOM      7  C   UNL     1       6.821   5.269  15.467  0.00  0.00    +0.000 A 
ATOM      8  N   UNL     1       7.655   5.402  14.424  0.00  0.00    +0.000 NA
ATOM      9  C   UNL     1       7.341   4.707  13.315  0.00  0.00    +0.000 A 
ATOM     10  C   UNL     1       6.221   3.916  13.211  0.00  0.00    +0.000 A 
ATOM     11  C   UNL     1       5.411   3.881  14.323  0.00  0.00    +0.000 A 
ATOM     12  N   UNL     1       5.679   4.553  15.457  0.00  0.00    +0.000 NA
ENDBRANCH   6   7
ENDBRANCH   5   6
ENDBRANCH   2   5
BRANCH   3  13
ATOM     13  C   UNL     1       4.304   5.268  19.643  0.00  0.00    +0.000 C 
BRANCH  13  14
ATOM     14  C   UNL     1       2.936   4.577  19.476  0.00  0.00    +0.000 C 
ATOM     15  C   UNL     1       2.291   4.997  18.145  0.00  0.00    +0.000 C 
ATOM     16  C   UNL     1       1.323   3.896  17.731  0.00  0.00    +0.000 C 
ATOM     17  C   UNL     1       1.590   2.720  18.655  0.00  0.00    +0.000 C 
ATOM     18  C   UNL     1       2.887   3.052  19.413  0.00  0.00    +0.000 C 
ATOM     19  O   UNL     1       2.773   2.577  20.753  0.00  0.00    +0.000 OA
ATOM     20  C   UNL     1       1.991   3.528  21.478  0.00  0.00    +0.000 C 
ATOM     21  C   UNL     1       2.144   4.867  20.768  0.00  0.00    +0.000 C 
ENDBRANCH  13  14
ENDBRANCH   3  13
TORSDOF 5
ENDMDL
MODEL 4
REMARK VINA RESULT:      -7.4      1.025      1.634
REMARK  Name = 
REMARK  5 active torsions:
REMARK  status: ('A' for Active; 'I' for Inactive)
REMARK    1  A    between atoms: C_2  and  C_3
REMARK    2  A    between atoms: C_3  and  C_4
REMARK    3  A    between atoms: C_4  and  C_5
REMARK    4  A    between atoms: N_11  and  C_12
REMARK    5  A    between atoms: C_12  and  C_13
REMARK                            x       y       z     vdW  Elec       q    Type
REMARK                         _______ _______ _______ _____ _____    ______ ____
ROOT
ATOM      1  O   UNL     1       7.126   5.212  19.351  0.00  0.00    +0.000 OA
ATOM      2  C   UNL     1       6.671   4.561  18.420  0.00  0.00    +0.000 C 
ATOM      3  N   UNL     1       5.541   3.786  18.525  0.00  0.00    +0.000 N 
ATOM      4  H   UNL     1       5.086   3.528  17.659  0.00  0.00    +0.000 HD
ENDROOT
BRANCH   2   5
ATOM      5  C   UNL     1       7.287   4.598  17.040  0.00  0.00    +0.000 C 
BRANCH   5   6
ATOM      6  C   UNL     1       6.288   5.221  16.080  0.00  0.00    +0.000 C 
BRANCH   6   7
ATOM      7  C   UNL     1       6.576   4.859  14.655  0.00  0.00    +0.000 A 
ATOM      8  N   UNL     1       7.595   5.485  14.047  0.00  0.00    +0.000 NA
ATOM      9  C   UNL     1       7.862   5.104  12.784  0.00  0.00    +0.000 A 
ATOM     10  C   UNL     1       7.134   4.151  12.112  0.00  0.00    +0.000 A 
ATOM     11  C   UNL     1       6.085   3.600  12.811  0.00  0.00    +0.000 A 
ATOM     12  N   UNL     1       5.776   3.941  14.076  0.00  0.00    +0.000 NA
ENDBRANCH   6   7
ENDBRANCH   5   6
ENDBRANCH   2   5
BRANCH   3  13
ATOM     13  C   UNL     1       4.739   3.867  19.724  0.00  0.00    +0.000 C 
BRANCH  13  14
ATOM     14  C   UNL     1       3.276   3.391  19.619  0.00  0.00    +0.000 C 
ATOM     15  C   UNL     1       2.847   2.708  20.928  0.00  0.00    +0.000 C 
ATOM     16  C   UNL     1       1.332   2.817  21.032  0.00  0.00    +0.000 C 
ATOM     17  C   UNL     1       0.894   3.784  19.946  0.00  0.00    +0.000 C 
ATOM     18  C   UNL     1       2.180   4.431  19.400  0.00  0.00    +0.000 C 
ATOM     19  O   UNL     1       2.043   4.613  17.992  0.00  0.00    +0.000 OA
ATOM     20  C   UNL     1       2.299   3.351  17.372  0.00  0.00    +0.000 C 
ATOM     21  C   UNL     1       3.185   2.556  18.324  0.00  0.00    +0.000 C 
ENDBRANCH  13  14
ENDBRANCH   3  13
TORSDOF 5
ENDMDL
MODEL 5
REMARK VINA RESULT:      -7.4      1.223      1.669
REMARK  Name = 
REMARK  5 active torsions:
REMARK  status: ('A' for Active; 'I' for Inactive)
REMARK    1  A    between atoms: C_2  and  C_3
REMARK    2  A    between atoms: C_3  and  C_4
REMARK    3  A    between atoms: C_4  and  C_5
REMARK    4  A    between atoms: N_11  and  C_12
REMARK    5  A    between atoms: C_12  and  C_13
REMARK                            x       y       z     vdW  Elec       q    Type
REMARK                         _______ _______ _______ _____ _____    ______ ____
ROOT
ATOM      1  O   UNL     1       5.416   7.181  17.412  0.00  0.00    +0.000 OA
ATOM      2  C   UNL     1       5.898   6.297  18.109  0.00  0.00    +0.000 C 
ATOM      3  N   UNL     1       5.142   5.459  18.892  0.00  0.00    +0.000 N 
ATOM      4  H   UNL     1       5.582   4.599  19.193  0.00  0.00    +0.000 HD
ENDROOT
BRANCH   2   5
ATOM      5  C   UNL     1       7.383   6.010  18.124  0.00  0.00    +0.000 C 
BRANCH   5   6
ATOM      6  C   UNL     1       7.613   4.620  17.555  0.00  0.00    +0.000 C 
BRANCH   6   7
ATOM      7  C   UNL     1       7.039   4.475  16.178  0.00  0.00    +0.000 A 
ATOM      8  N   UNL     1       7.654   5.121  15.176  0.00  0.00    +0.000 NA
ATOM      9  C   UNL     1       7.146   4.933  13.943  0.00  0.00    +0.000 A 
ATOM     10  C   UNL     1       6.043   4.153  13.692  0.00  0.00    +0.000 A 
ATOM     11  C   UNL     1       5.462   3.568  14.794  0.00  0.00    +0.000 A 
ATOM     12  N   UNL     1       5.930   3.720  16.046  0.00  0.00    +0.000 NA
ENDBRANCH   6   7
ENDBRANCH   5   6
ENDBRANCH   2   5
BRANCH   3  13
ATOM     13  C   UNL     1       3.702   5.486  18.768  0.00  0.00    +0.000 C 
BRANCH  13  14
ATOM     14  C   UNL     1       2.938   4.231  19.235  0.00  0.00    +0.000 C 
ATOM     15  C   UNL     1       2.408   4.435  20.663  0.00  0.00    +0.000 C 
ATOM     16  C   UNL     1       1.204   3.520  20.847  0.00  0.00    +0.000 C 
ATOM     17  C   UNL     1       0.857   2.985  19.468  0.00  0.00    +0.000 C 
ATOM     18  C   UNL     1       1.691   3.803  18.465  0.00  0.00    +0.000 C 
ATOM     19  O   UNL     1       2.118   2.943  17.410  0.00  0.00    +0.000 OA
ATOM     20  C   UNL     1       3.242   2.204  17.891  0.00  0.00    +0.000 C 
ATOM     21  C   UNL     1       3.884   3.034  18.996  0.00  0.00    +0.000 C 
ENDBRANCH  13  14
ENDBRANCH   3  13
TORSDOF 5
ENDMDL
MODEL 6
REMARK VINA RESULT:      -7.4      1.333      1.904
REMARK  Name = 
REMARK  5 active torsions:
REMARK  status: ('A' for Active; 'I' for Inactive)
REMARK    1  A    between atoms: C_2  and  C_3
REMARK    2  A    between atoms: C_3  and  C_4
REMARK    3  A    between atoms: C_4  and  C_5
REMARK    4  A    between atoms: N_11  and  C_12
REMARK    5  A    between atoms: C_12  and  C_13
REMARK                            x       y       z     vdW  Elec       q    Type
REMARK                         _______ _______ _______ _____ _____    ______ ____
ROOT
ATOM      1  O   UNL     1       6.785   4.898  19.713  0.00  0.00    +0.000 OA
ATOM      2  C   UNL     1       6.508   4.679  18.541  0.00  0.00    +0.000 C 
ATOM      3  N   UNL     1       5.511   3.816  18.152  0.00  0.00    +0.000 N 
ATOM      4  H   UNL     1       5.166   3.918  17.206  0.00  0.00    +0.000 HD
ENDROOT
BRANCH   2   5
ATOM      5  C   UNL     1       7.207   5.392  17.406  0.00  0.00    +0.000 C 
BRANCH   5   6
ATOM      6  C   UNL     1       6.166   5.801  16.377  0.00  0.00    +0.000 C 
BRANCH   6   7
ATOM      7  C   UNL     1       6.395   5.140  15.052  0.00  0.00    +0.000 A 
ATOM      8  N   UNL     1       5.504   4.220  14.653  0.00  0.00    +0.000 NA
ATOM      9  C   UNL     1       5.708   3.678  13.438  0.00  0.00    +0.000 A 
ATOM     10  C   UNL     1       6.775   4.003  12.635  0.00  0.00    +0.000 A 
ATOM     11  C   UNL     1       7.653   4.927  13.155  0.00  0.00    +0.000 A 
ATOM     12  N   UNL     1       7.495   5.502  14.361  0.00  0.00    +0.000 NA
ENDBRANCH   6   7
ENDBRANCH   5   6
ENDBRANCH   2   5
BRANCH   3  13
ATOM     13  C   UNL     1       4.623   3.268  19.151  0.00  0.00    +0.000 C 
BRANCH  13  14
ATOM     14  C   UNL     1       3.194   3.844  19.206  0.00  0.00    +0.000 C 
ATOM     15  C   UNL     1       2.201   2.756  19.645  0.00  0.00    +0.000 C 
ATOM     16  C   UNL     1       0.997   3.450  20.269  0.00  0.00    +0.000 C 
ATOM     17  C   UNL     1       1.387   4.907  20.447  0.00  0.00    +0.000 C 
ATOM     18  C   UNL     1       2.900   4.986  20.176  0.00  0.00    +0.000 C 
ATOM     19  O   UNL     1       3.183   6.206  19.492  0.00  0.00    +0.000 OA
ATOM     20  C   UNL     1       2.847   6.012  18.117  0.00  0.00    +0.000 C 
ATOM     21  C   UNL     1       2.945   4.517  17.839  0.00  0.00    +0.000 C 
ENDBRANCH  13  14
ENDBRANCH   3  13
TORSDOF 5
ENDMDL
MODEL 7
REMARK VINA RESULT:      -7.4      1.061      1.384
REMARK  Name = 
REMARK  5 active torsions:
REMARK  status: ('A' for Active; 'I' for Inactive)
REMARK    1  A    between atoms: C_2  and  C_3
REMARK    2  A    between atoms: C_3  and  C_4
REMARK    3  A    between atoms: C_4  and  C_5
REMARK    4  A    between atoms: N_11  and  C_12
REMARK    5  A    between atoms: C_12  and  C_13
REMARK                            x       y       z     vdW  Elec       q    Type
REMARK                         _______ _______ _______ _____ _____    ______ ____
ROOT
ATOM      1  O   UNL     1       6.470   5.316  19.674  0.00  0.00    +0.000 OA
ATOM      2  C   UNL     1       6.203   4.793  18.599  0.00  0.00    +0.000 C 
ATOM      3  N   UNL     1       5.478   3.631  18.488  0.00  0.00    +0.000 N 
ATOM      4  H   UNL     1       5.066   3.439  17.584  0.00  0.00    +0.000 HD
ENDROOT
BRANCH   2   5
ATOM      5  C   UNL     1       6.602   5.419  17.282  0.00  0.00    +0.000 C 
BRANCH   5   6
ATOM      6  C   UNL     1       5.556   5.062  16.239  0.00  0.00    +0.000 C 
BRANCH   6   7
ATOM      7  C   UNL     1       6.172   4.759  14.907  0.00  0.00    +0.000 A 
ATOM      8  N   UNL     1       5.540   3.880  14.115  0.00  0.00    +0.000 NA
ATOM      9  C   UNL     1       6.089   3.664  12.905  0.00  0.00    +0.000 A 
ATOM     10  C   UNL     1       7.248   4.271  12.482  0.00  0.00    +0.000 A 
ATOM     11  C   UNL     1       7.839   5.123  13.386  0.00  0.00    +0.000 A 
ATOM     12  N   UNL     1       7.331   5.377  14.606  0.00  0.00    +0.000 NA
ENDBRANCH   6   7
ENDBRANCH   5   6
ENDBRANCH   2   5
BRANCH   3  13
ATOM     13  C   UNL     1       4.842   3.081  19.663  0.00  0.00    +0.000 C 
BRANCH  13  14
ATOM     14  C   UNL     1       3.301   3.025  19.662  0.00  0.00    +0.000 C 
ATOM     15  C   UNL     1       2.786   2.599  21.046  0.00  0.00    +0.000 C 
ATOM     16  C   UNL     1       1.369   3.135  21.199  0.00  0.00    +0.000 C 
ATOM     17  C   UNL     1       1.145   4.093  20.042  0.00  0.00    +0.000 C 
ATOM     18  C   UNL     1       2.521   4.308  19.387  0.00  0.00    +0.000 C 
ATOM     19  O   UNL     1       2.350   4.406  17.974  0.00  0.00    +0.000 OA
ATOM     20  C   UNL     1       2.208   3.076  17.469  0.00  0.00    +0.000 C 
ATOM     21  C   UNL     1       2.901   2.146  18.458  0.00  0.00    +0.000 C 
ENDBRANCH  13  14
ENDBRANCH   3  13
TORSDOF 5
ENDMDL
MODEL 8
REMARK VINA RESULT:      -7.4      1.312      2.234
REMARK  Name = 
REMARK  5 active torsions:
REMARK  status: ('A' for Active; 'I' for Inactive)
REMARK    1  A    between atoms: C_2  and  C_3
REMARK    2  A    between atoms: C_3  and  C_4
REMARK    3  A    between atoms: C_4  and  C_5
REMARK    4  A    between atoms: N_11  and  C_12
REMARK    5  A    between atoms: C_12  and  C_13
REMARK                            x       y       z     vdW  Elec       q    Type
REMARK                         _______ _______ _______ _____ _____    ______ ____
ROOT
ATOM      1  O   UNL     1       7.029   4.801  19.182  0.00  0.00    +0.000 OA
ATOM      2  C   UNL     1       6.465   4.627  18.109  0.00  0.00    +0.000 C 
ATOM      3  N   UNL     1       5.302   3.907  17.979  0.00  0.00    +0.000 N 
ATOM      4  H   UNL     1       4.767   4.059  17.134  0.00  0.00    +0.000 HD
ENDROOT
BRANCH   2   5
ATOM      5  C   UNL     1       6.974   5.245  16.827  0.00  0.00    +0.000 C 
BRANCH   5   6
ATOM      6  C   UNL     1       5.862   5.198  15.792  0.00  0.00    +0.000 C 
BRANCH   6   7
ATOM      7  C   UNL     1       6.376   4.839  14.431  0.00  0.00    +0.000 A 
ATOM      8  N   UNL     1       7.481   5.463  13.998  0.00  0.00    +0.000 NA
ATOM      9  C   UNL     1       7.948   5.086  12.793  0.00  0.00    +0.000 A 
ATOM     10  C   UNL     1       7.336   4.137  12.010  0.00  0.00    +0.000 A 
ATOM     11  C   UNL     1       6.186   3.587  12.528  0.00  0.00    +0.000 A 
ATOM     12  N   UNL     1       5.678   3.926  13.727  0.00  0.00    +0.000 NA
ENDBRANCH   6   7
ENDBRANCH   5   6
ENDBRANCH   2   5
BRANCH   3  13
ATOM     13  C   UNL     1       4.601   3.479  19.168  0.00  0.00    +0.000 C 
BRANCH  13  14
ATOM     14  C   UNL     1       3.071   3.678  19.186  0.00  0.00    +0.000 C 
ATOM     15  C   UNL     1       2.388   2.593  18.338  0.00  0.00    +0.000 C 
ATOM     16  C   UNL     1       0.964   2.430  18.854  0.00  0.00    +0.000 C 
ATOM     17  C   UNL     1       0.888   3.205  20.158  0.00  0.00    +0.000 C 
ATOM     18  C   UNL     1       2.335   3.583  20.520  0.00  0.00    +0.000 C 
ATOM     19  O   UNL     1       2.341   4.886  21.101  0.00  0.00    +0.000 OA
ATOM     20  C   UNL     1       2.259   5.830  20.030  0.00  0.00    +0.000 C 
ATOM     21  C   UNL     1       2.821   5.148  18.789  0.00  0.00    +0.000 C 
ENDBRANCH  13  14
ENDBRANCH   3  13
TORSDOF 5
ENDMDL
MODEL 9
REMARK VINA RESULT:      -7.3      1.482      1.567
REMARK  Name = 
REMARK  5 active torsions:
REMARK  status: ('A' for Active; 'I' for Inactive)
REMARK    1  A    between atoms: C_2  and  C_3
REMARK    2  A    between atoms: C_3  and  C_4
REMARK    3  A    between atoms: C_4  and  C_5
REMARK    4  A    between atoms: N_11  and  C_12
REMARK    5  A    between atoms: C_12  and  C_13
REMARK                            x       y       z     vdW  Elec       q    Type
REMARK                         _______ _______ _______ _____ _____    ______ ____
ROOT
ATOM      1  O   UNL     1       4.679   7.163  16.318  0.00  0.00    +0.000 OA
ATOM      2  C   UNL     1       5.211   6.721  17.328  0.00  0.00    +0.000 C 
ATOM      3  N   UNL     1       4.528   6.021  18.293  0.00  0.00    +0.000 N 
ATOM      4  H   UNL     1       5.084   5.458  18.924  0.00  0.00    +0.000 HD
ENDROOT
BRANCH   2   5
ATOM      5  C   UNL     1       6.696   6.857  17.576  0.00  0.00    +0.000 C 
BRANCH   5   6
ATOM      6  C   UNL     1       7.351   5.504  17.351  0.00  0.00    +0.000 C 
BRANCH   6   7
ATOM      7  C   UNL     1       6.984   4.916  16.023  0.00  0.00    +0.000 A 
ATOM      8  N   UNL     1       6.059   3.944  16.008  0.00  0.00    +0.000 NA
ATOM      9  C   UNL     1       5.713   3.468  14.797  0.00  0.00    +0.000 A 
ATOM     10  C   UNL     1       6.275   3.910  13.623  0.00  0.00    +0.000 A 
ATOM     11  C   UNL     1       7.242   4.880  13.753  0.00  0.00    +0.000 A 
ATOM     12  N   UNL     1       7.624   5.392  14.937  0.00  0.00    +0.000 NA
ENDBRANCH   6   7
ENDBRANCH   5   6
ENDBRANCH   2   5
BRANCH   3  13
ATOM     13  C   UNL     1       3.161   5.625  18.042  0.00  0.00    +0.000 C 
BRANCH  13  14
ATOM     14  C   UNL     1       2.650   4.373  18.784  0.00  0.00    +0.000 C 
ATOM     15  C   UNL     1       2.060   4.771  20.147  0.00  0.00    +0.000 C 
ATOM     16  C   UNL     1       1.057   3.697  20.549  0.00  0.00    +0.000 C 
ATOM     17  C   UNL     1       0.852   2.821  19.325  0.00  0.00    +0.000 C 
ATOM     18  C   UNL     1       1.528   3.553  18.152  0.00  0.00    +0.000 C 
ATOM     19  O   UNL     1       2.139   2.588  17.297  0.00  0.00    +0.000 OA
ATOM     20  C   UNL     1       3.377   2.207  17.901  0.00  0.00    +0.000 C 
ATOM     21  C   UNL     1       3.818   3.365  18.787  0.00  0.00    +0.000 C 
ENDBRANCH  13  14
ENDBRANCH   3  13
TORSDOF 5
ENDMDL
