MODEL 1
REMARK VINA RESULT:      -7.8      0.000      0.000
REMARK  Name = 
REMARK  6 active torsions:
REMARK  status: ('A' for Active; 'I' for Inactive)
REMARK    1  A    between atoms: C_1  and  C_2
REMARK    2  A    between atoms: C_5  and  C_6
REMARK    3  A    between atoms: C_6  and  C_8
REMARK    4  A    between atoms: C_13  and  C_15
REMARK    5  A    between atoms: C_15  and  N_16
REMARK    6  A    between atoms: N_16  and  C_17
REMARK                            x       y       z     vdW  Elec       q    Type
REMARK                         _______ _______ _______ _____ _____    ______ ____
ROOT
ATOM      1  C   UNL     1       1.077  10.565  19.998  0.00  0.00    +0.000 C 
ATOM      2  C   UNL     1       1.086  12.070  20.245  0.00  0.00    +0.000 C 
ATOM      3  S   UNL     1       2.127  12.799  18.963  0.00  0.00    +0.000 S 
ATOM      4  C   UNL     1       1.984  11.380  17.859  0.00  0.00    +0.000 C 
ATOM      5  N   UNL     1       1.710  10.241  18.701  0.00  0.00    +0.000 N 
ATOM      6  C   UNL     1       2.082   8.968  18.274  0.00  0.00    +0.000 C 
ATOM      7  O   UNL     1       2.663   8.782  17.203  0.00  0.00    +0.000 OA
ENDROOT
BRANCH   1   8
ATOM      8  C   UNL     1      -0.379  10.051  20.058  0.00  0.00    +0.000 C 
ATOM      9  O   UNL     1      -0.758   9.308  20.962  0.00  0.00    +0.000 OA
BRANCH   8  14
ATOM     10  C   UNL     1      -2.688  10.191  15.813  0.00  0.00    +0.000 C 
ATOM     11  C   UNL     1      -2.293  10.623  17.165  0.00  0.00    +0.000 A 
ATOM     12  N   UNL     1      -2.708  11.649  17.877  0.00  0.00    +0.000 NA
ATOM     13  N   UNL     1      -2.026  11.598  19.073  0.00  0.00    +0.000 NA
ATOM     14  C   UNL     1      -1.241  10.543  19.008  0.00  0.00    +0.000 A 
ATOM     15  O   UNL     1      -1.355   9.869  17.819  0.00  0.00    +0.000 OA
ENDBRANCH   8  14
ENDBRANCH   1   8
BRANCH   6  16
ATOM     16  C   UNL     1       1.667   7.816  19.202  0.00  0.00    +0.000 C 
BRANCH  16  17
ATOM     17  N   UNL     1       2.782   7.027  19.735  0.00  0.00    +0.000 NA
ATOM     18  H   UNL     1       2.887   7.217  20.732  0.00  0.00    +0.000 HD
BRANCH  17  19
ATOM     19  C   UNL     1       2.634   5.575  19.497  0.00  0.00    +0.000 C 
ATOM     20  C   UNL     1       3.994   4.841  19.639  0.00  0.00    +0.000 C 
ATOM     21  C   UNL     1       3.815   3.324  19.457  0.00  0.00    +0.000 C 
ATOM     22  C   UNL     1       2.852   2.796  20.530  0.00  0.00    +0.000 C 
ATOM     23  C   UNL     1       1.487   3.491  20.400  0.00  0.00    +0.000 C 
ATOM     24  C   UNL     1       0.903   3.205  19.009  0.00  0.00    +0.000 C 
ATOM     25  C   UNL     1       1.854   3.727  17.927  0.00  0.00    +0.000 C 
ATOM     26  C   UNL     1       3.226   3.046  18.064  0.00  0.00    +0.000 C 
ATOM     27  C   UNL     1       2.029   5.243  18.101  0.00  0.00    +0.000 C 
ATOM     28  C   UNL     1       1.672   5.010  20.576  0.00  0.00    +0.000 C 
ENDBRANCH  17  19
ENDBRANCH  16  17
ENDBRANCH   6  16
TORSDOF 5
ENDMDL
MODEL 2
REMARK VINA RESULT:      -7.7      0.124      1.424
REMARK  Name = 
REMARK  6 active torsions:
REMARK  status: ('A' for Active; 'I' for Inactive)
REMARK    1  A    between atoms: C_1  and  C_2
REMARK    2  A    between atoms: C_5  and  C_6
REMARK    3  A    between atoms: C_6  and  C_8
REMARK    4  A    between atoms: C_13  and  C_15
REMARK    5  A    between atoms: C_15  and  N_16
REMARK    6  A    between atoms: N_16  and  C_17
REMARK                            x       y       z     vdW  Elec       q    Type
REMARK                         _______ _______ _______ _____ _____    ______ ____
ROOT
ATOM      1  C   UNL     1       1.087  10.507  19.962  0.00  0.00    +0.000 C 
ATOM      2  C   UNL     1       1.111  12.006  20.245  0.00  0.00    +0.000 C 
ATOM      3  S   UNL     1       2.178  12.752  18.996  0.00  0.00    +0.000 S 
ATOM      4  C   UNL     1       2.036  11.360  17.856  0.00  0.00    +0.000 C 
ATOM      5  N   UNL     1       1.735  10.205  18.667  0.00  0.00    +0.000 N 
ATOM      6  C   UNL     1       2.098   8.938  18.215  0.00  0.00    +0.000 C 
ATOM      7  O   UNL     1       2.693   8.771  17.148  0.00  0.00    +0.000 OA
ENDROOT
BRANCH   1   8
ATOM      8  C   UNL     1      -0.376  10.010  19.989  0.00  0.00    +0.000 C 
ATOM      9  O   UNL     1      -0.782   9.269  20.882  0.00  0.00    +0.000 OA
BRANCH   8  14
ATOM     10  C   UNL     1      -2.638  10.161  15.719  0.00  0.00    +0.000 C 
ATOM     11  C   UNL     1      -2.240  10.601  17.068  0.00  0.00    +0.000 A 
ATOM     12  N   UNL     1      -2.624  11.654  17.758  0.00  0.00    +0.000 NA
ATOM     13  N   UNL     1      -1.955  11.599  18.961  0.00  0.00    +0.000 NA
ATOM     14  C   UNL     1      -1.209  10.515  18.922  0.00  0.00    +0.000 A 
ATOM     15  O   UNL     1      -1.337   9.824  17.744  0.00  0.00    +0.000 OA
ENDBRANCH   8  14
ENDBRANCH   1   8
BRANCH   6  16
ATOM     16  C   UNL     1       1.656   7.770  19.110  0.00  0.00    +0.000 C 
BRANCH  16  17
ATOM     17  N   UNL     1       2.754   7.040  19.750  0.00  0.00    +0.000 NA
ATOM     18  H   UNL     1       2.776   7.263  20.746  0.00  0.00    +0.000 HD
BRANCH  17  19
ATOM     19  C   UNL     1       2.676   5.577  19.548  0.00  0.00    +0.000 C 
ATOM     20  C   UNL     1       1.794   4.907  20.635  0.00  0.00    +0.000 C 
ATOM     21  C   UNL     1       1.665   3.396  20.375  0.00  0.00    +0.000 C 
ATOM     22  C   UNL     1       1.016   3.172  19.002  0.00  0.00    +0.000 C 
ATOM     23  C   UNL     1       1.880   3.808  17.902  0.00  0.00    +0.000 C 
ATOM     24  C   UNL     1       3.274   3.163  17.915  0.00  0.00    +0.000 C 
ATOM     25  C   UNL     1       3.935   3.378  19.282  0.00  0.00    +0.000 C 
ATOM     26  C   UNL     1       3.064   2.758  20.387  0.00  0.00    +0.000 C 
ATOM     27  C   UNL     1       4.071   4.886  19.541  0.00  0.00    +0.000 C 
ATOM     28  C   UNL     1       2.013   5.319  18.169  0.00  0.00    +0.000 C 
ENDBRANCH  17  19
ENDBRANCH  16  17
ENDBRANCH   6  16
TORSDOF 5
ENDMDL
MODEL 3
REMARK VINA RESULT:      -7.5      4.985      6.938
REMARK  Name = 
REMARK  6 active torsions:
REMARK  status: ('A' for Active; 'I' for Inactive)
REMARK    1  A    between atoms: C_1  and  C_2
REMARK    2  A    between atoms: C_5  and  C_6
REMARK    3  A    between atoms: C_6  and  C_8
REMARK    4  A    between atoms: C_13  and  C_15
REMARK    5  A    between atoms: C_15  and  N_16
REMARK    6  A    between atoms: N_16  and  C_17
REMARK                            x       y       z     vdW  Elec       q    Type
REMARK                         _______ _______ _______ _____ _____    ______ ____
ROOT
ATOM      1  C   UNL     1       6.177   4.732  17.125  0.00  0.00    +0.000 C 
ATOM      2  C   UNL     1       6.676   4.024  15.869  0.00  0.00    +0.000 C 
ATOM      3  S   UNL     1       5.727   4.691  14.487  0.00  0.00    +0.000 S 
ATOM      4  C   UNL     1       5.244   6.187  15.372  0.00  0.00    +0.000 C 
ATOM      5  N   UNL     1       5.279   5.854  16.775  0.00  0.00    +0.000 N 
ATOM      6  C   UNL     1       4.467   6.553  17.666  0.00  0.00    +0.000 C 
ATOM      7  O   UNL     1       3.695   7.438  17.289  0.00  0.00    +0.000 OA
ENDROOT
BRANCH   1   8
ATOM      8  C   UNL     1       7.391   5.218  17.948  0.00  0.00    +0.000 C 
ATOM      9  O   UNL     1       8.042   4.443  18.646  0.00  0.00    +0.000 OA
BRANCH   8  14
ATOM     10  C   UNL     1       8.927   9.650  19.118  0.00  0.00    +0.000 C 
ATOM     11  C   UNL     1       8.400   8.570  18.265  0.00  0.00    +0.000 A 
ATOM     12  N   UNL     1       8.102   8.580  16.983  0.00  0.00    +0.000 NA
ATOM     13  N   UNL     1       7.653   7.314  16.677  0.00  0.00    +0.000 NA
ATOM     14  C   UNL     1       7.707   6.620  17.795  0.00  0.00    +0.000 A 
ATOM     15  O   UNL     1       8.175   7.354  18.854  0.00  0.00    +0.000 OA
ENDBRANCH   8  14
ENDBRANCH   1   8
BRANCH   6  16
ATOM     16  C   UNL     1       4.642   6.180  19.146  0.00  0.00    +0.000 C 
BRANCH  16  17
ATOM     17  N   UNL     1       3.390   6.015  19.889  0.00  0.00    +0.000 NA
ATOM     18  H   UNL     1       2.731   6.742  19.610  0.00  0.00    +0.000 HD
BRANCH  17  19
ATOM     19  C   UNL     1       2.785   4.676  19.720  0.00  0.00    +0.000 C 
ATOM     20  C   UNL     1       3.864   3.561  19.773  0.00  0.00    +0.000 C 
ATOM     21  C   UNL     1       3.215   2.171  19.665  0.00  0.00    +0.000 C 
ATOM     22  C   UNL     1       2.241   1.974  20.835  0.00  0.00    +0.000 C 
ATOM     23  C   UNL     1       1.147   3.053  20.796  0.00  0.00    +0.000 C 
ATOM     24  C   UNL     1       0.377   2.947  19.471  0.00  0.00    +0.000 C 
ATOM     25  C   UNL     1       1.337   3.140  18.293  0.00  0.00    +0.000 C 
ATOM     26  C   UNL     1       2.443   2.073  18.338  0.00  0.00    +0.000 C 
ATOM     27  C   UNL     1       1.981   4.531  18.394  0.00  0.00    +0.000 C 
ATOM     28  C   UNL     1       1.801   4.444  20.898  0.00  0.00    +0.000 C 
ENDBRANCH  17  19
ENDBRANCH  16  17
ENDBRANCH   6  16
TORSDOF 5
ENDMDL
MODEL 4
REMARK VINA RESULT:      -7.5      5.870      7.458
REMARK  Name = 
REMARK  6 active torsions:
REMARK  status: ('A' for Active; 'I' for Inactive)
REMARK    1  A    between atoms: C_1  and  C_2
REMARK    2  A    between atoms: C_5  and  C_6
REMARK    3  A    between atoms: C_6  and  C_8
REMARK    4  A    between atoms: C_13  and  C_15
REMARK    5  A    between atoms: C_15  and  N_16
REMARK    6  A    between atoms: N_16  and  C_17
REMARK                            x       y       z     vdW  Elec       q    Type
REMARK                         _______ _______ _______ _____ _____    ______ ____
ROOT
ATOM      1  C   UNL     1       6.671   5.958  17.027  0.00  0.00    +0.000 C 
ATOM      2  C   UNL     1       7.045   7.257  16.319  0.00  0.00    +0.000 C 
ATOM      3  S   UNL     1       7.732   8.353  17.577  0.00  0.00    +0.000 S 
ATOM      4  C   UNL     1       8.110   7.013  18.724  0.00  0.00    +0.000 C 
ATOM      5  N   UNL     1       7.192   5.945  18.411  0.00  0.00    +0.000 N 
ATOM      6  C   UNL     1       6.837   5.034  19.404  0.00  0.00    +0.000 C 
ATOM      7  O   UNL     1       7.266   5.124  20.556  0.00  0.00    +0.000 OA
ENDROOT
BRANCH   1   8
ATOM      8  C   UNL     1       7.212   4.763  16.211  0.00  0.00    +0.000 C 
ATOM      9  O   UNL     1       8.205   4.137  16.576  0.00  0.00    +0.000 OA
BRANCH   8  14
ATOM     10  C   UNL     1       6.249   3.164  11.751  0.00  0.00    +0.000 C 
ATOM     11  C   UNL     1       5.977   3.711  13.092  0.00  0.00    +0.000 A 
ATOM     12  N   UNL     1       4.831   4.023  13.657  0.00  0.00    +0.000 NA
ATOM     13  N   UNL     1       5.130   4.490  14.918  0.00  0.00    +0.000 NA
ATOM     14  C   UNL     1       6.441   4.432  15.034  0.00  0.00    +0.000 A 
ATOM     15  O   UNL     1       7.052   3.944  13.908  0.00  0.00    +0.000 OA
ENDBRANCH   8  14
ENDBRANCH   1   8
BRANCH   6  16
ATOM     16  C   UNL     1       5.923   3.887  18.947  0.00  0.00    +0.000 C 
BRANCH  16  17
ATOM     17  N   UNL     1       5.093   3.305  20.005  0.00  0.00    +0.000 NA
ATOM     18  H   UNL     1       5.320   3.747  20.897  0.00  0.00    +0.000 HD
BRANCH  17  19
ATOM     19  C   UNL     1       3.643   3.408  19.732  0.00  0.00    +0.000 C 
ATOM     20  C   UNL     1       3.210   4.888  19.546  0.00  0.00    +0.000 C 
ATOM     21  C   UNL     1       1.716   4.976  19.195  0.00  0.00    +0.000 C 
ATOM     22  C   UNL     1       1.456   4.216  17.887  0.00  0.00    +0.000 C 
ATOM     23  C   UNL     1       1.856   2.740  18.048  0.00  0.00    +0.000 C 
ATOM     24  C   UNL     1       1.025   2.109  19.175  0.00  0.00    +0.000 C 
ATOM     25  C   UNL     1       1.273   2.859  20.488  0.00  0.00    +0.000 C 
ATOM     26  C   UNL     1       0.890   4.340  20.326  0.00  0.00    +0.000 C 
ATOM     27  C   UNL     1       2.764   2.766  20.845  0.00  0.00    +0.000 C 
ATOM     28  C   UNL     1       3.352   2.656  18.406  0.00  0.00    +0.000 C 
ENDBRANCH  17  19
ENDBRANCH  16  17
ENDBRANCH   6  16
TORSDOF 5
ENDMDL
MODEL 5
REMARK VINA RESULT:      -7.4      5.839      7.343
REMARK  Name = 
REMARK  6 active torsions:
REMARK  status: ('A' for Active; 'I' for Inactive)
REMARK    1  A    between atoms: C_1  and  C_2
REMARK    2  A    between atoms: C_5  and  C_6
REMARK    3  A    between atoms: C_6  and  C_8
REMARK    4  A    between atoms: C_13  and  C_15
REMARK    5  A    between atoms: C_15  and  N_16
REMARK    6  A    between atoms: N_16  and  C_17
REMARK                            x       y       z     vdW  Elec       q    Type
REMARK                         _______ _______ _______ _____ _____    ______ ____
ROOT
ATOM      1  C   UNL     1       6.711   6.016  17.116  0.00  0.00    +0.000 C 
ATOM      2  C   UNL     1       7.075   7.312  16.397  0.00  0.00    +0.000 C 
ATOM      3  S   UNL     1       7.784   8.411  17.640  0.00  0.00    +0.000 S 
ATOM      4  C   UNL     1       8.179   7.074  18.785  0.00  0.00    +0.000 C 
ATOM      5  N   UNL     1       7.255   6.006  18.491  0.00  0.00    +0.000 N 
ATOM      6  C   UNL     1       6.915   5.099  19.493  0.00  0.00    +0.000 C 
ATOM      7  O   UNL     1       7.364   5.192  20.637  0.00  0.00    +0.000 OA
ENDROOT
BRANCH   1   8
ATOM      8  C   UNL     1       7.236   4.817  16.294  0.00  0.00    +0.000 C 
ATOM      9  O   UNL     1       8.221   4.176  16.657  0.00  0.00    +0.000 OA
BRANCH   8  14
ATOM     10  C   UNL     1       6.247   3.212  11.842  0.00  0.00    +0.000 C 
ATOM     11  C   UNL     1       5.986   3.780  13.177  0.00  0.00    +0.000 A 
ATOM     12  N   UNL     1       4.847   4.135  13.732  0.00  0.00    +0.000 NA
ATOM     13  N   UNL     1       5.154   4.603  14.991  0.00  0.00    +0.000 NA
ATOM     14  C   UNL     1       6.462   4.502  15.116  0.00  0.00    +0.000 A 
ATOM     15  O   UNL     1       7.063   3.984  13.997  0.00  0.00    +0.000 OA
ENDBRANCH   8  14
ENDBRANCH   1   8
BRANCH   6  16
ATOM     16  C   UNL     1       5.992   3.951  19.054  0.00  0.00    +0.000 C 
BRANCH  16  17
ATOM     17  N   UNL     1       5.079   3.468  20.094  0.00  0.00    +0.000 NA
ATOM     18  H   UNL     1       5.248   3.982  20.959  0.00  0.00    +0.000 HD
BRANCH  17  19
ATOM     19  C   UNL     1       3.655   3.560  19.706  0.00  0.00    +0.000 C 
ATOM     20  C   UNL     1       3.397   2.859  18.345  0.00  0.00    +0.000 C 
ATOM     21  C   UNL     1       1.902   2.902  17.987  0.00  0.00    +0.000 C 
ATOM     22  C   UNL     1       1.099   2.178  19.077  0.00  0.00    +0.000 C 
ATOM     23  C   UNL     1       1.318   2.864  20.434  0.00  0.00    +0.000 C 
ATOM     24  C   UNL     1       0.852   4.325  20.346  0.00  0.00    +0.000 C 
ATOM     25  C   UNL     1       1.645   5.061  19.260  0.00  0.00    +0.000 C 
ATOM     26  C   UNL     1       1.442   4.367  17.903  0.00  0.00    +0.000 C 
ATOM     27  C   UNL     1       3.138   5.026  19.619  0.00  0.00    +0.000 C 
ATOM     28  C   UNL     1       2.817   2.826  20.787  0.00  0.00    +0.000 C 
ENDBRANCH  17  19
ENDBRANCH  16  17
ENDBRANCH   6  16
TORSDOF 5
ENDMDL
MODEL 6
REMARK VINA RESULT:      -7.4      4.705      6.898
REMARK  Name = 
REMARK  6 active torsions:
REMARK  status: ('A' for Active; 'I' for Inactive)
REMARK    1  A    between atoms: C_1  and  C_2
REMARK    2  A    between atoms: C_5  and  C_6
REMARK    3  A    between atoms: C_6  and  C_8
REMARK    4  A    between atoms: C_13  and  C_15
REMARK    5  A    between atoms: C_15  and  N_16
REMARK    6  A    between atoms: N_16  and  C_17
REMARK                            x       y       z     vdW  Elec       q    Type
REMARK                         _______ _______ _______ _____ _____    ______ ____
ROOT
ATOM      1  C   UNL     1       5.719   4.885  17.217  0.00  0.00    +0.000 C 
ATOM      2  C   UNL     1       6.385   4.059  16.120  0.00  0.00    +0.000 C 
ATOM      3  S   UNL     1       5.740   4.670  14.549  0.00  0.00    +0.000 S 
ATOM      4  C   UNL     1       5.207   6.252  15.234  0.00  0.00    +0.000 C 
ATOM      5  N   UNL     1       4.972   6.023  16.639  0.00  0.00    +0.000 N 
ATOM      6  C   UNL     1       4.063   6.829  17.321  0.00  0.00    +0.000 C 
ATOM      7  O   UNL     1       3.429   7.723  16.756  0.00  0.00    +0.000 OA
ENDROOT
BRANCH   1   8
ATOM      8  C   UNL     1       6.798   5.367  18.213  0.00  0.00    +0.000 C 
ATOM      9  O   UNL     1       7.132   4.678  19.175  0.00  0.00    +0.000 OA
BRANCH   8  14
ATOM     10  C   UNL     1       8.947   9.640  18.914  0.00  0.00    +0.000 C 
ATOM     11  C   UNL     1       8.358   8.516  18.164  0.00  0.00    +0.000 A 
ATOM     12  N   UNL     1       8.258   8.331  16.865  0.00  0.00    +0.000 NA
ATOM     13  N   UNL     1       7.629   7.118  16.690  0.00  0.00    +0.000 NA
ATOM     14  C   UNL     1       7.389   6.646  17.896  0.00  0.00    +0.000 A 
ATOM     15  O   UNL     1       7.826   7.483  18.890  0.00  0.00    +0.000 OA
ENDBRANCH   8  14
ENDBRANCH   1   8
BRANCH   6  16
ATOM     16  C   UNL     1       3.950   6.559  18.830  0.00  0.00    +0.000 C 
BRANCH  16  17
ATOM     17  N   UNL     1       2.590   6.283  19.302  0.00  0.00    +0.000 NA
ATOM     18  H   UNL     1       1.916   6.704  18.662  0.00  0.00    +0.000 HD
BRANCH  17  19
ATOM     19  C   UNL     1       2.314   4.841  19.471  0.00  0.00    +0.000 C 
ATOM     20  C   UNL     1       1.929   4.181  18.119  0.00  0.00    +0.000 C 
ATOM     21  C   UNL     1       1.711   2.668  18.296  0.00  0.00    +0.000 C 
ATOM     22  C   UNL     1       3.007   2.026  18.810  0.00  0.00    +0.000 C 
ATOM     23  C   UNL     1       3.401   2.646  20.160  0.00  0.00    +0.000 C 
ATOM     24  C   UNL     1       2.277   2.404  21.178  0.00  0.00    +0.000 C 
ATOM     25  C   UNL     1       0.975   3.039  20.677  0.00  0.00    +0.000 C 
ATOM     26  C   UNL     1       0.586   2.434  19.318  0.00  0.00    +0.000 C 
ATOM     27  C   UNL     1       1.188   4.551  20.507  0.00  0.00    +0.000 C 
ATOM     28  C   UNL     1       3.613   4.161  19.981  0.00  0.00    +0.000 C 
ENDBRANCH  17  19
ENDBRANCH  16  17
ENDBRANCH   6  16
TORSDOF 5
ENDMDL
MODEL 7
REMARK VINA RESULT:      -7.3      4.697      6.923
REMARK  Name = 
REMARK  6 active torsions:
REMARK  status: ('A' for Active; 'I' for Inactive)
REMARK    1  A    between atoms: C_1  and  C_2
REMARK    2  A    between atoms: C_5  and  C_6
REMARK    3  A    between atoms: C_6  and  C_8
REMARK    4  A    between atoms: C_13  and  C_15
REMARK    5  A    between atoms: C_15  and  N_16
REMARK    6  A    between atoms: N_16  and  C_17
REMARK                            x       y       z     vdW  Elec       q    Type
REMARK                         _______ _______ _______ _____ _____    ______ ____
ROOT
ATOM      1  C   UNL     1       5.723   4.911  17.233  0.00  0.00    +0.000 C 
ATOM      2  C   UNL     1       6.398   4.081  16.145  0.00  0.00    +0.000 C 
ATOM      3  S   UNL     1       5.760   4.679  14.566  0.00  0.00    +0.000 S 
ATOM      4  C   UNL     1       5.218   6.263  15.238  0.00  0.00    +0.000 C 
ATOM      5  N   UNL     1       4.976   6.043  16.643  0.00  0.00    +0.000 N 
ATOM      6  C   UNL     1       4.060   6.850  17.315  0.00  0.00    +0.000 C 
ATOM      7  O   UNL     1       3.427   7.738  16.740  0.00  0.00    +0.000 OA
ENDROOT
BRANCH   1   8
ATOM      8  C   UNL     1       6.794   5.403  18.232  0.00  0.00    +0.000 C 
ATOM      9  O   UNL     1       7.118   4.726  19.206  0.00  0.00    +0.000 OA
BRANCH   8  14
ATOM     10  C   UNL     1       8.939   9.685  18.893  0.00  0.00    +0.000 C 
ATOM     11  C   UNL     1       8.362   8.548  18.154  0.00  0.00    +0.000 A 
ATOM     12  N   UNL     1       8.283   8.340  16.857  0.00  0.00    +0.000 NA
ATOM     13  N   UNL     1       7.655   7.125  16.692  0.00  0.00    +0.000 NA
ATOM     14  C   UNL     1       7.394   6.675  17.902  0.00  0.00    +0.000 A 
ATOM     15  O   UNL     1       7.815   7.530  18.889  0.00  0.00    +0.000 OA
ENDBRANCH   8  14
ENDBRANCH   1   8
BRANCH   6  16
ATOM     16  C   UNL     1       3.939   6.590  18.825  0.00  0.00    +0.000 C 
BRANCH  16  17
ATOM     17  N   UNL     1       2.585   6.270  19.284  0.00  0.00    +0.000 NA
ATOM     18  H   UNL     1       1.904   6.636  18.618  0.00  0.00    +0.000 HD
BRANCH  17  19
ATOM     19  C   UNL     1       2.371   4.823  19.501  0.00  0.00    +0.000 C 
ATOM     20  C   UNL     1       1.217   4.570  20.510  0.00  0.00    +0.000 C 
ATOM     21  C   UNL     1       0.960   3.063  20.674  0.00  0.00    +0.000 C 
ATOM     22  C   UNL     1       0.570   2.464  19.316  0.00  0.00    +0.000 C 
ATOM     23  C   UNL     1       1.704   2.680  18.301  0.00  0.00    +0.000 C 
ATOM     24  C   UNL     1       2.980   1.993  18.812  0.00  0.00    +0.000 C 
ATOM     25  C   UNL     1       3.381   2.581  20.169  0.00  0.00    +0.000 C 
ATOM     26  C   UNL     1       2.241   2.382  21.182  0.00  0.00    +0.000 C 
ATOM     27  C   UNL     1       3.645   4.085  20.006  0.00  0.00    +0.000 C 
ATOM     28  C   UNL     1       1.964   4.191  18.143  0.00  0.00    +0.000 C 
ENDBRANCH  17  19
ENDBRANCH  16  17
ENDBRANCH   6  16
TORSDOF 5
ENDMDL
MODEL 8
REMARK VINA RESULT:      -7.3      0.555      1.506
REMARK  Name = 
REMARK  6 active torsions:
REMARK  status: ('A' for Active; 'I' for Inactive)
REMARK    1  A    between atoms: C_1  and  C_2
REMARK    2  A    between atoms: C_5  and  C_6
REMARK    3  A    between atoms: C_6  and  C_8
REMARK    4  A    between atoms: C_13  and  C_15
REMARK    5  A    between atoms: C_15  and  N_16
REMARK    6  A    between atoms: N_16  and  C_17
REMARK                            x       y       z     vdW  Elec       q    Type
REMARK                         _______ _______ _______ _____ _____    ______ ____
ROOT
ATOM      1  C   UNL     1       1.107  10.479  20.257  0.00  0.00    +0.000 C 
ATOM      2  C   UNL     1       0.998  11.906  20.785  0.00  0.00    +0.000 C 
ATOM      3  S   UNL     1       1.884  12.959  19.617  0.00  0.00    +0.000 S 
ATOM      4  C   UNL     1       1.798  11.760  18.271  0.00  0.00    +0.000 C 
ATOM      5  N   UNL     1       1.681  10.464  18.894  0.00  0.00    +0.000 N 
ATOM      6  C   UNL     1       2.137   9.335  18.216  0.00  0.00    +0.000 C 
ATOM      7  O   UNL     1       2.663   9.410  17.103  0.00  0.00    +0.000 OA
ENDROOT
BRANCH   1   8
ATOM      8  C   UNL     1      -0.291   9.820  20.286  0.00  0.00    +0.000 C 
ATOM      9  O   UNL     1      -0.582   8.977  21.132  0.00  0.00    +0.000 OA
BRANCH   8  14
ATOM     10  C   UNL     1      -2.803   9.942  16.158  0.00  0.00    +0.000 C 
ATOM     11  C   UNL     1      -2.351  10.373  17.493  0.00  0.00    +0.000 A 
ATOM     12  N   UNL     1      -2.751  11.387  18.230  0.00  0.00    +0.000 NA
ATOM     13  N   UNL     1      -2.011  11.342  19.392  0.00  0.00    +0.000 NA
ATOM     14  C   UNL     1      -1.211  10.302  19.282  0.00  0.00    +0.000 A 
ATOM     15  O   UNL     1      -1.369   9.633  18.095  0.00  0.00    +0.000 OA
ENDBRANCH   8  14
ENDBRANCH   1   8
BRANCH   6  16
ATOM     16  C   UNL     1       1.888   7.997  18.928  0.00  0.00    +0.000 C 
BRANCH  16  17
ATOM     17  N   UNL     1       2.970   7.018  18.789  0.00  0.00    +0.000 NA
ATOM     18  H   UNL     1       3.772   7.318  19.345  0.00  0.00    +0.000 HD
BRANCH  17  19
ATOM     19  C   UNL     1       2.566   5.646  19.162  0.00  0.00    +0.000 C 
ATOM     20  C   UNL     1       1.926   4.903  17.958  0.00  0.00    +0.000 C 
ATOM     21  C   UNL     1       1.573   3.455  18.339  0.00  0.00    +0.000 C 
ATOM     22  C   UNL     1       2.851   2.714  18.756  0.00  0.00    +0.000 C 
ATOM     23  C   UNL     1       3.496   3.416  19.962  0.00  0.00    +0.000 C 
ATOM     24  C   UNL     1       2.506   3.421  21.136  0.00  0.00    +0.000 C 
ATOM     25  C   UNL     1       1.224   4.157  20.734  0.00  0.00    +0.000 C 
ATOM     26  C   UNL     1       0.585   3.467  19.517  0.00  0.00    +0.000 C 
ATOM     27  C   UNL     1       1.573   5.605  20.360  0.00  0.00    +0.000 C 
ATOM     28  C   UNL     1       3.843   4.868  19.579  0.00  0.00    +0.000 C 
ENDBRANCH  17  19
ENDBRANCH  16  17
ENDBRANCH   6  16
TORSDOF 5
ENDMDL
MODEL 9
REMARK VINA RESULT:      -7.3      5.871      7.553
REMARK  Name = 
REMARK  6 active torsions:
REMARK  status: ('A' for Active; 'I' for Inactive)
REMARK    1  A    between atoms: C_1  and  C_2
REMARK    2  A    between atoms: C_5  and  C_6
REMARK    3  A    between atoms: C_6  and  C_8
REMARK    4  A    between atoms: C_13  and  C_15
REMARK    5  A    between atoms: C_15  and  N_16
REMARK    6  A    between atoms: N_16  and  C_17
REMARK                            x       y       z     vdW  Elec       q    Type
REMARK                         _______ _______ _______ _____ _____    ______ ____
ROOT
ATOM      1  C   UNL     1       6.895   5.977  16.927  0.00  0.00    +0.000 C 
ATOM      2  C   UNL     1       7.341   7.273  16.257  0.00  0.00    +0.000 C 
ATOM      3  S   UNL     1       7.840   8.394  17.581  0.00  0.00    +0.000 S 
ATOM      4  C   UNL     1       8.081   7.072  18.785  0.00  0.00    +0.000 C 
ATOM      5  N   UNL     1       7.228   5.987  18.368  0.00  0.00    +0.000 N 
ATOM      6  C   UNL     1       6.757   5.081  19.317  0.00  0.00    +0.000 C 
ATOM      7  O   UNL     1       7.029   5.191  20.514  0.00  0.00    +0.000 OA
ENDROOT
BRANCH   1   8
ATOM      8  C   UNL     1       7.555   4.781  16.205  0.00  0.00    +0.000 C 
ATOM      9  O   UNL     1       8.269   3.984  16.810  0.00  0.00    +0.000 OA
BRANCH   8  14
ATOM     10  C   UNL     1       5.306   3.263  12.203  0.00  0.00    +0.000 C 
ATOM     11  C   UNL     1       6.248   4.043  13.026  0.00  0.00    +0.000 A 
ATOM     12  N   UNL     1       7.094   4.986  12.671  0.00  0.00    +0.000 NA
ATOM     13  N   UNL     1       7.734   5.391  13.823  0.00  0.00    +0.000 NA
ATOM     14  C   UNL     1       7.232   4.665  14.801  0.00  0.00    +0.000 A 
ATOM     15  O   UNL     1       6.277   3.781  14.370  0.00  0.00    +0.000 OA
ENDBRANCH   8  14
ENDBRANCH   1   8
BRANCH   6  16
ATOM     16  C   UNL     1       5.928   3.915  18.758  0.00  0.00    +0.000 C 
BRANCH  16  17
ATOM     17  N   UNL     1       5.135   3.193  19.757  0.00  0.00    +0.000 NA
ATOM     18  H   UNL     1       5.372   3.533  20.689  0.00  0.00    +0.000 HD
BRANCH  17  19
ATOM     19  C   UNL     1       3.678   3.290  19.525  0.00  0.00    +0.000 C 
ATOM     20  C   UNL     1       2.880   2.647  20.691  0.00  0.00    +0.000 C 
ATOM     21  C   UNL     1       1.367   2.815  20.471  0.00  0.00    +0.000 C 
ATOM     22  C   UNL     1       1.027   4.310  20.404  0.00  0.00    +0.000 C 
ATOM     23  C   UNL     1       1.788   4.970  19.243  0.00  0.00    +0.000 C 
ATOM     24  C   UNL     1       1.383   4.298  17.923  0.00  0.00    +0.000 C 
ATOM     25  C   UNL     1       1.715   2.803  17.976  0.00  0.00    +0.000 C 
ATOM     26  C   UNL     1       0.969   2.143  19.147  0.00  0.00    +0.000 C 
ATOM     27  C   UNL     1       3.226   2.633  18.188  0.00  0.00    +0.000 C 
ATOM     28  C   UNL     1       3.303   4.795  19.463  0.00  0.00    +0.000 C 
ENDBRANCH  17  19
ENDBRANCH  16  17
ENDBRANCH   6  16
TORSDOF 5
ENDMDL
