MODEL 1
REMARK VINA RESULT:      -9.0      0.000      0.000
REMARK  Name = 
REMARK  3 active torsions:
REMARK  status: ('A' for Active; 'I' for Inactive)
REMARK    1  A    between atoms: C_17  and  N_18
REMARK    2  A    between atoms: N_18  and  C_19
REMARK    3  A    between atoms: C_25  and  C_26
REMARK                            x       y       z     vdW  Elec       q    Type
REMARK                         _______ _______ _______ _____ _____    ______ ____
ROOT
ATOM      1  O   UNL     1      -0.799  11.783  22.963  0.00  0.00    +0.000 OA
ATOM      2  C   UNL     1      -0.845  11.494  21.766  0.00  0.00    +0.000 A 
ATOM      3  N   UNL     1       0.091  10.675  21.261  0.00  0.00    +0.000 N 
ATOM      4  C   UNL     1       0.181  10.318  19.950  0.00  0.00    +0.000 A 
ATOM      5  N   UNL     1       1.214   9.466  19.665  0.00  0.00    +0.000 N 
ATOM      6  C   UNL     1       1.676   8.430  20.614  0.00  0.00    +0.000 C 
ATOM      7  C   UNL     1       1.708   7.058  19.937  0.00  0.00    +0.000 C 
ATOM      8  N   UNL     1       2.544   7.112  18.743  0.00  0.00    +0.000 N 
ATOM      9  C   UNL     1       3.653   6.354  18.630  0.00  0.00    +0.000 A 
ATOM     10  N   UNL     1       4.074   5.516  19.576  0.00  0.00    +0.000 NA
ATOM     11  C   UNL     1       5.225   4.863  19.186  0.00  0.00    +0.000 A 
ATOM     12  C   UNL     1       5.706   5.190  17.943  0.00  0.00    +0.000 A 
ATOM     13  S   UNL     1       4.669   6.331  17.217  0.00  0.00    +0.000 S 
ATOM     14  C   UNL     1       2.135   8.134  17.758  0.00  0.00    +0.000 C 
ATOM     15  C   UNL     1       1.978   9.525  18.411  0.00  0.00    +0.000 C 
ATOM     16  N   UNL     1      -0.674  10.772  19.090  0.00  0.00    +0.000 NA
ATOM     17  C   UNL     1      -1.721  11.592  19.512  0.00  0.00    +0.000 A 
ATOM     18  C   UNL     1      -1.840  11.997  20.808  0.00  0.00    +0.000 A 
ATOM     19  H   UNL     1       0.800  10.380  21.918  0.00  0.00    +0.000 HD
ENDROOT
BRANCH  18  20
ATOM     20  C   UNL     1      -2.836  12.916  21.261  0.00  0.00    +0.000 A 
ATOM     21  N   UNL     1      -4.104  12.603  21.455  0.00  0.00    +0.000 NA
ATOM     22  C   UNL     1      -4.793  13.673  21.968  0.00  0.00    +0.000 A 
ATOM     23  C   UNL     1      -6.139  13.663  22.356  0.00  0.00    +0.000 A 
ATOM     24  C   UNL     1      -6.161  14.094  23.673  0.00  0.00    +0.000 A 
ATOM     25  C   UNL     1      -5.592  15.332  23.944  0.00  0.00    +0.000 A 
ATOM     26  C   UNL     1      -4.577  15.814  23.104  0.00  0.00    +0.000 A 
ATOM     27  C   UNL     1      -4.041  14.815  22.267  0.00  0.00    +0.000 A 
ATOM     28  S   UNL     1      -2.488  14.609  21.579  0.00  0.00    +0.000 S 
ENDBRANCH  18  20
BRANCH  17  29
ATOM     29  N   UNL     1      -2.637  11.992  18.519  0.00  0.00    +0.000 N 
ATOM     30  H   UNL     1      -2.984  12.934  18.712  0.00  0.00    +0.000 HD
BRANCH  29  31
ATOM     31  C   UNL     1      -3.683  11.120  17.936  0.00  0.00    +0.000 C 
ATOM     32  C   UNL     1      -3.125   9.733  17.549  0.00  0.00    +0.000 C 
ATOM     33  C   UNL     1      -2.585   9.632  16.121  0.00  0.00    +0.000 C 
ATOM     34  C   UNL     1      -3.477  10.303  15.084  0.00  0.00    +0.000 C 
ATOM     35  N   UNL     1      -3.804  11.678  15.454  0.00  0.00    +0.000 NA
ATOM     36  C   UNL     1      -4.487  11.725  16.760  0.00  0.00    +0.000 C 
ATOM     37  H   UNL     1      -4.429  12.071  14.751  0.00  0.00    +0.000 HD
ENDBRANCH  29  31
ENDBRANCH  17  29
TORSDOF 3
ENDMDL
MODEL 2
REMARK VINA RESULT:      -8.7      2.628     10.508
REMARK  Name = 
REMARK  3 active torsions:
REMARK  status: ('A' for Active; 'I' for Inactive)
REMARK    1  A    between atoms: C_17  and  N_18
REMARK    2  A    between atoms: N_18  and  C_19
REMARK    3  A    between atoms: C_25  and  C_26
REMARK                            x       y       z     vdW  Elec       q    Type
REMARK                         _______ _______ _______ _____ _____    ______ ____
ROOT
ATOM      1  O   UNL     1       3.205   8.638  16.834  0.00  0.00    +0.000 OA
ATOM      2  C   UNL     1       2.734   8.359  17.937  0.00  0.00    +0.000 A 
ATOM      3  N   UNL     1       1.922   9.244  18.537  0.00  0.00    +0.000 N 
ATOM      4  C   UNL     1       1.378   9.078  19.774  0.00  0.00    +0.000 A 
ATOM      5  N   UNL     1       0.574  10.110  20.182  0.00  0.00    +0.000 N 
ATOM      6  C   UNL     1      -0.266  10.884  19.241  0.00  0.00    +0.000 C 
ATOM      7  C   UNL     1      -1.718  10.916  19.722  0.00  0.00    +0.000 C 
ATOM      8  N   UNL     1      -1.782  11.453  21.076  0.00  0.00    +0.000 N 
ATOM      9  C   UNL     1      -2.460  12.587  21.348  0.00  0.00    +0.000 A 
ATOM     10  N   UNL     1      -3.109  13.298  20.426  0.00  0.00    +0.000 NA
ATOM     11  C   UNL     1      -3.722  14.398  20.989  0.00  0.00    +0.000 A 
ATOM     12  C   UNL     1      -3.552  14.551  22.343  0.00  0.00    +0.000 A 
ATOM     13  S   UNL     1      -2.620  13.259  22.945  0.00  0.00    +0.000 S 
ATOM     14  C   UNL     1      -0.957  10.725  22.061  0.00  0.00    +0.000 C 
ATOM     15  C   UNL     1       0.500  10.564  21.577  0.00  0.00    +0.000 C 
ATOM     16  N   UNL     1       1.627   8.008  20.460  0.00  0.00    +0.000 NA
ATOM     17  C   UNL     1       2.417   6.998  19.913  0.00  0.00    +0.000 A 
ATOM     18  C   UNL     1       3.006   7.126  18.691  0.00  0.00    +0.000 A 
ATOM     19  H   UNL     1       1.787  10.109  18.035  0.00  0.00    +0.000 HD
ENDROOT
BRANCH  18  20
ATOM     20  C   UNL     1       3.903   6.160  18.139  0.00  0.00    +0.000 A 
ATOM     21  N   UNL     1       3.597   5.339  17.152  0.00  0.00    +0.000 NA
ATOM     22  C   UNL     1       4.688   4.590  16.790  0.00  0.00    +0.000 A 
ATOM     23  C   UNL     1       4.731   3.673  15.732  0.00  0.00    +0.000 A 
ATOM     24  C   UNL     1       5.789   4.065  14.927  0.00  0.00    +0.000 A 
ATOM     25  C   UNL     1       7.038   4.163  15.528  0.00  0.00    +0.000 A 
ATOM     26  C   UNL     1       7.114   4.432  16.903  0.00  0.00    +0.000 A 
ATOM     27  C   UNL     1       5.892   4.886  17.438  0.00  0.00    +0.000 A 
ATOM     28  S   UNL     1       5.534   5.924  18.750  0.00  0.00    +0.000 S 
ENDBRANCH  18  20
BRANCH  17  29
ATOM     29  N   UNL     1       2.589   5.844  20.705  0.00  0.00    +0.000 N 
ATOM     30  H   UNL     1       3.550   5.504  20.638  0.00  0.00    +0.000 HD
BRANCH  29  31
ATOM     31  C   UNL     1       1.611   4.737  20.805  0.00  0.00    +0.000 C 
ATOM     32  C   UNL     1       2.141   3.577  21.676  0.00  0.00    +0.000 C 
ATOM     33  C   UNL     1       2.917   2.501  20.912  0.00  0.00    +0.000 C 
ATOM     34  C   UNL     1       2.265   2.100  19.596  0.00  0.00    +0.000 C 
ATOM     35  N   UNL     1       1.963   3.259  18.760  0.00  0.00    +0.000 NA
ATOM     36  C   UNL     1       1.066   4.195  19.461  0.00  0.00    +0.000 C 
ATOM     37  H   UNL     1       1.497   2.944  17.910  0.00  0.00    +0.000 HD
ENDBRANCH  29  31
ENDBRANCH  17  29
TORSDOF 3
ENDMDL
MODEL 3
REMARK VINA RESULT:      -8.6      0.958      1.288
REMARK  Name = 
REMARK  3 active torsions:
REMARK  status: ('A' for Active; 'I' for Inactive)
REMARK    1  A    between atoms: C_17  and  N_18
REMARK    2  A    between atoms: N_18  and  C_19
REMARK    3  A    between atoms: C_25  and  C_26
REMARK                            x       y       z     vdW  Elec       q    Type
REMARK                         _______ _______ _______ _____ _____    ______ ____
ROOT
ATOM      1  O   UNL     1      -0.452  11.904  22.837  0.00  0.00    +0.000 OA
ATOM      2  C   UNL     1      -0.550  11.564  21.656  0.00  0.00    +0.000 A 
ATOM      3  N   UNL     1       0.337  10.688  21.159  0.00  0.00    +0.000 N 
ATOM      4  C   UNL     1       0.368  10.271  19.864  0.00  0.00    +0.000 A 
ATOM      5  N   UNL     1       1.358   9.367  19.584  0.00  0.00    +0.000 N 
ATOM      6  C   UNL     1       1.813   8.356  20.564  0.00  0.00    +0.000 C 
ATOM      7  C   UNL     1       1.771   6.956  19.949  0.00  0.00    +0.000 C 
ATOM      8  N   UNL     1       2.567   6.924  18.727  0.00  0.00    +0.000 N 
ATOM      9  C   UNL     1       3.643   6.119  18.613  0.00  0.00    +0.000 A 
ATOM     10  N   UNL     1       4.063   5.308  19.582  0.00  0.00    +0.000 NA
ATOM     11  C   UNL     1       5.175   4.595  19.185  0.00  0.00    +0.000 A 
ATOM     12  C   UNL     1       5.626   4.847  17.913  0.00  0.00    +0.000 A 
ATOM     13  S   UNL     1       4.608   5.994  17.171  0.00  0.00    +0.000 S 
ATOM     14  C   UNL     1       2.163   7.917  17.711  0.00  0.00    +0.000 C 
ATOM     15  C   UNL     1       2.080   9.340  18.305  0.00  0.00    +0.000 C 
ATOM     16  N   UNL     1      -0.498  10.719  19.012  0.00  0.00    +0.000 NA
ATOM     17  C   UNL     1      -1.498  11.596  19.430  0.00  0.00    +0.000 A 
ATOM     18  C   UNL     1      -1.558  12.063  20.709  0.00  0.00    +0.000 A 
ATOM     19  H   UNL     1       1.056  10.395  21.805  0.00  0.00    +0.000 HD
ENDROOT
BRANCH  18  20
ATOM     20  C   UNL     1      -2.503  13.040  21.152  0.00  0.00    +0.000 A 
ATOM     21  N   UNL     1      -2.507  14.301  20.761  0.00  0.00    +0.000 NA
ATOM     22  C   UNL     1      -3.581  14.968  21.294  0.00  0.00    +0.000 A 
ATOM     23  C   UNL     1      -3.925  16.300  21.028  0.00  0.00    +0.000 A 
ATOM     24  C   UNL     1      -5.236  16.274  20.579  0.00  0.00    +0.000 A 
ATOM     25  C   UNL     1      -6.180  15.693  21.416  0.00  0.00    +0.000 A 
ATOM     26  C   UNL     1      -5.770  14.705  22.324  0.00  0.00    +0.000 A 
ATOM     27  C   UNL     1      -4.484  14.203  22.040  0.00  0.00    +0.000 A 
ATOM     28  S   UNL     1      -3.765  12.675  22.318  0.00  0.00    +0.000 S 
ENDBRANCH  18  20
BRANCH  17  29
ATOM     29  N   UNL     1      -2.433  11.988  18.450  0.00  0.00    +0.000 N 
ATOM     30  H   UNL     1      -2.741  12.948  18.613  0.00  0.00    +0.000 HD
BRANCH  29  31
ATOM     31  C   UNL     1      -3.526  11.131  17.938  0.00  0.00    +0.000 C 
ATOM     32  C   UNL     1      -3.016   9.732  17.526  0.00  0.00    +0.000 C 
ATOM     33  C   UNL     1      -2.566   9.615  16.067  0.00  0.00    +0.000 C 
ATOM     34  C   UNL     1      -3.509  10.295  15.083  0.00  0.00    +0.000 C 
ATOM     35  N   UNL     1      -3.790  11.677  15.464  0.00  0.00    +0.000 NA
ATOM     36  C   UNL     1      -4.390  11.742  16.809  0.00  0.00    +0.000 C 
ATOM     37  H   UNL     1      -4.451  12.077  14.798  0.00  0.00    +0.000 HD
ENDBRANCH  29  31
ENDBRANCH  17  29
TORSDOF 3
ENDMDL
MODEL 4
REMARK VINA RESULT:      -8.5      2.282      3.145
REMARK  Name = 
REMARK  3 active torsions:
REMARK  status: ('A' for Active; 'I' for Inactive)
REMARK    1  A    between atoms: C_17  and  N_18
REMARK    2  A    between atoms: N_18  and  C_19
REMARK    3  A    between atoms: C_25  and  C_26
REMARK                            x       y       z     vdW  Elec       q    Type
REMARK                         _______ _______ _______ _____ _____    ______ ____
ROOT
ATOM      1  O   UNL     1       0.997   9.581  23.642  0.00  0.00    +0.000 OA
ATOM      2  C   UNL     1       0.895   9.474  22.419  0.00  0.00    +0.000 A 
ATOM      3  N   UNL     1       1.409   8.389  21.819  0.00  0.00    +0.000 N 
ATOM      4  C   UNL     1       1.406   8.175  20.474  0.00  0.00    +0.000 A 
ATOM      5  N   UNL     1       1.981   6.994  20.087  0.00  0.00    +0.000 N 
ATOM      6  C   UNL     1       1.896   5.763  20.904  0.00  0.00    +0.000 C 
ATOM      7  C   UNL     1       1.367   4.598  20.064  0.00  0.00    +0.000 C 
ATOM      8  N   UNL     1       2.206   4.412  18.886  0.00  0.00    +0.000 N 
ATOM      9  C   UNL     1       2.882   3.262  18.683  0.00  0.00    +0.000 A 
ATOM     10  N   UNL     1       2.845   2.227  19.520  0.00  0.00    +0.000 NA
ATOM     11  C   UNL     1       3.618   1.184  19.054  0.00  0.00    +0.000 A 
ATOM     12  C   UNL     1       4.260   1.401  17.860  0.00  0.00    +0.000 A 
ATOM     13  S   UNL     1       3.862   2.952  17.279  0.00  0.00    +0.000 S 
ATOM     14  C   UNL     1       2.335   5.611  18.034  0.00  0.00    +0.000 C 
ATOM     15  C   UNL     1       2.762   6.849  18.851  0.00  0.00    +0.000 C 
ATOM     16  N   UNL     1       0.881   9.048  19.675  0.00  0.00    +0.000 NA
ATOM     17  C   UNL     1       0.272  10.191  20.193  0.00  0.00    +0.000 A 
ATOM     18  C   UNL     1       0.270  10.463  21.528  0.00  0.00    +0.000 A 
ATOM     19  H   UNL     1       1.883   7.744  22.435  0.00  0.00    +0.000 HD
ENDROOT
BRANCH  18  20
ATOM     20  C   UNL     1      -0.251  11.670  22.089  0.00  0.00    +0.000 A 
ATOM     21  N   UNL     1       0.308  12.857  21.949  0.00  0.00    +0.000 NA
ATOM     22  C   UNL     1      -0.468  13.829  22.531  0.00  0.00    +0.000 A 
ATOM     23  C   UNL     1      -0.204  15.204  22.504  0.00  0.00    +0.000 A 
ATOM     24  C   UNL     1      -1.338  15.801  21.976  0.00  0.00    +0.000 A 
ATOM     25  C   UNL     1      -2.543  15.555  22.622  0.00  0.00    +0.000 A 
ATOM     26  C   UNL     1      -2.696  14.364  23.348  0.00  0.00    +0.000 A 
ATOM     27  C   UNL     1      -1.697  13.414  23.056  0.00  0.00    +0.000 A 
ATOM     28  S   UNL     1      -1.702  11.704  23.080  0.00  0.00    +0.000 S 
ENDBRANCH  18  20
BRANCH  17  29
ATOM     29  N   UNL     1      -0.325  11.058  19.255  0.00  0.00    +0.000 N 
ATOM     30  H   UNL     1       0.056  12.001  19.347  0.00  0.00    +0.000 HD
BRANCH  29  31
ATOM     31  C   UNL     1      -1.766  11.069  18.916  0.00  0.00    +0.000 C 
ATOM     32  C   UNL     1      -2.225   9.724  18.309  0.00  0.00    +0.000 C 
ATOM     33  C   UNL     1      -2.114   9.635  16.785  0.00  0.00    +0.000 C 
ATOM     34  C   UNL     1      -2.595  10.888  16.065  0.00  0.00    +0.000 C 
ATOM     35  N   UNL     1      -1.967  12.096  16.594  0.00  0.00    +0.000 NA
ATOM     36  C   UNL     1      -2.243  12.248  18.034  0.00  0.00    +0.000 C 
ATOM     37  H   UNL     1      -2.346  12.908  16.107  0.00  0.00    +0.000 HD
ENDBRANCH  29  31
ENDBRANCH  17  29
TORSDOF 3
ENDMDL
MODEL 5
REMARK VINA RESULT:      -8.4      2.889      3.788
REMARK  Name = 
REMARK  3 active torsions:
REMARK  status: ('A' for Active; 'I' for Inactive)
REMARK    1  A    between atoms: C_17  and  N_18
REMARK    2  A    between atoms: N_18  and  C_19
REMARK    3  A    between atoms: C_25  and  C_26
REMARK                            x       y       z     vdW  Elec       q    Type
REMARK                         _______ _______ _______ _____ _____    ______ ____
ROOT
ATOM      1  O   UNL     1       0.463   9.686  23.881  0.00  0.00    +0.000 OA
ATOM      2  C   UNL     1       0.452   9.665  22.649  0.00  0.00    +0.000 A 
ATOM      3  N   UNL     1       1.020   8.628  22.015  0.00  0.00    +0.000 N 
ATOM      4  C   UNL     1       1.118   8.508  20.662  0.00  0.00    +0.000 A 
ATOM      5  N   UNL     1       1.732   7.361  20.237  0.00  0.00    +0.000 N 
ATOM      6  C   UNL     1       1.603   6.075  20.958  0.00  0.00    +0.000 C 
ATOM      7  C   UNL     1       1.149   4.969  20.003  0.00  0.00    +0.000 C 
ATOM      8  N   UNL     1       2.074   4.871  18.880  0.00  0.00    +0.000 N 
ATOM      9  C   UNL     1       2.776   3.743  18.647  0.00  0.00    +0.000 A 
ATOM     10  N   UNL     1       2.691   2.651  19.406  0.00  0.00    +0.000 NA
ATOM     11  C   UNL     1       3.507   1.648  18.926  0.00  0.00    +0.000 A 
ATOM     12  C   UNL     1       4.232   1.954  17.801  0.00  0.00    +0.000 A 
ATOM     13  S   UNL     1       3.858   3.539  17.300  0.00  0.00    +0.000 S 
ATOM     14  C   UNL     1       2.250   6.128  18.124  0.00  0.00    +0.000 C 
ATOM     15  C   UNL     1       2.602   7.309  19.055  0.00  0.00    +0.000 C 
ATOM     16  N   UNL     1       0.641   9.432  19.889  0.00  0.00    +0.000 NA
ATOM     17  C   UNL     1      -0.017  10.532  20.439  0.00  0.00    +0.000 A 
ATOM     18  C   UNL     1      -0.118  10.710  21.786  0.00  0.00    +0.000 A 
ATOM     19  H   UNL     1       1.456   7.944  22.618  0.00  0.00    +0.000 HD
ENDROOT
BRANCH  18  20
ATOM     20  C   UNL     1      -0.693  11.871  22.390  0.00  0.00    +0.000 A 
ATOM     21  N   UNL     1      -0.113  13.056  22.424  0.00  0.00    +0.000 NA
ATOM     22  C   UNL     1      -0.944  13.985  22.997  0.00  0.00    +0.000 A 
ATOM     23  C   UNL     1      -0.670  15.353  23.126  0.00  0.00    +0.000 A 
ATOM     24  C   UNL     1      -1.730  16.014  22.526  0.00  0.00    +0.000 A 
ATOM     25  C   UNL     1      -3.004  15.733  23.004  0.00  0.00    +0.000 A 
ATOM     26  C   UNL     1      -3.249  14.485  23.596  0.00  0.00    +0.000 A 
ATOM     27  C   UNL     1      -2.229  13.548  23.337  0.00  0.00    +0.000 A 
ATOM     28  S   UNL     1      -2.249  11.842  23.205  0.00  0.00    +0.000 S 
ENDBRANCH  18  20
BRANCH  17  29
ATOM     29  N   UNL     1      -0.554  11.458  19.523  0.00  0.00    +0.000 N 
ATOM     30  H   UNL     1      -1.369  11.063  19.050  0.00  0.00    +0.000 HD
BRANCH  29  31
ATOM     31  C   UNL     1       0.250  12.318  18.624  0.00  0.00    +0.000 C 
ATOM     32  C   UNL     1       1.755  12.258  18.966  0.00  0.00    +0.000 C 
ATOM     33  C   UNL     1       2.226  13.299  19.985  0.00  0.00    +0.000 C 
ATOM     34  C   UNL     1       1.653  14.689  19.744  0.00  0.00    +0.000 C 
ATOM     35  N   UNL     1       0.199  14.665  19.612  0.00  0.00    +0.000 NA
ATOM     36  C   UNL     1      -0.216  13.789  18.502  0.00  0.00    +0.000 C 
ATOM     37  H   UNL     1      -0.133  15.609  19.416  0.00  0.00    +0.000 HD
ENDBRANCH  29  31
ENDBRANCH  17  29
TORSDOF 3
ENDMDL
MODEL 6
REMARK VINA RESULT:      -8.2      0.870      1.459
REMARK  Name = 
REMARK  3 active torsions:
REMARK  status: ('A' for Active; 'I' for Inactive)
REMARK    1  A    between atoms: C_17  and  N_18
REMARK    2  A    between atoms: N_18  and  C_19
REMARK    3  A    between atoms: C_25  and  C_26
REMARK                            x       y       z     vdW  Elec       q    Type
REMARK                         _______ _______ _______ _____ _____    ______ ____
ROOT
ATOM      1  O   UNL     1      -0.941  11.937  22.881  0.00  0.00    +0.000 OA
ATOM      2  C   UNL     1      -0.998  11.620  21.691  0.00  0.00    +0.000 A 
ATOM      3  N   UNL     1      -0.058  10.801  21.193  0.00  0.00    +0.000 N 
ATOM      4  C   UNL     1       0.020  10.416  19.890  0.00  0.00    +0.000 A 
ATOM      5  N   UNL     1       1.060   9.571  19.611  0.00  0.00    +0.000 N 
ATOM      6  C   UNL     1       1.549   8.563  20.578  0.00  0.00    +0.000 C 
ATOM      7  C   UNL     1       1.591   7.177  19.932  0.00  0.00    +0.000 C 
ATOM      8  N   UNL     1       2.410   7.214  18.726  0.00  0.00    +0.000 N 
ATOM      9  C   UNL     1       3.528   6.468  18.616  0.00  0.00    +0.000 A 
ATOM     10  N   UNL     1       3.972   5.658  19.576  0.00  0.00    +0.000 NA
ATOM     11  C   UNL     1       5.127   5.012  19.186  0.00  0.00    +0.000 A 
ATOM     12  C   UNL     1       5.588   5.316  17.929  0.00  0.00    +0.000 A 
ATOM     13  S   UNL     1       4.526   6.425  17.191  0.00  0.00    +0.000 S 
ATOM     14  C   UNL     1       1.974   8.207  17.724  0.00  0.00    +0.000 C 
ATOM     15  C   UNL     1       1.807   9.611  18.346  0.00  0.00    +0.000 C 
ATOM     16  N   UNL     1      -0.852  10.838  19.031  0.00  0.00    +0.000 NA
ATOM     17  C   UNL     1      -1.904  11.653  19.447  0.00  0.00    +0.000 A 
ATOM     18  C   UNL     1      -2.013  12.087  20.735  0.00  0.00    +0.000 A 
ATOM     19  H   UNL     1       0.664  10.531  21.847  0.00  0.00    +0.000 HD
ENDROOT
BRANCH  18  20
ATOM     20  C   UNL     1      -3.015  13.004  21.179  0.00  0.00    +0.000 A 
ATOM     21  N   UNL     1      -4.264  12.668  21.444  0.00  0.00    +0.000 NA
ATOM     22  C   UNL     1      -4.962  13.746  21.927  0.00  0.00    +0.000 A 
ATOM     23  C   UNL     1      -6.290  13.722  22.372  0.00  0.00    +0.000 A 
ATOM     24  C   UNL     1      -6.271  14.224  23.664  0.00  0.00    +0.000 A 
ATOM     25  C   UNL     1      -5.727  15.490  23.843  0.00  0.00    +0.000 A 
ATOM     26  C   UNL     1      -4.761  15.951  22.937  0.00  0.00    +0.000 A 
ATOM     27  C   UNL     1      -4.232  14.922  22.132  0.00  0.00    +0.000 A 
ATOM     28  S   UNL     1      -2.703  14.719  21.392  0.00  0.00    +0.000 S 
ENDBRANCH  18  20
BRANCH  17  29
ATOM     29  N   UNL     1      -2.839  12.019  18.458  0.00  0.00    +0.000 N 
ATOM     30  H   UNL     1      -3.261  12.922  18.680  0.00  0.00    +0.000 HD
BRANCH  29  31
ATOM     31  C   UNL     1      -3.807  11.090  17.829  0.00  0.00    +0.000 C 
ATOM     32  C   UNL     1      -4.529  11.739  16.627  0.00  0.00    +0.000 C 
ATOM     33  C   UNL     1      -5.826  12.473  16.974  0.00  0.00    +0.000 C 
ATOM     34  C   UNL     1      -6.713  11.713  17.951  0.00  0.00    +0.000 C 
ATOM     35  N   UNL     1      -5.980  11.296  19.143  0.00  0.00    +0.000 NA
ATOM     36  C   UNL     1      -4.835  10.438  18.785  0.00  0.00    +0.000 C 
ATOM     37  H   UNL     1      -6.604  10.761  19.747  0.00  0.00    +0.000 HD
ENDBRANCH  29  31
ENDBRANCH  17  29
TORSDOF 3
ENDMDL
MODEL 7
REMARK VINA RESULT:      -7.9      1.239      1.763
REMARK  Name = 
REMARK  3 active torsions:
REMARK  status: ('A' for Active; 'I' for Inactive)
REMARK    1  A    between atoms: C_17  and  N_18
REMARK    2  A    between atoms: N_18  and  C_19
REMARK    3  A    between atoms: C_25  and  C_26
REMARK                            x       y       z     vdW  Elec       q    Type
REMARK                         _______ _______ _______ _____ _____    ______ ____
ROOT
ATOM      1  O   UNL     1      -0.494  12.120  23.032  0.00  0.00    +0.000 OA
ATOM      2  C   UNL     1      -0.653  11.756  21.865  0.00  0.00    +0.000 A 
ATOM      3  N   UNL     1       0.228  10.896  21.330  0.00  0.00    +0.000 N 
ATOM      4  C   UNL     1       0.193  10.456  20.042  0.00  0.00    +0.000 A 
ATOM      5  N   UNL     1       1.190   9.575  19.717  0.00  0.00    +0.000 N 
ATOM      6  C   UNL     1       1.733   8.596  20.685  0.00  0.00    +0.000 C 
ATOM      7  C   UNL     1       1.695   7.184  20.097  0.00  0.00    +0.000 C 
ATOM      8  N   UNL     1       2.416   7.152  18.829  0.00  0.00    +0.000 N 
ATOM      9  C   UNL     1       3.506   6.376  18.664  0.00  0.00    +0.000 A 
ATOM     10  N   UNL     1       4.008   5.595  19.619  0.00  0.00    +0.000 NA
ATOM     11  C   UNL     1       5.114   4.905  19.167  0.00  0.00    +0.000 A 
ATOM     12  C   UNL     1       5.479   5.147  17.866  0.00  0.00    +0.000 A 
ATOM     13  S   UNL     1       4.385   6.251  17.167  0.00  0.00    +0.000 S 
ATOM     14  C   UNL     1       1.922   8.114  17.824  0.00  0.00    +0.000 C 
ATOM     15  C   UNL     1       1.835   9.545  18.397  0.00  0.00    +0.000 C 
ATOM     16  N   UNL     1      -0.736  10.863  19.237  0.00  0.00    +0.000 NA
ATOM     17  C   UNL     1      -1.734  11.720  19.700  0.00  0.00    +0.000 A 
ATOM     18  C   UNL     1      -1.730  12.209  20.973  0.00  0.00    +0.000 A 
ATOM     19  H   UNL     1       0.993  10.635  21.935  0.00  0.00    +0.000 HD
ENDROOT
BRANCH  18  20
ATOM     20  C   UNL     1      -2.674  13.166  21.456  0.00  0.00    +0.000 A 
ATOM     21  N   UNL     1      -2.772  14.405  21.010  0.00  0.00    +0.000 NA
ATOM     22  C   UNL     1      -3.822  15.053  21.609  0.00  0.00    +0.000 A 
ATOM     23  C   UNL     1      -4.249  16.355  21.315  0.00  0.00    +0.000 A 
ATOM     24  C   UNL     1      -5.593  16.253  20.991  0.00  0.00    +0.000 A 
ATOM     25  C   UNL     1      -6.430  15.675  21.938  0.00  0.00    +0.000 A 
ATOM     26  C   UNL     1      -5.894  14.752  22.848  0.00  0.00    +0.000 A 
ATOM     27  C   UNL     1      -4.618  14.290  22.470  0.00  0.00    +0.000 A 
ATOM     28  S   UNL     1      -3.808  12.809  22.749  0.00  0.00    +0.000 S 
ENDBRANCH  18  20
BRANCH  17  29
ATOM     29  N   UNL     1      -2.737  12.067  18.773  0.00  0.00    +0.000 N 
ATOM     30  H   UNL     1      -2.787  13.082  18.664  0.00  0.00    +0.000 HD
BRANCH  29  31
ATOM     31  C   UNL     1      -4.072  11.431  18.698  0.00  0.00    +0.000 C 
ATOM     32  C   UNL     1      -4.418  10.987  17.259  0.00  0.00    +0.000 C 
ATOM     33  C   UNL     1      -5.139  12.040  16.416  0.00  0.00    +0.000 C 
ATOM     34  C   UNL     1      -6.242  12.772  17.169  0.00  0.00    +0.000 C 
ATOM     35  N   UNL     1      -5.769  13.313  18.440  0.00  0.00    +0.000 NA
ATOM     36  C   UNL     1      -5.242  12.243  19.305  0.00  0.00    +0.000 C 
ATOM     37  H   UNL     1      -6.549  13.760  18.922  0.00  0.00    +0.000 HD
ENDBRANCH  29  31
ENDBRANCH  17  29
TORSDOF 3
ENDMDL
MODEL 8
REMARK VINA RESULT:      -7.5      2.733      3.450
REMARK  Name = 
REMARK  3 active torsions:
REMARK  status: ('A' for Active; 'I' for Inactive)
REMARK    1  A    between atoms: C_17  and  N_18
REMARK    2  A    between atoms: N_18  and  C_19
REMARK    3  A    between atoms: C_25  and  C_26
REMARK                            x       y       z     vdW  Elec       q    Type
REMARK                         _______ _______ _______ _____ _____    ______ ____
ROOT
ATOM      1  O   UNL     1       0.248   9.815  23.863  0.00  0.00    +0.000 OA
ATOM      2  C   UNL     1       0.262   9.769  22.632  0.00  0.00    +0.000 A 
ATOM      3  N   UNL     1       0.866   8.733  22.030  0.00  0.00    +0.000 N 
ATOM      4  C   UNL     1       0.993   8.588  20.682  0.00  0.00    +0.000 A 
ATOM      5  N   UNL     1       1.643   7.447  20.293  0.00  0.00    +0.000 N 
ATOM      6  C   UNL     1       1.529   6.174  21.038  0.00  0.00    +0.000 C 
ATOM      7  C   UNL     1       1.120   5.038  20.098  0.00  0.00    +0.000 C 
ATOM      8  N   UNL     1       2.069   4.939  18.994  0.00  0.00    +0.000 N 
ATOM      9  C   UNL     1       2.801   3.824  18.799  0.00  0.00    +0.000 A 
ATOM     10  N   UNL     1       2.727   2.746  19.578  0.00  0.00    +0.000 NA
ATOM     11  C   UNL     1       3.576   1.753  19.136  0.00  0.00    +0.000 A 
ATOM     12  C   UNL     1       4.316   2.052  18.018  0.00  0.00    +0.000 A 
ATOM     13  S   UNL     1       3.915   3.617  17.478  0.00  0.00    +0.000 S 
ATOM     14  C   UNL     1       2.231   6.184  18.216  0.00  0.00    +0.000 C 
ATOM     15  C   UNL     1       2.537   7.392  19.129  0.00  0.00    +0.000 C 
ATOM     16  N   UNL     1       0.511   9.484  19.881  0.00  0.00    +0.000 NA
ATOM     17  C   UNL     1      -0.183  10.579  20.395  0.00  0.00    +0.000 A 
ATOM     18  C   UNL     1      -0.316  10.782  21.736  0.00  0.00    +0.000 A 
ATOM     19  H   UNL     1       1.306   8.072  22.655  0.00  0.00    +0.000 HD
ENDROOT
BRANCH  18  20
ATOM     20  C   UNL     1      -0.929  11.941  22.304  0.00  0.00    +0.000 A 
ATOM     21  N   UNL     1      -2.146  11.963  22.816  0.00  0.00    +0.000 NA
ATOM     22  C   UNL     1      -2.422  13.193  23.356  0.00  0.00    +0.000 A 
ATOM     23  C   UNL     1      -3.595  13.537  24.040  0.00  0.00    +0.000 A 
ATOM     24  C   UNL     1      -3.190  14.022  25.274  0.00  0.00    +0.000 A 
ATOM     25  C   UNL     1      -2.303  15.092  25.274  0.00  0.00    +0.000 A 
ATOM     26  C   UNL     1      -1.445  15.265  24.178  0.00  0.00    +0.000 A 
ATOM     27  C   UNL     1      -1.378  14.125  23.351  0.00  0.00    +0.000 A 
ATOM     28  S   UNL     1      -0.134  13.507  22.353  0.00  0.00    +0.000 S 
ENDBRANCH  18  20
BRANCH  17  29
ATOM     29  N   UNL     1      -0.724  11.474  19.450  0.00  0.00    +0.000 N 
ATOM     30  H   UNL     1      -1.621  11.129  19.103  0.00  0.00    +0.000 HD
BRANCH  29  31
ATOM     31  C   UNL     1       0.057  12.157  18.394  0.00  0.00    +0.000 C 
ATOM     32  C   UNL     1       1.575  12.111  18.679  0.00  0.00    +0.000 C 
ATOM     33  C   UNL     1       2.112  13.286  19.500  0.00  0.00    +0.000 C 
ATOM     34  C   UNL     1       1.559  14.636  19.064  0.00  0.00    +0.000 C 
ATOM     35  N   UNL     1       0.100  14.632  18.997  0.00  0.00    +0.000 NA
ATOM     36  C   UNL     1      -0.382  13.603  18.058  0.00  0.00    +0.000 C 
ATOM     37  H   UNL     1      -0.220  15.542  18.667  0.00  0.00    +0.000 HD
ENDBRANCH  29  31
ENDBRANCH  17  29
TORSDOF 3
ENDMDL
MODEL 9
REMARK VINA RESULT:      -7.4      1.963      2.637
REMARK  Name = 
REMARK  3 active torsions:
REMARK  status: ('A' for Active; 'I' for Inactive)
REMARK    1  A    between atoms: C_17  and  N_18
REMARK    2  A    between atoms: N_18  and  C_19
REMARK    3  A    between atoms: C_25  and  C_26
REMARK                            x       y       z     vdW  Elec       q    Type
REMARK                         _______ _______ _______ _____ _____    ______ ____
ROOT
ATOM      1  O   UNL     1       0.922  11.221  21.950  0.00  0.00    +0.000 OA
ATOM      2  C   UNL     1       0.691  10.615  20.902  0.00  0.00    +0.000 A 
ATOM      3  N   UNL     1       1.293   9.434  20.690  0.00  0.00    +0.000 N 
ATOM      4  C   UNL     1       1.162   8.691  19.557  0.00  0.00    +0.000 A 
ATOM      5  N   UNL     1       1.864   7.516  19.566  0.00  0.00    +0.000 N 
ATOM      6  C   UNL     1       2.073   6.723  20.797  0.00  0.00    +0.000 C 
ATOM      7  C   UNL     1       1.637   5.273  20.582  0.00  0.00    +0.000 C 
ATOM      8  N   UNL     1       2.346   4.703  19.442  0.00  0.00    +0.000 N 
ATOM      9  C   UNL     1       3.165   3.641  19.586  0.00  0.00    +0.000 A 
ATOM     10  N   UNL     1       3.393   3.039  20.752  0.00  0.00    +0.000 NA
ATOM     11  C   UNL     1       4.259   1.976  20.601  0.00  0.00    +0.000 A 
ATOM     12  C   UNL     1       4.710   1.748  19.325  0.00  0.00    +0.000 A 
ATOM     13  S   UNL     1       4.004   2.881  18.265  0.00  0.00    +0.000 S 
ATOM     14  C   UNL     1       2.181   5.457  18.182  0.00  0.00    +0.000 C 
ATOM     15  C   UNL     1       2.503   6.956  18.367  0.00  0.00    +0.000 C 
ATOM     16  N   UNL     1       0.412   9.108  18.587  0.00  0.00    +0.000 NA
ATOM     17  C   UNL     1      -0.302  10.299  18.717  0.00  0.00    +0.000 A 
ATOM     18  C   UNL     1      -0.185  11.091  19.820  0.00  0.00    +0.000 A 
ATOM     19  H   UNL     1       1.934   9.145  21.416  0.00  0.00    +0.000 HD
ENDROOT
BRANCH  18  20
ATOM     20  C   UNL     1      -0.818  12.365  19.951  0.00  0.00    +0.000 A 
ATOM     21  N   UNL     1      -2.045  12.543  20.404  0.00  0.00    +0.000 NA
ATOM     22  C   UNL     1      -2.341  13.880  20.489  0.00  0.00    +0.000 A 
ATOM     23  C   UNL     1      -3.530  14.420  20.996  0.00  0.00    +0.000 A 
ATOM     24  C   UNL     1      -3.153  15.301  21.998  0.00  0.00    +0.000 A 
ATOM     25  C   UNL     1      -2.274  16.318  21.648  0.00  0.00    +0.000 A 
ATOM     26  C   UNL     1      -1.395  16.120  20.573  0.00  0.00    +0.000 A 
ATOM     27  C   UNL     1      -1.304  14.768  20.185  0.00  0.00    +0.000 A 
ATOM     28  S   UNL     1      -0.035  13.865  19.477  0.00  0.00    +0.000 S 
ENDBRANCH  18  20
BRANCH  17  29
ATOM     29  N   UNL     1      -1.136  10.647  17.637  0.00  0.00    +0.000 N 
ATOM     30  H   UNL     1      -1.175  11.662  17.526  0.00  0.00    +0.000 HD
BRANCH  29  31
ATOM     31  C   UNL     1      -2.436  10.003  17.334  0.00  0.00    +0.000 C 
ATOM     32  C   UNL     1      -2.570   9.655  15.835  0.00  0.00    +0.000 C 
ATOM     33  C   UNL     1      -3.188  10.756  14.971  0.00  0.00    +0.000 C 
ATOM     34  C   UNL     1      -4.399  11.423  15.610  0.00  0.00    +0.000 C 
ATOM     35  N   UNL     1      -4.117  11.881  16.967  0.00  0.00    +0.000 NA
ATOM     36  C   UNL     1      -3.694  10.759  17.825  0.00  0.00    +0.000 C 
ATOM     37  H   UNL     1      -4.965  12.286  17.364  0.00  0.00    +0.000 HD
ENDBRANCH  29  31
ENDBRANCH  17  29
TORSDOF 3
ENDMDL
