MODEL 1
REMARK VINA RESULT:      -7.3      0.000      0.000
REMARK  Name = 
REMARK  5 active torsions:
REMARK  status: ('A' for Active; 'I' for Inactive)
REMARK    1  A    between atoms: C_1  and  O_2
REMARK    2  A    between atoms: O_2  and  C_3
REMARK    3  A    between atoms: C_7  and  C_8
REMARK    4  A    between atoms: C_9  and  C_10
REMARK    5  A    between atoms: C_10  and  C_12
REMARK                            x       y       z     vdW  Elec       q    Type
REMARK                         _______ _______ _______ _____ _____    ______ ____
ROOT
ATOM      1  C   UNL     1       5.967   4.577  16.036  0.00  0.00    +0.000 C 
ATOM      2  C   UNL     1       6.831   5.055  16.943  0.00  0.00    +0.000 C 
ENDROOT
BRANCH   1   7
ATOM      3  C   UNL     1       5.932   3.434  12.418  0.00  0.00    +0.000 A 
ATOM      4  C   UNL     1       7.013   4.157  11.915  0.00  0.00    +0.000 A 
ATOM      5  C   UNL     1       7.753   4.996  12.747  0.00  0.00    +0.000 A 
ATOM      6  C   UNL     1       7.406   5.125  14.093  0.00  0.00    +0.000 A 
ATOM      7  C   UNL     1       6.316   4.422  14.613  0.00  0.00    +0.000 A 
ATOM      8  C   UNL     1       5.597   3.561  13.768  0.00  0.00    +0.000 A 
BRANCH   3  10
ATOM      9  C   UNL     1       3.980   3.044  11.118  0.00  0.00    +0.000 C 
ATOM     10  O   UNL     1       5.287   2.640  11.509  0.00  0.00    +0.000 OA
ENDBRANCH   3  10
ENDBRANCH   1   7
BRANCH   2  11
ATOM     11  C   UNL     1       6.452   5.183  18.375  0.00  0.00    +0.000 C 
ATOM     12  O   UNL     1       7.277   5.125  19.278  0.00  0.00    +0.000 OA
BRANCH  11  13
ATOM     13  C   UNL     1       5.002   5.335  18.672  0.00  0.00    +0.000 A 
ATOM     14  C   UNL     1       4.300   6.384  18.068  0.00  0.00    +0.000 A 
ATOM     15  C   UNL     1       2.939   6.558  18.330  0.00  0.00    +0.000 A 
ATOM     16  C   UNL     1       2.274   5.682  19.188  0.00  0.00    +0.000 A 
ATOM     17  C   UNL     1       2.970   4.627  19.776  0.00  0.00    +0.000 A 
ATOM     18  I   UNL     1       1.980   3.311  21.047  0.00  0.00    +0.000 I 
ATOM     19  C   UNL     1       4.329   4.443  19.519  0.00  0.00    +0.000 A 
ENDBRANCH  11  13
ENDBRANCH   2  11
TORSDOF 4
ENDMDL
MODEL 2
REMARK VINA RESULT:      -7.0      5.084      7.312
REMARK  Name = 
REMARK  5 active torsions:
REMARK  status: ('A' for Active; 'I' for Inactive)
REMARK    1  A    between atoms: C_1  and  O_2
REMARK    2  A    between atoms: O_2  and  C_3
REMARK    3  A    between atoms: C_7  and  C_8
REMARK    4  A    between atoms: C_9  and  C_10
REMARK    5  A    between atoms: C_10  and  C_12
REMARK                            x       y       z     vdW  Elec       q    Type
REMARK                         _______ _______ _______ _____ _____    ______ ____
ROOT
ATOM      1  C   UNL     1       7.888   8.919  17.521  0.00  0.00    +0.000 C 
ATOM      2  C   UNL     1       7.829   7.653  17.960  0.00  0.00    +0.000 C 
ENDROOT
BRANCH   1   7
ATOM      3  C   UNL     1       9.357  12.286  18.468  0.00  0.00    +0.000 A 
ATOM      4  C   UNL     1       9.865  11.993  19.734  0.00  0.00    +0.000 A 
ATOM      5  C   UNL     1       9.741  10.710  20.267  0.00  0.00    +0.000 A 
ATOM      6  C   UNL     1       9.096   9.711  19.536  0.00  0.00    +0.000 A 
ATOM      7  C   UNL     1       8.567   9.988  18.272  0.00  0.00    +0.000 A 
ATOM      8  C   UNL     1       8.723  11.278  17.739  0.00  0.00    +0.000 A 
BRANCH   3  10
ATOM      9  C   UNL     1      10.043  14.496  19.014  0.00  0.00    +0.000 C 
ATOM     10  O   UNL     1       9.545  13.575  18.050  0.00  0.00    +0.000 OA
ENDBRANCH   3  10
ENDBRANCH   1   7
BRANCH   2  11
ATOM     11  C   UNL     1       7.150   6.594  17.168  0.00  0.00    +0.000 C 
ATOM     12  O   UNL     1       7.648   6.111  16.159  0.00  0.00    +0.000 OA
BRANCH  11  13
ATOM     13  C   UNL     1       5.800   6.174  17.631  0.00  0.00    +0.000 A 
ATOM     14  C   UNL     1       4.717   7.030  17.402  0.00  0.00    +0.000 A 
ATOM     15  C   UNL     1       3.436   6.668  17.828  0.00  0.00    +0.000 A 
ATOM     16  C   UNL     1       3.233   5.449  18.475  0.00  0.00    +0.000 A 
ATOM     17  C   UNL     1       4.309   4.589  18.687  0.00  0.00    +0.000 A 
ATOM     18  I   UNL     1       4.008   2.766  19.641  0.00  0.00    +0.000 I 
ATOM     19  C   UNL     1       5.591   4.940  18.263  0.00  0.00    +0.000 A 
ENDBRANCH  11  13
ENDBRANCH   2  11
TORSDOF 4
ENDMDL
MODEL 3
REMARK VINA RESULT:      -6.9      3.859      7.842
REMARK  Name = 
REMARK  5 active torsions:
REMARK  status: ('A' for Active; 'I' for Inactive)
REMARK    1  A    between atoms: C_1  and  O_2
REMARK    2  A    between atoms: O_2  and  C_3
REMARK    3  A    between atoms: C_7  and  C_8
REMARK    4  A    between atoms: C_9  and  C_10
REMARK    5  A    between atoms: C_10  and  C_12
REMARK                            x       y       z     vdW  Elec       q    Type
REMARK                         _______ _______ _______ _____ _____    ______ ____
ROOT
ATOM      1  C   UNL     1       2.865   6.672  19.318  0.00  0.00    +0.000 C 
ATOM      2  C   UNL     1       2.577   5.576  18.601  0.00  0.00    +0.000 C 
ENDROOT
BRANCH   1   7
ATOM      3  C   UNL     1       0.614   9.520  20.423  0.00  0.00    +0.000 A 
ATOM      4  C   UNL     1       0.421  10.176  19.208  0.00  0.00    +0.000 A 
ATOM      5  C   UNL     1       1.007   9.689  18.039  0.00  0.00    +0.000 A 
ATOM      6  C   UNL     1       1.801   8.542  18.085  0.00  0.00    +0.000 A 
ATOM      7  C   UNL     1       2.020   7.879  19.295  0.00  0.00    +0.000 A 
ATOM      8  C   UNL     1       1.402   8.368  20.458  0.00  0.00    +0.000 A 
BRANCH   3  10
ATOM      9  C   UNL     1       0.041   9.369  22.725  0.00  0.00    +0.000 C 
ATOM     10  O   UNL     1      -0.015  10.087  21.498  0.00  0.00    +0.000 OA
ENDBRANCH   3  10
ENDBRANCH   1   7
BRANCH   2  11
ATOM     11  C   UNL     1       3.442   4.369  18.661  0.00  0.00    +0.000 C 
ATOM     12  O   UNL     1       3.140   3.378  19.314  0.00  0.00    +0.000 OA
BRANCH  11  13
ATOM     13  C   UNL     1       4.733   4.433  17.923  0.00  0.00    +0.000 A 
ATOM     14  C   UNL     1       5.909   4.649  18.649  0.00  0.00    +0.000 A 
ATOM     15  C   UNL     1       7.138   4.720  17.987  0.00  0.00    +0.000 A 
ATOM     16  C   UNL     1       7.195   4.566  16.602  0.00  0.00    +0.000 A 
ATOM     17  C   UNL     1       6.025   4.333  15.882  0.00  0.00    +0.000 A 
ATOM     18  I   UNL     1       6.109   4.091  13.817  0.00  0.00    +0.000 I 
ATOM     19  C   UNL     1       4.794   4.258  16.534  0.00  0.00    +0.000 A 
ENDBRANCH  11  13
ENDBRANCH   2  11
TORSDOF 4
ENDMDL
MODEL 4
REMARK VINA RESULT:      -6.9      4.560      6.891
REMARK  Name = 
REMARK  5 active torsions:
REMARK  status: ('A' for Active; 'I' for Inactive)
REMARK    1  A    between atoms: C_1  and  O_2
REMARK    2  A    between atoms: O_2  and  C_3
REMARK    3  A    between atoms: C_7  and  C_8
REMARK    4  A    between atoms: C_9  and  C_10
REMARK    5  A    between atoms: C_10  and  C_12
REMARK                            x       y       z     vdW  Elec       q    Type
REMARK                         _______ _______ _______ _____ _____    ______ ____
ROOT
ATOM      1  C   UNL     1       2.426   7.381  18.185  0.00  0.00    +0.000 C 
ATOM      2  C   UNL     1       1.955   7.933  19.314  0.00  0.00    +0.000 C 
ENDROOT
BRANCH   1   7
ATOM      3  C   UNL     1       4.957   4.560  18.343  0.00  0.00    +0.000 A 
ATOM      4  C   UNL     1       4.133   3.466  18.079  0.00  0.00    +0.000 A 
ATOM      5  C   UNL     1       2.771   3.647  17.841  0.00  0.00    +0.000 A 
ATOM      6  C   UNL     1       2.222   4.930  17.874  0.00  0.00    +0.000 A 
ATOM      7  C   UNL     1       3.028   6.038  18.152  0.00  0.00    +0.000 A 
ATOM      8  C   UNL     1       4.402   5.841  18.364  0.00  0.00    +0.000 A 
BRANCH   3  10
ATOM      9  C   UNL     1       7.234   5.120  17.950  0.00  0.00    +0.000 C 
ATOM     10  O   UNL     1       6.275   4.259  18.554  0.00  0.00    +0.000 OA
ENDBRANCH   3  10
ENDBRANCH   1   7
BRANCH   2  11
ATOM     11  C   UNL     1       1.337   9.285  19.309  0.00  0.00    +0.000 C 
ATOM     12  O   UNL     1       1.443  10.050  18.359  0.00  0.00    +0.000 OA
BRANCH  11  13
ATOM     13  C   UNL     1       0.617   9.697  20.545  0.00  0.00    +0.000 A 
ATOM     14  C   UNL     1       0.295   8.717  21.490  0.00  0.00    +0.000 A 
ATOM     15  C   UNL     1      -0.385   9.069  22.659  0.00  0.00    +0.000 A 
ATOM     16  C   UNL     1      -0.737  10.399  22.890  0.00  0.00    +0.000 A 
ATOM     17  C   UNL     1      -0.400  11.377  21.956  0.00  0.00    +0.000 A 
ATOM     18  I   UNL     1      -0.912  13.363  22.303  0.00  0.00    +0.000 I 
ATOM     19  C   UNL     1       0.282  11.036  20.787  0.00  0.00    +0.000 A 
ENDBRANCH  11  13
ENDBRANCH   2  11
TORSDOF 4
ENDMDL
MODEL 5
REMARK VINA RESULT:      -6.9      1.503      1.880
REMARK  Name = 
REMARK  5 active torsions:
REMARK  status: ('A' for Active; 'I' for Inactive)
REMARK    1  A    between atoms: C_1  and  O_2
REMARK    2  A    between atoms: O_2  and  C_3
REMARK    3  A    between atoms: C_7  and  C_8
REMARK    4  A    between atoms: C_9  and  C_10
REMARK    5  A    between atoms: C_10  and  C_12
REMARK                            x       y       z     vdW  Elec       q    Type
REMARK                         _______ _______ _______ _____ _____    ______ ____
ROOT
ATOM      1  C   UNL     1       6.168   4.976  15.767  0.00  0.00    +0.000 C 
ATOM      2  C   UNL     1       6.804   4.424  16.811  0.00  0.00    +0.000 C 
ENDROOT
BRANCH   1   7
ATOM      3  C   UNL     1       6.081   3.265  12.382  0.00  0.00    +0.000 A 
ATOM      4  C   UNL     1       7.089   3.966  11.719  0.00  0.00    +0.000 A 
ATOM      5  C   UNL     1       7.797   4.975  12.371  0.00  0.00    +0.000 A 
ATOM      6  C   UNL     1       7.491   5.296  13.694  0.00  0.00    +0.000 A 
ATOM      7  C   UNL     1       6.475   4.617  14.372  0.00  0.00    +0.000 A 
ATOM      8  C   UNL     1       5.789   3.586  13.709  0.00  0.00    +0.000 A 
BRANCH   3  10
ATOM      9  C   UNL     1       6.294   1.274  11.101  0.00  0.00    +0.000 C 
ATOM     10  O   UNL     1       5.462   2.295  11.642  0.00  0.00    +0.000 OA
ENDBRANCH   3  10
ENDBRANCH   1   7
BRANCH   2  11
ATOM     11  C   UNL     1       6.458   4.797  18.207  0.00  0.00    +0.000 C 
ATOM     12  O   UNL     1       7.299   4.862  19.095  0.00  0.00    +0.000 OA
BRANCH  11  13
ATOM     13  C   UNL     1       5.020   5.042  18.498  0.00  0.00    +0.000 A 
ATOM     14  C   UNL     1       4.266   4.009  19.067  0.00  0.00    +0.000 A 
ATOM     15  C   UNL     1       2.911   4.205  19.348  0.00  0.00    +0.000 A 
ATOM     16  C   UNL     1       2.309   5.432  19.071  0.00  0.00    +0.000 A 
ATOM     17  C   UNL     1       3.065   6.466  18.521  0.00  0.00    +0.000 A 
ATOM     18  I   UNL     1       2.174   8.301  18.117  0.00  0.00    +0.000 I 
ATOM     19  C   UNL     1       4.419   6.282  18.239  0.00  0.00    +0.000 A 
ENDBRANCH  11  13
ENDBRANCH   2  11
TORSDOF 4
ENDMDL
MODEL 6
REMARK VINA RESULT:      -6.9      4.422      8.603
REMARK  Name = 
REMARK  5 active torsions:
REMARK  status: ('A' for Active; 'I' for Inactive)
REMARK    1  A    between atoms: C_1  and  O_2
REMARK    2  A    between atoms: O_2  and  C_3
REMARK    3  A    between atoms: C_7  and  C_8
REMARK    4  A    between atoms: C_9  and  C_10
REMARK    5  A    between atoms: C_10  and  C_12
REMARK                            x       y       z     vdW  Elec       q    Type
REMARK                         _______ _______ _______ _____ _____    ______ ____
ROOT
ATOM      1  C   UNL     1       2.100   7.017  20.285  0.00  0.00    +0.000 C 
ATOM      2  C   UNL     1       1.630   5.886  20.830  0.00  0.00    +0.000 C 
ENDROOT
BRANCH   1   7
ATOM      3  C   UNL     1       0.354   9.990  21.868  0.00  0.00    +0.000 A 
ATOM      4  C   UNL     1       0.168  10.800  20.748  0.00  0.00    +0.000 A 
ATOM      5  C   UNL     1       0.595  10.376  19.489  0.00  0.00    +0.000 A 
ATOM      6  C   UNL     1       1.222   9.138  19.347  0.00  0.00    +0.000 A 
ATOM      7  C   UNL     1       1.433   8.318  20.459  0.00  0.00    +0.000 A 
ATOM      8  C   UNL     1       0.973   8.748  21.715  0.00  0.00    +0.000 A 
BRANCH   3  10
ATOM      9  C   UNL     1      -1.154  11.473  22.953  0.00  0.00    +0.000 C 
ATOM     10  O   UNL     1      -0.112  10.508  23.046  0.00  0.00    +0.000 OA
ENDBRANCH   3  10
ENDBRANCH   1   7
BRANCH   2  11
ATOM     11  C   UNL     1       2.339   4.592  20.649  0.00  0.00    +0.000 C 
ATOM     12  O   UNL     1       2.380   3.739  21.527  0.00  0.00    +0.000 OA
BRANCH  11  13
ATOM     13  C   UNL     1       3.048   4.392  19.356  0.00  0.00    +0.000 A 
ATOM     14  C   UNL     1       2.329   3.881  18.269  0.00  0.00    +0.000 A 
ATOM     15  C   UNL     1       2.967   3.677  17.043  0.00  0.00    +0.000 A 
ATOM     16  C   UNL     1       4.318   3.990  16.895  0.00  0.00    +0.000 A 
ATOM     17  C   UNL     1       5.028   4.516  17.973  0.00  0.00    +0.000 A 
ATOM     18  I   UNL     1       7.041   4.995  17.755  0.00  0.00    +0.000 I 
ATOM     19  C   UNL     1       4.401   4.726  19.202  0.00  0.00    +0.000 A 
ENDBRANCH  11  13
ENDBRANCH   2  11
TORSDOF 4
ENDMDL
MODEL 7
REMARK VINA RESULT:      -6.9      1.082      1.156
REMARK  Name = 
REMARK  5 active torsions:
REMARK  status: ('A' for Active; 'I' for Inactive)
REMARK    1  A    between atoms: C_1  and  O_2
REMARK    2  A    between atoms: O_2  and  C_3
REMARK    3  A    between atoms: C_7  and  C_8
REMARK    4  A    between atoms: C_9  and  C_10
REMARK    5  A    between atoms: C_10  and  C_12
REMARK                            x       y       z     vdW  Elec       q    Type
REMARK                         _______ _______ _______ _____ _____    ______ ____
ROOT
ATOM      1  C   UNL     1       5.594   4.959  15.758  0.00  0.00    +0.000 C 
ATOM      2  C   UNL     1       6.176   4.519  16.883  0.00  0.00    +0.000 C 
ENDROOT
BRANCH   1   7
ATOM      3  C   UNL     1       5.890   3.285  12.367  0.00  0.00    +0.000 A 
ATOM      4  C   UNL     1       7.033   3.914  11.873  0.00  0.00    +0.000 A 
ATOM      5  C   UNL     1       7.706   4.863  12.641  0.00  0.00    +0.000 A 
ATOM      6  C   UNL     1       7.230   5.196  13.911  0.00  0.00    +0.000 A 
ATOM      7  C   UNL     1       6.078   4.589  14.417  0.00  0.00    +0.000 A 
ATOM      8  C   UNL     1       5.427   3.616  13.642  0.00  0.00    +0.000 A 
BRANCH   3  10
ATOM      9  C   UNL     1       6.090   1.208  11.227  0.00  0.00    +0.000 C 
ATOM     10  O   UNL     1       5.320   2.368  11.526  0.00  0.00    +0.000 OA
ENDBRANCH   3  10
ENDBRANCH   1   7
BRANCH   2  11
ATOM     11  C   UNL     1       5.651   4.898  18.221  0.00  0.00    +0.000 C 
ATOM     12  O   UNL     1       6.365   5.380  19.092  0.00  0.00    +0.000 OA
BRANCH  11  13
ATOM     13  C   UNL     1       4.213   4.618  18.480  0.00  0.00    +0.000 A 
ATOM     14  C   UNL     1       3.268   5.037  17.536  0.00  0.00    +0.000 A 
ATOM     15  C   UNL     1       1.909   4.794  17.751  0.00  0.00    +0.000 A 
ATOM     16  C   UNL     1       1.491   4.126  18.903  0.00  0.00    +0.000 A 
ATOM     17  C   UNL     1       2.434   3.695  19.833  0.00  0.00    +0.000 A 
ATOM     18  I   UNL     1       1.816   2.688  21.546  0.00  0.00    +0.000 I 
ATOM     19  C   UNL     1       3.794   3.930  19.627  0.00  0.00    +0.000 A 
ENDBRANCH  11  13
ENDBRANCH   2  11
TORSDOF 4
ENDMDL
MODEL 8
REMARK VINA RESULT:      -6.8      4.925      6.847
REMARK  Name = 
REMARK  5 active torsions:
REMARK  status: ('A' for Active; 'I' for Inactive)
REMARK    1  A    between atoms: C_1  and  O_2
REMARK    2  A    between atoms: O_2  and  C_3
REMARK    3  A    between atoms: C_7  and  C_8
REMARK    4  A    between atoms: C_9  and  C_10
REMARK    5  A    between atoms: C_10  and  C_12
REMARK                            x       y       z     vdW  Elec       q    Type
REMARK                         _______ _______ _______ _____ _____    ______ ____
ROOT
ATOM      1  C   UNL     1       2.447   7.869  18.079  0.00  0.00    +0.000 C 
ATOM      2  C   UNL     1       1.752   8.219  19.172  0.00  0.00    +0.000 C 
ENDROOT
BRANCH   1   7
ATOM      3  C   UNL     1       2.553   4.097  17.687  0.00  0.00    +0.000 A 
ATOM      4  C   UNL     1       3.910   3.908  17.426  0.00  0.00    +0.000 A 
ATOM      5  C   UNL     1       4.782   4.996  17.390  0.00  0.00    +0.000 A 
ATOM      6  C   UNL     1       4.296   6.286  17.608  0.00  0.00    +0.000 A 
ATOM      7  C   UNL     1       2.937   6.498  17.856  0.00  0.00    +0.000 A 
ATOM      8  C   UNL     1       2.077   5.390  17.914  0.00  0.00    +0.000 A 
BRANCH   3  10
ATOM      9  C   UNL     1       1.961   2.096  18.825  0.00  0.00    +0.000 C 
ATOM     10  O   UNL     1       1.798   2.956  17.703  0.00  0.00    +0.000 OA
ENDBRANCH   3  10
ENDBRANCH   1   7
BRANCH   2  11
ATOM     11  C   UNL     1       1.257   9.608  19.358  0.00  0.00    +0.000 C 
ATOM     12  O   UNL     1       1.451  10.488  18.529  0.00  0.00    +0.000 OA
BRANCH  11  13
ATOM     13  C   UNL     1       0.550   9.901  20.634  0.00  0.00    +0.000 A 
ATOM     14  C   UNL     1       0.362   8.861  21.551  0.00  0.00    +0.000 A 
ATOM     15  C   UNL     1      -0.303   9.102  22.756  0.00  0.00    +0.000 A 
ATOM     16  C   UNL     1      -0.772  10.382  23.052  0.00  0.00    +0.000 A 
ATOM     17  C   UNL     1      -0.568  11.421  22.146  0.00  0.00    +0.000 A 
ATOM     18  I   UNL     1      -1.256  13.334  22.590  0.00  0.00    +0.000 I 
ATOM     19  C   UNL     1       0.096  11.192  20.941  0.00  0.00    +0.000 A 
ENDBRANCH  11  13
ENDBRANCH   2  11
TORSDOF 4
ENDMDL
MODEL 9
REMARK VINA RESULT:      -6.8      2.973      4.310
REMARK  Name = 
REMARK  5 active torsions:
REMARK  status: ('A' for Active; 'I' for Inactive)
REMARK    1  A    between atoms: C_1  and  O_2
REMARK    2  A    between atoms: O_2  and  C_3
REMARK    3  A    between atoms: C_7  and  C_8
REMARK    4  A    between atoms: C_9  and  C_10
REMARK    5  A    between atoms: C_10  and  C_12
REMARK                            x       y       z     vdW  Elec       q    Type
REMARK                         _______ _______ _______ _____ _____    ______ ____
ROOT
ATOM      1  C   UNL     1       4.470   5.561  19.022  0.00  0.00    +0.000 C 
ATOM      2  C   UNL     1       3.132   5.494  18.953  0.00  0.00    +0.000 C 
ENDROOT
BRANCH   1   7
ATOM      3  C   UNL     1       5.675   4.509  15.582  0.00  0.00    +0.000 A 
ATOM      4  C   UNL     1       7.038   4.349  15.830  0.00  0.00    +0.000 A 
ATOM      5  C   UNL     1       7.556   4.570  17.106  0.00  0.00    +0.000 A 
ATOM      6  C   UNL     1       6.709   4.962  18.143  0.00  0.00    +0.000 A 
ATOM      7  C   UNL     1       5.343   5.143  17.912  0.00  0.00    +0.000 A 
ATOM      8  C   UNL     1       4.833   4.892  16.628  0.00  0.00    +0.000 A 
BRANCH   3  10
ATOM      9  C   UNL     1       6.308   3.914  13.369  0.00  0.00    +0.000 C 
ATOM     10  O   UNL     1       5.283   4.258  14.295  0.00  0.00    +0.000 OA
ENDBRANCH   3  10
ENDBRANCH   1   7
BRANCH   2  11
ATOM     11  C   UNL     1       2.279   5.941  20.085  0.00  0.00    +0.000 C 
ATOM     12  O   UNL     1       1.971   5.195  21.007  0.00  0.00    +0.000 OA
BRANCH  11  13
ATOM     13  C   UNL     1       1.766   7.336  20.027  0.00  0.00    +0.000 A 
ATOM     14  C   UNL     1       1.958   8.073  18.853  0.00  0.00    +0.000 A 
ATOM     15  C   UNL     1       1.493   9.388  18.768  0.00  0.00    +0.000 A 
ATOM     16  C   UNL     1       0.828   9.967  19.849  0.00  0.00    +0.000 A 
ATOM     17  C   UNL     1       0.621   9.226  21.011  0.00  0.00    +0.000 A 
ATOM     18  I   UNL     1      -0.381  10.081  22.621  0.00  0.00    +0.000 I 
ATOM     19  C   UNL     1       1.079   7.912  21.105  0.00  0.00    +0.000 A 
ENDBRANCH  11  13
ENDBRANCH   2  11
TORSDOF 4
ENDMDL
