MODEL 1
REMARK VINA RESULT:      -7.6      0.000      0.000
REMARK  Name = 
REMARK  10 active torsions:
REMARK  status: ('A' for Active; 'I' for Inactive)
REMARK    1  A    between atoms: C_1  and  C_2
REMARK    2  A    between atoms: C_2  and  C_3
REMARK    3  A    between atoms: C_2  and  C_4
REMARK    4  A    between atoms: C_2  and  N_5
REMARK    5  A    between atoms: C_6  and  C_8
REMARK    6  A    between atoms: C_8  and  O_9
REMARK    7  A    between atoms: O_9  and  C_10
REMARK    8  A    between atoms: C_10  and  C_12
REMARK    9  A    between atoms: C_15  and  S_16
REMARK   10  A    between atoms: S_16  and  N_19
REMARK                            x       y       z     vdW  Elec       q    Type
REMARK                         _______ _______ _______ _____ _____    ______ ____
ROOT
ATOM      1  C   UNL     1       1.748   7.696  20.205  0.00  0.00    +0.000 A 
ATOM      2  C   UNL     1       1.610   6.498  20.920  0.00  0.00    +0.000 A 
ATOM      3  C   UNL     1       1.953   5.281  20.330  0.00  0.00    +0.000 A 
ATOM      4  C   UNL     1       2.429   5.258  19.015  0.00  0.00    +0.000 A 
ATOM      5  C   UNL     1       2.610   6.452  18.309  0.00  0.00    +0.000 A 
ATOM      6  C   UNL     1       2.251   7.669  18.897  0.00  0.00    +0.000 A 
ENDROOT
BRANCH   4   7
ATOM      7  S   UNL     1       2.887   3.688  18.287  0.00  0.00    +0.000 S 
ATOM      8  O   UNL     1       2.875   2.703  19.350  0.00  0.00    +0.000 OA
ATOM      9  O   UNL     1       2.071   3.515  17.105  0.00  0.00    +0.000 OA
BRANCH   7  10
ATOM     10  N   UNL     1       4.513   3.947  17.799  0.00  0.00    +0.000 NA
ATOM     11  C   UNL     1       4.713   4.395  16.400  0.00  0.00    +0.000 C 
ATOM     12  C   UNL     1       6.003   3.860  15.778  0.00  0.00    +0.000 C 
ATOM     13  C   UNL     1       7.250   4.661  16.132  0.00  0.00    +0.000 C 
ATOM     14  C   UNL     1       7.600   4.621  17.609  0.00  0.00    +0.000 C 
ATOM     15  C   UNL     1       6.562   5.333  18.466  0.00  0.00    +0.000 C 
ATOM     16  C   UNL     1       5.400   4.446  18.879  0.00  0.00    +0.000 C 
ENDBRANCH   7  10
ENDBRANCH   4   7
BRANCH   1  17
ATOM     17  C   UNL     1       1.380   8.961  20.897  0.00  0.00    +0.000 C 
ATOM     18  O   UNL     1       1.286   9.058  22.105  0.00  0.00    +0.000 OA
BRANCH  17  19
ATOM     19  O   UNL     1       1.195   9.957  20.002  0.00  0.00    +0.000 OA
BRANCH  19  20
ATOM     20  C   UNL     1      -0.044  10.662  20.106  0.00  0.00    +0.000 C 
BRANCH  20  22
ATOM     21  N   UNL     1      -2.150  10.989  18.894  0.00  0.00    +0.000 N 
ATOM     22  C   UNL     1      -0.867  10.465  18.843  0.00  0.00    +0.000 C 
ATOM     23  O   UNL     1      -0.412   9.859  17.879  0.00  0.00    +0.000 OA
ATOM     24  H   UNL     1      -2.449  11.434  19.756  0.00  0.00    +0.000 HD
BRANCH  21  26
ATOM     25  C   UNL     1      -3.515   9.425  17.538  0.00  0.00    +0.000 C 
ATOM     26  C   UNL     1      -3.116  10.890  17.785  0.00  0.00    +0.000 C 
ATOM     27  C   UNL     1      -2.525  11.481  16.493  0.00  0.00    +0.000 C 
ATOM     28  C   UNL     1      -4.396  11.668  18.148  0.00  0.00    +0.000 C 
ENDBRANCH  21  26
ENDBRANCH  20  22
ENDBRANCH  19  20
ENDBRANCH  17  19
ENDBRANCH   1  17
TORSDOF 7
ENDMDL
MODEL 2
REMARK VINA RESULT:      -7.5      1.208      1.955
REMARK  Name = 
REMARK  10 active torsions:
REMARK  status: ('A' for Active; 'I' for Inactive)
REMARK    1  A    between atoms: C_1  and  C_2
REMARK    2  A    between atoms: C_2  and  C_3
REMARK    3  A    between atoms: C_2  and  C_4
REMARK    4  A    between atoms: C_2  and  N_5
REMARK    5  A    between atoms: C_6  and  C_8
REMARK    6  A    between atoms: C_8  and  O_9
REMARK    7  A    between atoms: O_9  and  C_10
REMARK    8  A    between atoms: C_10  and  C_12
REMARK    9  A    between atoms: C_15  and  S_16
REMARK   10  A    between atoms: S_16  and  N_19
REMARK                            x       y       z     vdW  Elec       q    Type
REMARK                         _______ _______ _______ _____ _____    ______ ____
ROOT
ATOM      1  C   UNL     1       1.447   8.794  19.563  0.00  0.00    +0.000 A 
ATOM      2  C   UNL     1       1.346   7.842  20.588  0.00  0.00    +0.000 A 
ATOM      3  C   UNL     1       1.776   6.531  20.378  0.00  0.00    +0.000 A 
ATOM      4  C   UNL     1       2.302   6.165  19.135  0.00  0.00    +0.000 A 
ATOM      5  C   UNL     1       2.445   7.118  18.120  0.00  0.00    +0.000 A 
ATOM      6  C   UNL     1       2.000   8.427  18.328  0.00  0.00    +0.000 A 
ENDROOT
BRANCH   4   7
ATOM      7  S   UNL     1       2.869   4.484  18.896  0.00  0.00    +0.000 S 
ATOM      8  O   UNL     1       3.093   3.916  20.210  0.00  0.00    +0.000 OA
ATOM      9  O   UNL     1       1.960   3.858  17.961  0.00  0.00    +0.000 OA
BRANCH   7  10
ATOM     10  N   UNL     1       4.390   4.695  18.125  0.00  0.00    +0.000 NA
ATOM     11  C   UNL     1       5.587   4.401  18.948  0.00  0.00    +0.000 C 
ATOM     12  C   UNL     1       6.780   5.296  18.612  0.00  0.00    +0.000 C 
ATOM     13  C   UNL     1       7.590   4.835  17.406  0.00  0.00    +0.000 C 
ATOM     14  C   UNL     1       6.816   4.879  16.100  0.00  0.00    +0.000 C 
ATOM     15  C   UNL     1       5.679   3.867  16.071  0.00  0.00    +0.000 C 
ATOM     16  C   UNL     1       4.384   4.387  16.674  0.00  0.00    +0.000 C 
ENDBRANCH   7  10
ENDBRANCH   4   7
BRANCH   1  17
ATOM     17  C   UNL     1       0.987  10.178  19.856  0.00  0.00    +0.000 C 
ATOM     18  O   UNL     1       0.815  10.599  20.984  0.00  0.00    +0.000 OA
BRANCH  17  19
ATOM     19  O   UNL     1       0.816  10.876  18.711  0.00  0.00    +0.000 OA
BRANCH  19  20
ATOM     20  C   UNL     1      -0.072  11.992  18.792  0.00  0.00    +0.000 C 
BRANCH  20  22
ATOM     21  N   UNL     1      -1.695  11.018  17.233  0.00  0.00    +0.000 N 
ATOM     22  C   UNL     1      -1.498  11.551  18.497  0.00  0.00    +0.000 C 
ATOM     23  O   UNL     1      -2.389  11.698  19.326  0.00  0.00    +0.000 OA
ATOM     24  H   UNL     1      -0.900  10.981  16.603  0.00  0.00    +0.000 HD
BRANCH  21  26
ATOM     25  C   UNL     1      -4.047  11.675  16.808  0.00  0.00    +0.000 C 
ATOM     26  C   UNL     1      -3.002  10.548  16.740  0.00  0.00    +0.000 C 
ATOM     27  C   UNL     1      -3.496   9.346  17.565  0.00  0.00    +0.000 C 
ATOM     28  C   UNL     1      -2.871  10.119  15.266  0.00  0.00    +0.000 C 
ENDBRANCH  21  26
ENDBRANCH  20  22
ENDBRANCH  19  20
ENDBRANCH  17  19
ENDBRANCH   1  17
TORSDOF 7
ENDMDL
MODEL 3
REMARK VINA RESULT:      -7.5      2.026      8.591
REMARK  Name = 
REMARK  10 active torsions:
REMARK  status: ('A' for Active; 'I' for Inactive)
REMARK    1  A    between atoms: C_1  and  C_2
REMARK    2  A    between atoms: C_2  and  C_3
REMARK    3  A    between atoms: C_2  and  C_4
REMARK    4  A    between atoms: C_2  and  N_5
REMARK    5  A    between atoms: C_6  and  C_8
REMARK    6  A    between atoms: C_8  and  O_9
REMARK    7  A    between atoms: O_9  and  C_10
REMARK    8  A    between atoms: C_10  and  C_12
REMARK    9  A    between atoms: C_15  and  S_16
REMARK   10  A    between atoms: S_16  and  N_19
REMARK                            x       y       z     vdW  Elec       q    Type
REMARK                         _______ _______ _______ _____ _____    ______ ____
ROOT
ATOM      1  C   UNL     1       2.030   6.316  20.048  0.00  0.00    +0.000 A 
ATOM      2  C   UNL     1       2.448   6.919  18.853  0.00  0.00    +0.000 A 
ATOM      3  C   UNL     1       2.163   8.262  18.604  0.00  0.00    +0.000 A 
ATOM      4  C   UNL     1       1.449   9.006  19.549  0.00  0.00    +0.000 A 
ATOM      5  C   UNL     1       1.065   8.424  20.762  0.00  0.00    +0.000 A 
ATOM      6  C   UNL     1       1.338   7.075  21.003  0.00  0.00    +0.000 A 
ENDROOT
BRANCH   4   7
ATOM      7  S   UNL     1       1.116  10.734  19.219  0.00  0.00    +0.000 S 
ATOM      8  O   UNL     1       1.246  11.443  20.476  0.00  0.00    +0.000 OA
ATOM      9  O   UNL     1       1.911  11.107  18.070  0.00  0.00    +0.000 OA
BRANCH   7  10
ATOM     10  N   UNL     1      -0.540  10.728  18.763  0.00  0.00    +0.000 NA
ATOM     11  C   UNL     1      -1.226  12.042  18.771  0.00  0.00    +0.000 C 
ATOM     12  C   UNL     1      -2.700  11.946  19.165  0.00  0.00    +0.000 C 
ATOM     13  C   UNL     1      -3.630  11.554  18.024  0.00  0.00    +0.000 C 
ATOM     14  C   UNL     1      -3.380  10.155  17.487  0.00  0.00    +0.000 C 
ATOM     15  C   UNL     1      -2.029  10.038  16.795  0.00  0.00    +0.000 C 
ATOM     16  C   UNL     1      -0.886   9.709  17.741  0.00  0.00    +0.000 C 
ENDBRANCH   7  10
ENDBRANCH   4   7
BRANCH   1  17
ATOM     17  C   UNL     1       2.380   4.886  20.260  0.00  0.00    +0.000 C 
ATOM     18  O   UNL     1       2.568   4.400  21.359  0.00  0.00    +0.000 OA
BRANCH  17  19
ATOM     19  O   UNL     1       2.432   4.227  19.081  0.00  0.00    +0.000 OA
BRANCH  19  20
ATOM     20  C   UNL     1       3.570   3.385  18.890  0.00  0.00    +0.000 C 
BRANCH  20  22
ATOM     21  N   UNL     1       5.654   4.669  18.745  0.00  0.00    +0.000 N 
ATOM     22  C   UNL     1       4.610   4.093  18.036  0.00  0.00    +0.000 C 
ATOM     23  O   UNL     1       4.490   4.158  16.818  0.00  0.00    +0.000 OA
ATOM     24  H   UNL     1       5.638   4.598  19.757  0.00  0.00    +0.000 HD
BRANCH  21  26
ATOM     25  C   UNL     1       6.227   6.695  17.436  0.00  0.00    +0.000 C 
ATOM     26  C   UNL     1       6.754   5.418  18.111  0.00  0.00    +0.000 C 
ATOM     27  C   UNL     1       7.473   4.548  17.065  0.00  0.00    +0.000 C 
ATOM     28  C   UNL     1       7.771   5.843  19.188  0.00  0.00    +0.000 C 
ENDBRANCH  21  26
ENDBRANCH  20  22
ENDBRANCH  19  20
ENDBRANCH  17  19
ENDBRANCH   1  17
TORSDOF 7
ENDMDL
MODEL 4
REMARK VINA RESULT:      -7.5      2.091      8.409
REMARK  Name = 
REMARK  10 active torsions:
REMARK  status: ('A' for Active; 'I' for Inactive)
REMARK    1  A    between atoms: C_1  and  C_2
REMARK    2  A    between atoms: C_2  and  C_3
REMARK    3  A    between atoms: C_2  and  C_4
REMARK    4  A    between atoms: C_2  and  N_5
REMARK    5  A    between atoms: C_6  and  C_8
REMARK    6  A    between atoms: C_8  and  O_9
REMARK    7  A    between atoms: O_9  and  C_10
REMARK    8  A    between atoms: C_10  and  C_12
REMARK    9  A    between atoms: C_15  and  S_16
REMARK   10  A    between atoms: S_16  and  N_19
REMARK                            x       y       z     vdW  Elec       q    Type
REMARK                         _______ _______ _______ _____ _____    ______ ____
ROOT
ATOM      1  C   UNL     1       2.094   6.430  19.934  0.00  0.00    +0.000 A 
ATOM      2  C   UNL     1       1.380   7.163  20.892  0.00  0.00    +0.000 A 
ATOM      3  C   UNL     1       1.080   8.508  20.672  0.00  0.00    +0.000 A 
ATOM      4  C   UNL     1       1.505   9.129  19.493  0.00  0.00    +0.000 A 
ATOM      5  C   UNL     1       2.182   8.395  18.513  0.00  0.00    +0.000 A 
ATOM      6  C   UNL     1       2.494   7.052  18.742  0.00  0.00    +0.000 A 
ENDROOT
BRANCH   4   7
ATOM      7  S   UNL     1       1.089  10.849  19.221  0.00  0.00    +0.000 S 
ATOM      8  O   UNL     1       1.184  11.520  20.502  0.00  0.00    +0.000 OA
ATOM      9  O   UNL     1       1.866  11.299  18.088  0.00  0.00    +0.000 OA
BRANCH   7  10
ATOM     10  N   UNL     1      -0.565  10.779  18.762  0.00  0.00    +0.000 NA
ATOM     11  C   UNL     1      -1.294  12.069  18.742  0.00  0.00    +0.000 C 
ATOM     12  C   UNL     1      -2.765  11.933  19.134  0.00  0.00    +0.000 C 
ATOM     13  C   UNL     1      -3.678  11.487  17.999  0.00  0.00    +0.000 C 
ATOM     14  C   UNL     1      -3.380  10.087  17.491  0.00  0.00    +0.000 C 
ATOM     15  C   UNL     1      -2.024  10.000  16.805  0.00  0.00    +0.000 C 
ATOM     16  C   UNL     1      -0.873   9.729  17.760  0.00  0.00    +0.000 C 
ENDBRANCH   7  10
ENDBRANCH   4   7
BRANCH   1  17
ATOM     17  C   UNL     1       2.367   4.996  20.221  0.00  0.00    +0.000 C 
ATOM     18  O   UNL     1       2.544   4.562  21.343  0.00  0.00    +0.000 OA
BRANCH  17  19
ATOM     19  O   UNL     1       2.364   4.272  19.079  0.00  0.00    +0.000 OA
BRANCH  19  20
ATOM     20  C   UNL     1       3.420   3.319  18.947  0.00  0.00    +0.000 C 
BRANCH  20  22
ATOM     21  N   UNL     1       4.631   4.670  17.298  0.00  0.00    +0.000 N 
ATOM     22  C   UNL     1       4.703   4.013  18.516  0.00  0.00    +0.000 C 
ATOM     23  O   UNL     1       5.716   3.951  19.204  0.00  0.00    +0.000 OA
ATOM     24  H   UNL     1       3.757   4.624  16.783  0.00  0.00    +0.000 HD
BRANCH  21  26
ATOM     25  C   UNL     1       5.278   6.347  15.590  0.00  0.00    +0.000 C 
ATOM     26  C   UNL     1       5.766   5.389  16.690  0.00  0.00    +0.000 C 
ATOM     27  C   UNL     1       6.780   4.399  16.091  0.00  0.00    +0.000 C 
ATOM     28  C   UNL     1       6.472   6.234  17.768  0.00  0.00    +0.000 C 
ENDBRANCH  21  26
ENDBRANCH  20  22
ENDBRANCH  19  20
ENDBRANCH  17  19
ENDBRANCH   1  17
TORSDOF 7
ENDMDL
MODEL 5
REMARK VINA RESULT:      -7.5      2.105      8.552
REMARK  Name = 
REMARK  10 active torsions:
REMARK  status: ('A' for Active; 'I' for Inactive)
REMARK    1  A    between atoms: C_1  and  C_2
REMARK    2  A    between atoms: C_2  and  C_3
REMARK    3  A    between atoms: C_2  and  C_4
REMARK    4  A    between atoms: C_2  and  N_5
REMARK    5  A    between atoms: C_6  and  C_8
REMARK    6  A    between atoms: C_8  and  O_9
REMARK    7  A    between atoms: O_9  and  C_10
REMARK    8  A    between atoms: C_10  and  C_12
REMARK    9  A    between atoms: C_15  and  S_16
REMARK   10  A    between atoms: S_16  and  N_19
REMARK                            x       y       z     vdW  Elec       q    Type
REMARK                         _______ _______ _______ _____ _____    ______ ____
ROOT
ATOM      1  C   UNL     1       2.033   6.514  20.059  0.00  0.00    +0.000 A 
ATOM      2  C   UNL     1       1.325   7.253  21.019  0.00  0.00    +0.000 A 
ATOM      3  C   UNL     1       1.020   8.595  20.792  0.00  0.00    +0.000 A 
ATOM      4  C   UNL     1       1.432   9.208  19.605  0.00  0.00    +0.000 A 
ATOM      5  C   UNL     1       2.102   8.469  18.623  0.00  0.00    +0.000 A 
ATOM      6  C   UNL     1       2.419   7.128  18.859  0.00  0.00    +0.000 A 
ENDROOT
BRANCH   4   7
ATOM      7  S   UNL     1       1.009  10.925  19.325  0.00  0.00    +0.000 S 
ATOM      8  O   UNL     1       1.079  11.599  20.606  0.00  0.00    +0.000 OA
ATOM      9  O   UNL     1       1.800  11.379  18.203  0.00  0.00    +0.000 OA
BRANCH   7  10
ATOM     10  N   UNL     1      -0.637  10.844  18.840  0.00  0.00    +0.000 NA
ATOM     11  C   UNL     1      -1.382  12.125  18.833  0.00  0.00    +0.000 C 
ATOM     12  C   UNL     1      -2.857  11.964  19.202  0.00  0.00    +0.000 C 
ATOM     13  C   UNL     1      -3.748  11.528  18.045  0.00  0.00    +0.000 C 
ATOM     14  C   UNL     1      -3.425  10.141  17.516  0.00  0.00    +0.000 C 
ATOM     15  C   UNL     1      -2.059  10.084  16.848  0.00  0.00    +0.000 C 
ATOM     16  C   UNL     1      -0.919   9.809  17.814  0.00  0.00    +0.000 C 
ENDBRANCH   7  10
ENDBRANCH   4   7
BRANCH   1  17
ATOM     17  C   UNL     1       2.311   5.083  20.354  0.00  0.00    +0.000 C 
ATOM     18  O   UNL     1       2.360   4.631  21.481  0.00  0.00    +0.000 OA
BRANCH  17  19
ATOM     19  O   UNL     1       2.475   4.384  19.209  0.00  0.00    +0.000 OA
BRANCH  19  20
ATOM     20  C   UNL     1       3.655   3.581  19.135  0.00  0.00    +0.000 C 
BRANCH  20  22
ATOM     21  N   UNL     1       4.972   4.055  17.122  0.00  0.00    +0.000 N 
ATOM     22  C   UNL     1       4.776   4.357  18.461  0.00  0.00    +0.000 C 
ATOM     23  O   UNL     1       5.456   5.160  19.090  0.00  0.00    +0.000 OA
ATOM     24  H   UNL     1       4.384   3.341  16.704  0.00  0.00    +0.000 HD
BRANCH  21  26
ATOM     25  C   UNL     1       7.396   4.552  16.961  0.00  0.00    +0.000 C 
ATOM     26  C   UNL     1       6.017   4.680  16.290  0.00  0.00    +0.000 C 
ATOM     27  C   UNL     1       5.704   6.166  16.047  0.00  0.00    +0.000 C 
ATOM     28  C   UNL     1       6.090   3.957  14.931  0.00  0.00    +0.000 C 
ENDBRANCH  21  26
ENDBRANCH  20  22
ENDBRANCH  19  20
ENDBRANCH  17  19
ENDBRANCH   1  17
TORSDOF 7
ENDMDL
MODEL 6
REMARK VINA RESULT:      -7.4      2.075      8.477
REMARK  Name = 
REMARK  10 active torsions:
REMARK  status: ('A' for Active; 'I' for Inactive)
REMARK    1  A    between atoms: C_1  and  C_2
REMARK    2  A    between atoms: C_2  and  C_3
REMARK    3  A    between atoms: C_2  and  C_4
REMARK    4  A    between atoms: C_2  and  N_5
REMARK    5  A    between atoms: C_6  and  C_8
REMARK    6  A    between atoms: C_8  and  O_9
REMARK    7  A    between atoms: O_9  and  C_10
REMARK    8  A    between atoms: C_10  and  C_12
REMARK    9  A    between atoms: C_15  and  S_16
REMARK   10  A    between atoms: S_16  and  N_19
REMARK                            x       y       z     vdW  Elec       q    Type
REMARK                         _______ _______ _______ _____ _____    ______ ____
ROOT
ATOM      1  C   UNL     1       2.006   6.434  20.131  0.00  0.00    +0.000 A 
ATOM      2  C   UNL     1       2.417   6.997  18.914  0.00  0.00    +0.000 A 
ATOM      3  C   UNL     1       2.118   8.327  18.616  0.00  0.00    +0.000 A 
ATOM      4  C   UNL     1       1.396   9.097  19.532  0.00  0.00    +0.000 A 
ATOM      5  C   UNL     1       1.017   8.558  20.766  0.00  0.00    +0.000 A 
ATOM      6  C   UNL     1       1.305   7.221  21.057  0.00  0.00    +0.000 A 
ENDROOT
BRANCH   4   7
ATOM      7  S   UNL     1       1.044  10.808  19.137  0.00  0.00    +0.000 S 
ATOM      8  O   UNL     1       1.190  11.569  20.362  0.00  0.00    +0.000 OA
ATOM      9  O   UNL     1       1.816  11.140  17.961  0.00  0.00    +0.000 OA
BRANCH   7  10
ATOM     10  N   UNL     1      -0.620  10.772  18.711  0.00  0.00    +0.000 NA
ATOM     11  C   UNL     1      -1.340  12.066  18.776  0.00  0.00    +0.000 C 
ATOM     12  C   UNL     1      -2.804  11.917  19.193  0.00  0.00    +0.000 C 
ATOM     13  C   UNL     1      -3.744  11.538  18.056  0.00  0.00    +0.000 C 
ATOM     14  C   UNL     1      -3.467  10.165  17.468  0.00  0.00    +0.000 C 
ATOM     15  C   UNL     1      -2.127  10.107  16.749  0.00  0.00    +0.000 C 
ATOM     16  C   UNL     1      -0.958   9.779  17.662  0.00  0.00    +0.000 C 
ENDBRANCH   7  10
ENDBRANCH   4   7
BRANCH   1  17
ATOM     17  C   UNL     1       2.371   5.017  20.397  0.00  0.00    +0.000 C 
ATOM     18  O   UNL     1       2.396   4.532  21.511  0.00  0.00    +0.000 OA
BRANCH  17  19
ATOM     19  O   UNL     1       2.639   4.369  19.241  0.00  0.00    +0.000 OA
BRANCH  19  20
ATOM     20  C   UNL     1       3.934   3.773  19.150  0.00  0.00    +0.000 C 
BRANCH  20  22
ATOM     21  N   UNL     1       5.567   5.186  17.987  0.00  0.00    +0.000 N 
ATOM     22  C   UNL     1       4.613   4.188  17.853  0.00  0.00    +0.000 C 
ATOM     23  O   UNL     1       4.296   3.681  16.783  0.00  0.00    +0.000 OA
ATOM     24  H   UNL     1       5.724   5.573  18.911  0.00  0.00    +0.000 HD
BRANCH  21  26
ATOM     25  C   UNL     1       7.098   4.636  16.115  0.00  0.00    +0.000 C 
ATOM     26  C   UNL     1       6.326   5.744  16.853  0.00  0.00    +0.000 C 
ATOM     27  C   UNL     1       7.316   6.818  17.337  0.00  0.00    +0.000 C 
ATOM     28  C   UNL     1       5.350   6.384  15.847  0.00  0.00    +0.000 C 
ENDBRANCH  21  26
ENDBRANCH  20  22
ENDBRANCH  19  20
ENDBRANCH  17  19
ENDBRANCH   1  17
TORSDOF 7
ENDMDL
MODEL 7
REMARK VINA RESULT:      -7.3      2.086      2.640
REMARK  Name = 
REMARK  10 active torsions:
REMARK  status: ('A' for Active; 'I' for Inactive)
REMARK    1  A    between atoms: C_1  and  C_2
REMARK    2  A    between atoms: C_2  and  C_3
REMARK    3  A    between atoms: C_2  and  C_4
REMARK    4  A    between atoms: C_2  and  N_5
REMARK    5  A    between atoms: C_6  and  C_8
REMARK    6  A    between atoms: C_8  and  O_9
REMARK    7  A    between atoms: O_9  and  C_10
REMARK    8  A    between atoms: C_10  and  C_12
REMARK    9  A    between atoms: C_15  and  S_16
REMARK   10  A    between atoms: S_16  and  N_19
REMARK                            x       y       z     vdW  Elec       q    Type
REMARK                         _______ _______ _______ _____ _____    ______ ____
ROOT
ATOM      1  C   UNL     1       1.717   7.649  20.231  0.00  0.00    +0.000 A 
ATOM      2  C   UNL     1       1.581   6.438  20.925  0.00  0.00    +0.000 A 
ATOM      3  C   UNL     1       1.920   5.231  20.312  0.00  0.00    +0.000 A 
ATOM      4  C   UNL     1       2.389   5.232  18.995  0.00  0.00    +0.000 A 
ATOM      5  C   UNL     1       2.567   6.437  18.308  0.00  0.00    +0.000 A 
ATOM      6  C   UNL     1       2.213   7.644  18.920  0.00  0.00    +0.000 A 
ENDROOT
BRANCH   4   7
ATOM      7  S   UNL     1       2.841   3.674  18.236  0.00  0.00    +0.000 S 
ATOM      8  O   UNL     1       2.811   2.666  19.277  0.00  0.00    +0.000 OA
ATOM      9  O   UNL     1       2.035   3.534  17.043  0.00  0.00    +0.000 OA
BRANCH   7  10
ATOM     10  N   UNL     1       4.474   3.930  17.769  0.00  0.00    +0.000 NA
ATOM     11  C   UNL     1       4.691   4.413  16.385  0.00  0.00    +0.000 C 
ATOM     12  C   UNL     1       5.981   3.881  15.760  0.00  0.00    +0.000 C 
ATOM     13  C   UNL     1       7.232   4.661  16.145  0.00  0.00    +0.000 C 
ATOM     14  C   UNL     1       7.569   4.580  17.625  0.00  0.00    +0.000 C 
ATOM     15  C   UNL     1       6.530   5.278  18.490  0.00  0.00    +0.000 C 
ATOM     16  C   UNL     1       5.356   4.392  18.870  0.00  0.00    +0.000 C 
ENDBRANCH   7  10
ENDBRANCH   4   7
BRANCH   1  17
ATOM     17  C   UNL     1       1.354   8.901  20.947  0.00  0.00    +0.000 C 
ATOM     18  O   UNL     1       1.492   9.049  22.146  0.00  0.00    +0.000 OA
BRANCH  17  19
ATOM     19  O   UNL     1       0.884   9.826  20.080  0.00  0.00    +0.000 OA
BRANCH  19  20
ATOM     20  C   UNL     1       0.973  11.185  20.514  0.00  0.00    +0.000 C 
BRANCH  20  22
ATOM     21  N   UNL     1      -0.409  12.533  22.026  0.00  0.00    +0.000 N 
ATOM     22  C   UNL     1      -0.400  11.699  20.918  0.00  0.00    +0.000 C 
ATOM     23  O   UNL     1      -1.407  11.358  20.308  0.00  0.00    +0.000 OA
ATOM     24  H   UNL     1       0.475  12.718  22.489  0.00  0.00    +0.000 HD
BRANCH  21  26
ATOM     25  C   UNL     1      -2.457  13.828  21.499  0.00  0.00    +0.000 C 
ATOM     26  C   UNL     1      -1.636  13.123  22.592  0.00  0.00    +0.000 C 
ATOM     27  C   UNL     1      -1.293  14.132  23.702  0.00  0.00    +0.000 C 
ATOM     28  C   UNL     1      -2.513  12.005  23.189  0.00  0.00    +0.000 C 
ENDBRANCH  21  26
ENDBRANCH  20  22
ENDBRANCH  19  20
ENDBRANCH  17  19
ENDBRANCH   1  17
TORSDOF 7
ENDMDL
MODEL 8
REMARK VINA RESULT:      -7.3      1.700      2.519
REMARK  Name = 
REMARK  10 active torsions:
REMARK  status: ('A' for Active; 'I' for Inactive)
REMARK    1  A    between atoms: C_1  and  C_2
REMARK    2  A    between atoms: C_2  and  C_3
REMARK    3  A    between atoms: C_2  and  C_4
REMARK    4  A    between atoms: C_2  and  N_5
REMARK    5  A    between atoms: C_6  and  C_8
REMARK    6  A    between atoms: C_8  and  O_9
REMARK    7  A    between atoms: O_9  and  C_10
REMARK    8  A    between atoms: C_10  and  C_12
REMARK    9  A    between atoms: C_15  and  S_16
REMARK   10  A    between atoms: S_16  and  N_19
REMARK                            x       y       z     vdW  Elec       q    Type
REMARK                         _______ _______ _______ _____ _____    ______ ____
ROOT
ATOM      1  C   UNL     1       1.714   7.522  20.267  0.00  0.00    +0.000 A 
ATOM      2  C   UNL     1       2.238   7.522  18.967  0.00  0.00    +0.000 A 
ATOM      3  C   UNL     1       2.593   6.323  18.349  0.00  0.00    +0.000 A 
ATOM      4  C   UNL     1       2.433   5.116  19.036  0.00  0.00    +0.000 A 
ATOM      5  C   UNL     1       1.872   5.101  20.318  0.00  0.00    +0.000 A 
ATOM      6  C   UNL     1       1.531   6.306  20.940  0.00  0.00    +0.000 A 
ENDROOT
BRANCH   4   7
ATOM      7  S   UNL     1       2.873   3.586  18.215  0.00  0.00    +0.000 S 
ATOM      8  O   UNL     1       2.877   2.545  19.223  0.00  0.00    +0.000 OA
ATOM      9  O   UNL     1       2.037   3.480  17.040  0.00  0.00    +0.000 OA
BRANCH   7  10
ATOM     10  N   UNL     1       4.492   3.868  17.715  0.00  0.00    +0.000 NA
ATOM     11  C   UNL     1       4.673   4.352  16.325  0.00  0.00    +0.000 C 
ATOM     12  C   UNL     1       5.958   3.840  15.675  0.00  0.00    +0.000 C 
ATOM     13  C   UNL     1       7.204   4.640  16.033  0.00  0.00    +0.000 C 
ATOM     14  C   UNL     1       7.572   4.567  17.505  0.00  0.00    +0.000 C 
ATOM     15  C   UNL     1       6.541   5.250  18.391  0.00  0.00    +0.000 C 
ATOM     16  C   UNL     1       5.389   4.346  18.796  0.00  0.00    +0.000 C 
ENDBRANCH   7  10
ENDBRANCH   4   7
BRANCH   1  17
ATOM     17  C   UNL     1       1.339   8.833  20.863  0.00  0.00    +0.000 C 
ATOM     18  O   UNL     1       1.324   9.042  22.061  0.00  0.00    +0.000 OA
BRANCH  17  19
ATOM     19  O   UNL     1       1.049   9.731  19.895  0.00  0.00    +0.000 OA
BRANCH  19  20
ATOM     20  C   UNL     1      -0.337  10.032  19.724  0.00  0.00    +0.000 C 
BRANCH  20  22
ATOM     21  N   UNL     1      -1.490  11.410  21.393  0.00  0.00    +0.000 N 
ATOM     22  C   UNL     1      -0.649  11.409  20.290  0.00  0.00    +0.000 C 
ATOM     23  O   UNL     1      -0.198  12.423  19.770  0.00  0.00    +0.000 OA
ATOM     24  H   UNL     1      -1.846  10.519  21.721  0.00  0.00    +0.000 HD
BRANCH  21  26
ATOM     25  C   UNL     1      -2.770  13.519  21.139  0.00  0.00    +0.000 C 
ATOM     26  C   UNL     1      -1.930  12.638  22.081  0.00  0.00    +0.000 C 
ATOM     27  C   UNL     1      -0.721  13.443  22.587  0.00  0.00    +0.000 C 
ATOM     28  C   UNL     1      -2.817  12.261  23.283  0.00  0.00    +0.000 C 
ENDBRANCH  21  26
ENDBRANCH  20  22
ENDBRANCH  19  20
ENDBRANCH  17  19
ENDBRANCH   1  17
TORSDOF 7
ENDMDL
MODEL 9
REMARK VINA RESULT:      -7.3      1.547      2.190
REMARK  Name = 
REMARK  10 active torsions:
REMARK  status: ('A' for Active; 'I' for Inactive)
REMARK    1  A    between atoms: C_1  and  C_2
REMARK    2  A    between atoms: C_2  and  C_3
REMARK    3  A    between atoms: C_2  and  C_4
REMARK    4  A    between atoms: C_2  and  N_5
REMARK    5  A    between atoms: C_6  and  C_8
REMARK    6  A    between atoms: C_8  and  O_9
REMARK    7  A    between atoms: O_9  and  C_10
REMARK    8  A    between atoms: C_10  and  C_12
REMARK    9  A    between atoms: C_15  and  S_16
REMARK   10  A    between atoms: S_16  and  N_19
REMARK                            x       y       z     vdW  Elec       q    Type
REMARK                         _______ _______ _______ _____ _____    ______ ____
ROOT
ATOM      1  C   UNL     1       1.418   9.481  19.725  0.00  0.00    +0.000 A 
ATOM      2  C   UNL     1       1.716   9.105  18.408  0.00  0.00    +0.000 A 
ATOM      3  C   UNL     1       2.107   7.797  18.119  0.00  0.00    +0.000 A 
ATOM      4  C   UNL     1       2.212   6.861  19.153  0.00  0.00    +0.000 A 
ATOM      5  C   UNL     1       1.877   7.216  20.464  0.00  0.00    +0.000 A 
ATOM      6  C   UNL     1       1.499   8.531  20.753  0.00  0.00    +0.000 A 
ENDROOT
BRANCH   4   7
ATOM      7  S   UNL     1       2.693   5.182  18.756  0.00  0.00    +0.000 S 
ATOM      8  O   UNL     1       2.649   4.421  19.988  0.00  0.00    +0.000 OA
ATOM      9  O   UNL     1       1.914   4.779  17.606  0.00  0.00    +0.000 OA
BRANCH   7  10
ATOM     10  N   UNL     1       4.333   5.353  18.276  0.00  0.00    +0.000 NA
ATOM     11  C   UNL     1       4.653   6.540  17.448  0.00  0.00    +0.000 C 
ATOM     12  C   UNL     1       5.760   6.278  16.427  0.00  0.00    +0.000 C 
ATOM     13  C   UNL     1       7.171   6.388  16.991  0.00  0.00    +0.000 C 
ATOM     14  C   UNL     1       7.490   5.340  18.044  0.00  0.00    +0.000 C 
ATOM     15  C   UNL     1       6.670   5.530  19.312  0.00  0.00    +0.000 C 
ATOM     16  C   UNL     1       5.313   4.848  19.269  0.00  0.00    +0.000 C 
ENDBRANCH   7  10
ENDBRANCH   4   7
BRANCH   1  17
ATOM     17  C   UNL     1       0.991  10.886  19.964  0.00  0.00    +0.000 C 
ATOM     18  O   UNL     1       0.821  11.352  21.074  0.00  0.00    +0.000 OA
BRANCH  17  19
ATOM     19  O   UNL     1       0.848  11.546  18.793  0.00  0.00    +0.000 OA
BRANCH  19  20
ATOM     20  C   UNL     1      -0.204  12.513  18.750  0.00  0.00    +0.000 C 
BRANCH  20  22
ATOM     21  N   UNL     1      -1.757  11.418  17.199  0.00  0.00    +0.000 N 
ATOM     22  C   UNL     1      -1.539  11.825  18.507  0.00  0.00    +0.000 C 
ATOM     23  O   UNL     1      -2.351  11.684  19.414  0.00  0.00    +0.000 OA
ATOM     24  H   UNL     1      -1.039  11.623  16.512  0.00  0.00    +0.000 HD
BRANCH  21  26
ATOM     25  C   UNL     1      -4.205  11.682  16.911  0.00  0.00    +0.000 C 
ATOM     26  C   UNL     1      -2.991  10.751  16.748  0.00  0.00    +0.000 C 
ATOM     27  C   UNL     1      -3.233   9.456  17.543  0.00  0.00    +0.000 C 
ATOM     28  C   UNL     1      -2.868  10.401  15.252  0.00  0.00    +0.000 C 
ENDBRANCH  21  26
ENDBRANCH  20  22
ENDBRANCH  19  20
ENDBRANCH  17  19
ENDBRANCH   1  17
TORSDOF 7
ENDMDL
