MODEL 1
REMARK VINA RESULT:      -7.9      0.000      0.000
REMARK  Name = 
REMARK  9 active torsions:
REMARK  status: ('A' for Active; 'I' for Inactive)
REMARK    1  A    between atoms: S_2  and  N_4
REMARK    2  A    between atoms: S_2  and  C_27
REMARK    3  A    between atoms: N_4  and  C_5
REMARK    4  A    between atoms: C_5  and  C_6
REMARK    5  A    between atoms: N_9  and  C_10
REMARK    6  A    between atoms: C_10  and  C_11
REMARK    7  A    between atoms: C_11  and  O_12
REMARK    8  A    between atoms: O_12  and  C_13
REMARK    9  A    between atoms: C_18  and  C_19
REMARK                            x       y       z     vdW  Elec       q    Type
REMARK                         _______ _______ _______ _____ _____    ______ ____
ROOT
ATOM      1  C   UNL     1       6.337   4.686  17.871  0.00  0.00    +0.000 C 
ATOM      2  C   UNL     1       7.792   5.015  18.232  0.00  0.00    +0.000 C 
ATOM      3  C   UNL     1       8.007   6.507  18.497  0.00  0.00    +0.000 C 
ATOM      4  N   UNL     1       7.496   7.389  17.445  0.00  0.00    +0.000 NA
ATOM      5  C   UNL     1       6.118   7.088  17.050  0.00  0.00    +0.000 C 
ATOM      6  C   UNL     1       5.929   5.609  16.711  0.00  0.00    +0.000 C 
ENDROOT
BRANCH   1   7
ATOM      7  C   UNL     1       5.396   4.766  19.097  0.00  0.00    +0.000 C 
BRANCH   7   8
ATOM      8  N   UNL     1       4.423   3.651  19.066  0.00  0.00    +0.000 NA
ATOM      9  H   UNL     1       4.739   2.841  18.542  0.00  0.00    +0.000 HD
BRANCH   8  11
ATOM     10  O   UNL     1       2.797   3.892  17.126  0.00  0.00    +0.000 OA
ATOM     11  S   UNL     1       2.851   3.995  18.566  0.00  0.00    +0.000 S 
ATOM     12  O   UNL     1       1.972   3.207  19.401  0.00  0.00    +0.000 OA
BRANCH  11  13
ATOM     13  C   UNL     1       2.485   5.689  18.933  0.00  0.00    +0.000 A 
ATOM     14  C   UNL     1       2.530   6.839  18.164  0.00  0.00    +0.000 A 
ATOM     15  C   UNL     1       2.126   7.995  18.897  0.00  0.00    +0.000 A 
ATOM     16  C   UNL     1       1.786   7.666  20.184  0.00  0.00    +0.000 A 
ATOM     17 CL   UNL     1       1.245   8.744  21.405  0.00  0.00    +0.000 Cl
ATOM     18  S   UNL     1       1.948   6.018  20.526  0.00  0.00    +0.000 S 
ENDBRANCH  11  13
ENDBRANCH   8  11
ENDBRANCH   7   8
ENDBRANCH   1   7
BRANCH   4  19
ATOM     19  C   UNL     1       7.681   8.823  17.798  0.00  0.00    +0.000 C 
BRANCH  19  20
ATOM     20  C   UNL     1       8.903   9.187  18.671  0.00  0.00    +0.000 C 
BRANCH  20  21
ATOM     21  O   UNL     1       8.729  10.453  19.318  0.00  0.00    +0.000 OA
BRANCH  21  22
ATOM     22  C   UNL     1       9.780  11.337  19.295  0.00  0.00    +0.000 A 
ATOM     23  C   UNL     1      10.791  11.272  18.319  0.00  0.00    +0.000 A 
ATOM     24  C   UNL     1      11.915  12.086  18.381  0.00  0.00    +0.000 A 
ATOM     25  C   UNL     1      12.019  13.025  19.392  0.00  0.00    +0.000 A 
ATOM     26  C   UNL     1      10.976  13.166  20.312  0.00  0.00    +0.000 A 
ATOM     27  C   UNL     1       9.833  12.341  20.298  0.00  0.00    +0.000 A 
BRANCH  27  28
ATOM     28  C   UNL     1       8.771  12.562  21.334  0.00  0.00    +0.000 A 
ATOM     29  C   UNL     1       7.986  13.723  21.386  0.00  0.00    +0.000 A 
ATOM     30  C   UNL     1       7.004  13.911  22.368  0.00  0.00    +0.000 A 
ATOM     31  C   UNL     1       6.797  12.943  23.347  0.00  0.00    +0.000 A 
ATOM     32  C   UNL     1       7.573  11.795  23.341  0.00  0.00    +0.000 A 
ATOM     33  C   UNL     1       8.542  11.605  22.346  0.00  0.00    +0.000 A 
ENDBRANCH  27  28
ENDBRANCH  21  22
ENDBRANCH  20  21
ENDBRANCH  19  20
ENDBRANCH   4  19
TORSDOF 9
ENDMDL
MODEL 2
REMARK VINA RESULT:      -7.8      6.438      9.843
REMARK  Name = 
REMARK  9 active torsions:
REMARK  status: ('A' for Active; 'I' for Inactive)
REMARK    1  A    between atoms: S_2  and  N_4
REMARK    2  A    between atoms: S_2  and  C_27
REMARK    3  A    between atoms: N_4  and  C_5
REMARK    4  A    between atoms: C_5  and  C_6
REMARK    5  A    between atoms: N_9  and  C_10
REMARK    6  A    between atoms: C_10  and  C_11
REMARK    7  A    between atoms: C_11  and  O_12
REMARK    8  A    between atoms: O_12  and  C_13
REMARK    9  A    between atoms: C_18  and  C_19
REMARK                            x       y       z     vdW  Elec       q    Type
REMARK                         _______ _______ _______ _____ _____    ______ ____
ROOT
ATOM      1  C   UNL     1      -0.170  12.245  19.253  0.00  0.00    +0.000 C 
ATOM      2  C   UNL     1      -0.998  11.409  18.266  0.00  0.00    +0.000 C 
ATOM      3  C   UNL     1      -0.461   9.984  18.110  0.00  0.00    +0.000 C 
ATOM      4  N   UNL     1       0.973   9.906  17.818  0.00  0.00    +0.000 NA
ATOM      5  C   UNL     1       1.797  10.714  18.720  0.00  0.00    +0.000 C 
ATOM      6  C   UNL     1       1.300  12.158  18.810  0.00  0.00    +0.000 C 
ENDROOT
BRANCH   1   7
ATOM      7  C   UNL     1      -0.409  11.824  20.723  0.00  0.00    +0.000 C 
BRANCH   7   8
ATOM      8  N   UNL     1      -1.079  12.916  21.462  0.00  0.00    +0.000 NA
ATOM      9  H   UNL     1      -0.603  13.811  21.399  0.00  0.00    +0.000 HD
BRANCH   8  11
ATOM     10  O   UNL     1      -1.066  11.304  23.429  0.00  0.00    +0.000 OA
ATOM     11  S   UNL     1      -1.449  12.654  23.086  0.00  0.00    +0.000 S 
ATOM     12  O   UNL     1      -0.921  13.786  23.815  0.00  0.00    +0.000 OA
BRANCH  11  13
ATOM     13  C   UNL     1      -3.207  12.714  23.295  0.00  0.00    +0.000 A 
ATOM     14  C   UNL     1      -4.017  12.578  24.408  0.00  0.00    +0.000 A 
ATOM     15  C   UNL     1      -5.400  12.719  24.090  0.00  0.00    +0.000 A 
ATOM     16  C   UNL     1      -5.575  12.962  22.752  0.00  0.00    +0.000 A 
ATOM     17 CL   UNL     1      -7.069  13.196  21.941  0.00  0.00    +0.000 Cl
ATOM     18  S   UNL     1      -4.126  13.017  21.881  0.00  0.00    +0.000 S 
ENDBRANCH  11  13
ENDBRANCH   8  11
ENDBRANCH   7   8
ENDBRANCH   1   7
BRANCH   4  19
ATOM     19  C   UNL     1       1.438   8.494  17.744  0.00  0.00    +0.000 C 
BRANCH  19  20
ATOM     20  C   UNL     1       2.963   8.247  17.761  0.00  0.00    +0.000 C 
BRANCH  20  21
ATOM     21  O   UNL     1       3.281   6.964  18.313  0.00  0.00    +0.000 OA
BRANCH  21  22
ATOM     22  C   UNL     1       3.964   6.075  17.520  0.00  0.00    +0.000 A 
ATOM     23  C   UNL     1       4.879   6.498  16.538  0.00  0.00    +0.000 A 
ATOM     24  C   UNL     1       5.466   5.599  15.656  0.00  0.00    +0.000 A 
ATOM     25  C   UNL     1       5.193   4.248  15.781  0.00  0.00    +0.000 A 
ATOM     26  C   UNL     1       4.361   3.805  16.813  0.00  0.00    +0.000 A 
ATOM     27  C   UNL     1       3.726   4.688  17.711  0.00  0.00    +0.000 A 
BRANCH  27  28
ATOM     28  C   UNL     1       2.843   4.118  18.780  0.00  0.00    +0.000 A 
ATOM     29  C   UNL     1       3.253   3.976  20.114  0.00  0.00    +0.000 A 
ATOM     30  C   UNL     1       2.413   3.434  21.095  0.00  0.00    +0.000 A 
ATOM     31  C   UNL     1       1.136   2.992  20.759  0.00  0.00    +0.000 A 
ATOM     32  C   UNL     1       0.708   3.092  19.445  0.00  0.00    +0.000 A 
ATOM     33  C   UNL     1       1.547   3.652  18.471  0.00  0.00    +0.000 A 
ENDBRANCH  27  28
ENDBRANCH  21  22
ENDBRANCH  20  21
ENDBRANCH  19  20
ENDBRANCH   4  19
TORSDOF 9
ENDMDL
MODEL 3
REMARK VINA RESULT:      -7.8      6.327      9.858
REMARK  Name = 
REMARK  9 active torsions:
REMARK  status: ('A' for Active; 'I' for Inactive)
REMARK    1  A    between atoms: S_2  and  N_4
REMARK    2  A    between atoms: S_2  and  C_27
REMARK    3  A    between atoms: N_4  and  C_5
REMARK    4  A    between atoms: C_5  and  C_6
REMARK    5  A    between atoms: N_9  and  C_10
REMARK    6  A    between atoms: C_10  and  C_11
REMARK    7  A    between atoms: C_11  and  O_12
REMARK    8  A    between atoms: O_12  and  C_13
REMARK    9  A    between atoms: C_18  and  C_19
REMARK                            x       y       z     vdW  Elec       q    Type
REMARK                         _______ _______ _______ _____ _____    ______ ____
ROOT
ATOM      1  C   UNL     1      -0.578  10.354  20.293  0.00  0.00    +0.000 C 
ATOM      2  C   UNL     1       0.094   9.085  20.835  0.00  0.00    +0.000 C 
ATOM      3  C   UNL     1       1.383   8.739  20.088  0.00  0.00    +0.000 C 
ATOM      4  N   UNL     1       1.246   8.699  18.629  0.00  0.00    +0.000 NA
ATOM      5  C   UNL     1       0.581   9.881  18.074  0.00  0.00    +0.000 C 
ATOM      6  C   UNL     1      -0.746  10.175  18.775  0.00  0.00    +0.000 C 
ENDROOT
BRANCH   1   7
ATOM      7  C   UNL     1       0.187  11.640  20.693  0.00  0.00    +0.000 C 
BRANCH   7   8
ATOM      8  N   UNL     1      -0.762  12.666  21.176  0.00  0.00    +0.000 NA
ATOM      9  H   UNL     1      -0.518  13.615  20.908  0.00  0.00    +0.000 HD
BRANCH   8  11
ATOM     10  O   UNL     1      -0.734  11.418  23.391  0.00  0.00    +0.000 OA
ATOM     11  S   UNL     1      -1.129  12.685  22.821  0.00  0.00    +0.000 S 
ATOM     12  O   UNL     1      -0.610  13.929  23.344  0.00  0.00    +0.000 OA
BRANCH  11  13
ATOM     13  C   UNL     1      -2.887  12.765  23.020  0.00  0.00    +0.000 A 
ATOM     14  C   UNL     1      -3.701  12.720  24.139  0.00  0.00    +0.000 A 
ATOM     15  C   UNL     1      -5.083  12.837  23.808  0.00  0.00    +0.000 A 
ATOM     16  C   UNL     1      -5.253  12.973  22.454  0.00  0.00    +0.000 A 
ATOM     17 CL   UNL     1      -6.745  13.144  21.623  0.00  0.00    +0.000 Cl
ATOM     18  S   UNL     1      -3.803  12.955  21.585  0.00  0.00    +0.000 S 
ENDBRANCH  11  13
ENDBRANCH   8  11
ENDBRANCH   7   8
ENDBRANCH   1   7
BRANCH   4  19
ATOM     19  C   UNL     1       2.549   8.421  17.966  0.00  0.00    +0.000 C 
BRANCH  19  20
ATOM     20  C   UNL     1       3.278   7.115  18.354  0.00  0.00    +0.000 C 
BRANCH  20  21
ATOM     21  O   UNL     1       2.482   5.962  18.058  0.00  0.00    +0.000 OA
BRANCH  21  22
ATOM     22  C   UNL     1       2.526   4.908  18.938  0.00  0.00    +0.000 A 
ATOM     23  C   UNL     1       1.482   4.647  19.845  0.00  0.00    +0.000 A 
ATOM     24  C   UNL     1       1.592   3.660  20.817  0.00  0.00    +0.000 A 
ATOM     25  C   UNL     1       2.730   2.873  20.859  0.00  0.00    +0.000 A 
ATOM     26  C   UNL     1       3.732   3.058  19.903  0.00  0.00    +0.000 A 
ATOM     27  C   UNL     1       3.668   4.066  18.919  0.00  0.00    +0.000 A 
BRANCH  27  28
ATOM     28  C   UNL     1       4.799   4.192  17.941  0.00  0.00    +0.000 A 
ATOM     29  C   UNL     1       4.676   3.860  16.585  0.00  0.00    +0.000 A 
ATOM     30  C   UNL     1       5.748   3.979  15.691  0.00  0.00    +0.000 A 
ATOM     31  C   UNL     1       6.991   4.416  16.142  0.00  0.00    +0.000 A 
ATOM     32  C   UNL     1       7.156   4.728  17.482  0.00  0.00    +0.000 A 
ATOM     33  C   UNL     1       6.074   4.623  18.367  0.00  0.00    +0.000 A 
ENDBRANCH  27  28
ENDBRANCH  21  22
ENDBRANCH  20  21
ENDBRANCH  19  20
ENDBRANCH   4  19
TORSDOF 9
ENDMDL
MODEL 4
REMARK VINA RESULT:      -7.8      6.477      9.814
REMARK  Name = 
REMARK  9 active torsions:
REMARK  status: ('A' for Active; 'I' for Inactive)
REMARK    1  A    between atoms: S_2  and  N_4
REMARK    2  A    between atoms: S_2  and  C_27
REMARK    3  A    between atoms: N_4  and  C_5
REMARK    4  A    between atoms: C_5  and  C_6
REMARK    5  A    between atoms: N_9  and  C_10
REMARK    6  A    between atoms: C_10  and  C_11
REMARK    7  A    between atoms: C_11  and  O_12
REMARK    8  A    between atoms: O_12  and  C_13
REMARK    9  A    between atoms: C_18  and  C_19
REMARK                            x       y       z     vdW  Elec       q    Type
REMARK                         _______ _______ _______ _____ _____    ______ ____
ROOT
ATOM      1  C   UNL     1      -0.671  11.854  19.936  0.00  0.00    +0.000 C 
ATOM      2  C   UNL     1      -0.816  10.333  20.087  0.00  0.00    +0.000 C 
ATOM      3  C   UNL     1       0.459   9.581  19.702  0.00  0.00    +0.000 C 
ATOM      4  N   UNL     1       1.006   9.946  18.392  0.00  0.00    +0.000 NA
ATOM      5  C   UNL     1       1.133  11.393  18.196  0.00  0.00    +0.000 C 
ATOM      6  C   UNL     1      -0.171  12.129  18.508  0.00  0.00    +0.000 C 
ENDROOT
BRANCH   1   7
ATOM      7  C   UNL     1       0.217  12.472  21.043  0.00  0.00    +0.000 C 
BRANCH   7   8
ATOM      8  N   UNL     1      -0.550  13.480  21.807  0.00  0.00    +0.000 NA
ATOM      9  H   UNL     1      -0.017  14.309  22.051  0.00  0.00    +0.000 HD
BRANCH   8  11
ATOM     10  O   UNL     1      -1.001  11.588  23.446  0.00  0.00    +0.000 OA
ATOM     11  S   UNL     1      -1.352  12.968  23.198  0.00  0.00    +0.000 S 
ATOM     12  O   UNL     1      -1.124  13.984  24.202  0.00  0.00    +0.000 OA
BRANCH  11  13
ATOM     13  C   UNL     1      -3.097  12.965  22.893  0.00  0.00    +0.000 A 
ATOM     14  C   UNL     1      -3.837  12.988  21.724  0.00  0.00    +0.000 A 
ATOM     15  C   UNL     1      -5.241  12.960  21.973  0.00  0.00    +0.000 A 
ATOM     16  C   UNL     1      -5.500  12.908  23.318  0.00  0.00    +0.000 A 
ATOM     17 CL   UNL     1      -7.047  12.860  24.061  0.00  0.00    +0.000 Cl
ATOM     18  S   UNL     1      -4.106  12.902  24.276  0.00  0.00    +0.000 S 
ENDBRANCH  11  13
ENDBRANCH   8  11
ENDBRANCH   7   8
ENDBRANCH   1   7
BRANCH   4  19
ATOM     19  C   UNL     1       2.278   9.226  18.112  0.00  0.00    +0.000 C 
BRANCH  19  20
ATOM     20  C   UNL     1       2.210   7.686  17.992  0.00  0.00    +0.000 C 
BRANCH  20  21
ATOM     21  O   UNL     1       3.428   7.071  18.427  0.00  0.00    +0.000 OA
BRANCH  21  22
ATOM     22  C   UNL     1       4.037   6.180  17.579  0.00  0.00    +0.000 A 
ATOM     23  C   UNL     1       4.964   6.589  16.603  0.00  0.00    +0.000 A 
ATOM     24  C   UNL     1       5.475   5.699  15.667  0.00  0.00    +0.000 A 
ATOM     25  C   UNL     1       5.112   4.365  15.728  0.00  0.00    +0.000 A 
ATOM     26  C   UNL     1       4.267   3.927  16.752  0.00  0.00    +0.000 A 
ATOM     27  C   UNL     1       3.708   4.804  17.704  0.00  0.00    +0.000 A 
BRANCH  27  28
ATOM     28  C   UNL     1       2.803   4.241  18.760  0.00  0.00    +0.000 A 
ATOM     29  C   UNL     1       3.092   4.313  20.130  0.00  0.00    +0.000 A 
ATOM     30  C   UNL     1       2.236   3.773  21.098  0.00  0.00    +0.000 A 
ATOM     31  C   UNL     1       1.067   3.119  20.715  0.00  0.00    +0.000 A 
ATOM     32  C   UNL     1       0.765   3.006  19.368  0.00  0.00    +0.000 A 
ATOM     33  C   UNL     1       1.616   3.563  18.405  0.00  0.00    +0.000 A 
ENDBRANCH  27  28
ENDBRANCH  21  22
ENDBRANCH  20  21
ENDBRANCH  19  20
ENDBRANCH   4  19
TORSDOF 9
ENDMDL
MODEL 5
REMARK VINA RESULT:      -7.7      6.094      9.748
REMARK  Name = 
REMARK  9 active torsions:
REMARK  status: ('A' for Active; 'I' for Inactive)
REMARK    1  A    between atoms: S_2  and  N_4
REMARK    2  A    between atoms: S_2  and  C_27
REMARK    3  A    between atoms: N_4  and  C_5
REMARK    4  A    between atoms: C_5  and  C_6
REMARK    5  A    between atoms: N_9  and  C_10
REMARK    6  A    between atoms: C_10  and  C_11
REMARK    7  A    between atoms: C_11  and  O_12
REMARK    8  A    between atoms: O_12  and  C_13
REMARK    9  A    between atoms: C_18  and  C_19
REMARK                            x       y       z     vdW  Elec       q    Type
REMARK                         _______ _______ _______ _____ _____    ______ ____
ROOT
ATOM      1  C   UNL     1       0.343  10.786  19.238  0.00  0.00    +0.000 C 
ATOM      2  C   UNL     1       0.015   9.862  20.419  0.00  0.00    +0.000 C 
ATOM      3  C   UNL     1       1.088   8.795  20.643  0.00  0.00    +0.000 C 
ATOM      4  N   UNL     1       1.446   8.034  19.443  0.00  0.00    +0.000 NA
ATOM      5  C   UNL     1       1.738   8.880  18.283  0.00  0.00    +0.000 C 
ATOM      6  C   UNL     1       0.623   9.893  18.018  0.00  0.00    +0.000 C 
ENDROOT
BRANCH   1   7
ATOM      7  C   UNL     1       1.485  11.777  19.567  0.00  0.00    +0.000 C 
BRANCH   7   8
ATOM      8  N   UNL     1       1.377  12.231  20.971  0.00  0.00    +0.000 NA
ATOM      9  H   UNL     1       1.059  11.513  21.615  0.00  0.00    +0.000 HD
BRANCH   8  11
ATOM     10  O   UNL     1       1.116  14.355  22.344  0.00  0.00    +0.000 OA
ATOM     11  S   UNL     1       0.474  13.620  21.280  0.00  0.00    +0.000 S 
ATOM     12  O   UNL     1       0.220  14.239  19.997  0.00  0.00    +0.000 OA
BRANCH  11  13
ATOM     13  C   UNL     1      -1.111  13.150  21.918  0.00  0.00    +0.000 A 
ATOM     14  C   UNL     1      -1.519  12.709  23.164  0.00  0.00    +0.000 A 
ATOM     15  C   UNL     1      -2.922  12.460  23.216  0.00  0.00    +0.000 A 
ATOM     16  C   UNL     1      -3.514  12.731  22.010  0.00  0.00    +0.000 A 
ATOM     17 CL   UNL     1      -5.180  12.570  21.629  0.00  0.00    +0.000 Cl
ATOM     18  S   UNL     1      -2.428  13.264  20.828  0.00  0.00    +0.000 S 
ENDBRANCH  11  13
ENDBRANCH   8  11
ENDBRANCH   7   8
ENDBRANCH   1   7
BRANCH   4  19
ATOM     19  C   UNL     1       2.538   7.061  19.720  0.00  0.00    +0.000 C 
BRANCH  19  20
ATOM     20  C   UNL     1       3.388   6.588  18.519  0.00  0.00    +0.000 C 
BRANCH  20  21
ATOM     21  O   UNL     1       2.627   5.763  17.629  0.00  0.00    +0.000 OA
BRANCH  21  22
ATOM     22  C   UNL     1       2.524   4.426  17.923  0.00  0.00    +0.000 A 
ATOM     23  C   UNL     1       1.365   3.873  18.498  0.00  0.00    +0.000 A 
ATOM     24  C   UNL     1       1.319   2.547  18.910  0.00  0.00    +0.000 A 
ATOM     25  C   UNL     1       2.416   1.731  18.697  0.00  0.00    +0.000 A 
ATOM     26  C   UNL     1       3.538   2.242  18.039  0.00  0.00    +0.000 A 
ATOM     27  C   UNL     1       3.633   3.588  17.631  0.00  0.00    +0.000 A 
BRANCH  27  28
ATOM     28  C   UNL     1       4.883   4.047  16.940  0.00  0.00    +0.000 A 
ATOM     29  C   UNL     1       4.973   4.204  15.549  0.00  0.00    +0.000 A 
ATOM     30  C   UNL     1       6.153   4.627  14.925  0.00  0.00    +0.000 A 
ATOM     31  C   UNL     1       7.295   4.882  15.682  0.00  0.00    +0.000 A 
ATOM     32  C   UNL     1       7.249   4.710  17.056  0.00  0.00    +0.000 A 
ATOM     33  C   UNL     1       6.060   4.304  17.677  0.00  0.00    +0.000 A 
ENDBRANCH  27  28
ENDBRANCH  21  22
ENDBRANCH  20  21
ENDBRANCH  19  20
ENDBRANCH   4  19
TORSDOF 9
ENDMDL
MODEL 6
REMARK VINA RESULT:      -7.7      6.399      7.913
REMARK  Name = 
REMARK  9 active torsions:
REMARK  status: ('A' for Active; 'I' for Inactive)
REMARK    1  A    between atoms: S_2  and  N_4
REMARK    2  A    between atoms: S_2  and  C_27
REMARK    3  A    between atoms: N_4  and  C_5
REMARK    4  A    between atoms: C_5  and  C_6
REMARK    5  A    between atoms: N_9  and  C_10
REMARK    6  A    between atoms: C_10  and  C_11
REMARK    7  A    between atoms: C_11  and  O_12
REMARK    8  A    between atoms: O_12  and  C_13
REMARK    9  A    between atoms: C_18  and  C_19
REMARK                            x       y       z     vdW  Elec       q    Type
REMARK                         _______ _______ _______ _____ _____    ______ ____
ROOT
ATOM      1  C   UNL     1       3.957   2.950  17.747  0.00  0.00    +0.000 C 
ATOM      2  C   UNL     1       2.773   3.683  17.100  0.00  0.00    +0.000 C 
ATOM      3  C   UNL     1       2.067   4.630  18.072  0.00  0.00    +0.000 C 
ATOM      4  N   UNL     1       1.692   4.017  19.350  0.00  0.00    +0.000 NA
ATOM      5  C   UNL     1       2.788   3.282  19.987  0.00  0.00    +0.000 C 
ATOM      6  C   UNL     1       3.438   2.281  19.031  0.00  0.00    +0.000 C 
ENDROOT
BRANCH   1   7
ATOM      7  C   UNL     1       5.172   3.882  17.972  0.00  0.00    +0.000 C 
BRANCH   7   8
ATOM      8  N   UNL     1       5.243   4.893  16.895  0.00  0.00    +0.000 NA
ATOM      9  H   UNL     1       4.598   4.729  16.128  0.00  0.00    +0.000 HD
BRANCH   8  11
ATOM     10  O   UNL     1       6.942   6.650  16.189  0.00  0.00    +0.000 OA
ATOM     11  S   UNL     1       6.754   5.218  16.221  0.00  0.00    +0.000 S 
ATOM     12  O   UNL     1       7.700   4.360  16.901  0.00  0.00    +0.000 OA
BRANCH  11  13
ATOM     13  C   UNL     1       6.755   4.702  14.527  0.00  0.00    +0.000 A 
ATOM     14  C   UNL     1       7.555   5.043  13.450  0.00  0.00    +0.000 A 
ATOM     15  C   UNL     1       7.184   4.350  12.260  0.00  0.00    +0.000 A 
ATOM     16  C   UNL     1       6.125   3.510  12.491  0.00  0.00    +0.000 A 
ATOM     17 CL   UNL     1       5.359   2.489  11.343  0.00  0.00    +0.000 Cl
ATOM     18  S   UNL     1       5.571   3.544  14.089  0.00  0.00    +0.000 S 
ENDBRANCH  11  13
ENDBRANCH   8  11
ENDBRANCH   7   8
ENDBRANCH   1   7
BRANCH   4  19
ATOM     19  C   UNL     1       1.070   5.009  20.269  0.00  0.00    +0.000 C 
BRANCH  19  20
ATOM     20  C   UNL     1       2.006   6.039  20.940  0.00  0.00    +0.000 C 
BRANCH  20  21
ATOM     21  O   UNL     1       1.411   7.342  20.979  0.00  0.00    +0.000 OA
BRANCH  21  22
ATOM     22  C   UNL     1       1.568   8.153  19.882  0.00  0.00    +0.000 A 
ATOM     23  C   UNL     1       2.259   7.730  18.732  0.00  0.00    +0.000 A 
ATOM     24  C   UNL     1       2.524   8.600  17.681  0.00  0.00    +0.000 A 
ATOM     25  C   UNL     1       2.047   9.898  17.738  0.00  0.00    +0.000 A 
ATOM     26  C   UNL     1       1.276  10.303  18.831  0.00  0.00    +0.000 A 
ATOM     27  C   UNL     1       1.009   9.457  19.928  0.00  0.00    +0.000 A 
BRANCH  27  28
ATOM     28  C   UNL     1       0.179   9.986  21.061  0.00  0.00    +0.000 A 
ATOM     29  C   UNL     1       0.103   9.353  22.310  0.00  0.00    +0.000 A 
ATOM     30  C   UNL     1      -0.684   9.861  23.351  0.00  0.00    +0.000 A 
ATOM     31  C   UNL     1      -1.443  11.014  23.160  0.00  0.00    +0.000 A 
ATOM     32  C   UNL     1      -1.412  11.648  21.928  0.00  0.00    +0.000 A 
ATOM     33  C   UNL     1      -0.608  11.146  20.896  0.00  0.00    +0.000 A 
ENDBRANCH  27  28
ENDBRANCH  21  22
ENDBRANCH  20  21
ENDBRANCH  19  20
ENDBRANCH   4  19
TORSDOF 9
ENDMDL
MODEL 7
REMARK VINA RESULT:      -7.7      6.348     10.000
REMARK  Name = 
REMARK  9 active torsions:
REMARK  status: ('A' for Active; 'I' for Inactive)
REMARK    1  A    between atoms: S_2  and  N_4
REMARK    2  A    between atoms: S_2  and  C_27
REMARK    3  A    between atoms: N_4  and  C_5
REMARK    4  A    between atoms: C_5  and  C_6
REMARK    5  A    between atoms: N_9  and  C_10
REMARK    6  A    between atoms: C_10  and  C_11
REMARK    7  A    between atoms: C_11  and  O_12
REMARK    8  A    between atoms: O_12  and  C_13
REMARK    9  A    between atoms: C_18  and  C_19
REMARK                            x       y       z     vdW  Elec       q    Type
REMARK                         _______ _______ _______ _____ _____    ______ ____
ROOT
ATOM      1  C   UNL     1      -0.579  10.575  20.787  0.00  0.00    +0.000 C 
ATOM      2  C   UNL     1      -0.036   9.211  21.239  0.00  0.00    +0.000 C 
ATOM      3  C   UNL     1       1.168   8.756  20.413  0.00  0.00    +0.000 C 
ATOM      4  N   UNL     1       0.961   8.803  18.963  0.00  0.00    +0.000 NA
ATOM      5  C   UNL     1       0.415  10.080  18.494  0.00  0.00    +0.000 C 
ATOM      6  C   UNL     1      -0.835  10.490  19.274  0.00  0.00    +0.000 C 
ENDROOT
BRANCH   1   7
ATOM      7  C   UNL     1       0.349  11.742  21.203  0.00  0.00    +0.000 C 
BRANCH   7   8
ATOM      8  N   UNL     1      -0.074  12.287  22.511  0.00  0.00    +0.000 NA
ATOM      9  H   UNL     1      -0.568  11.621  23.097  0.00  0.00    +0.000 HD
BRANCH   8  11
ATOM     10  O   UNL     1      -0.642  14.452  23.719  0.00  0.00    +0.000 OA
ATOM     11  S   UNL     1      -0.962  13.720  22.515  0.00  0.00    +0.000 S 
ATOM     12  O   UNL     1      -0.783  14.318  21.211  0.00  0.00    +0.000 OA
BRANCH  11  13
ATOM     13  C   UNL     1      -2.686  13.331  22.642  0.00  0.00    +0.000 A 
ATOM     14  C   UNL     1      -3.531  13.191  23.729  0.00  0.00    +0.000 A 
ATOM     15  C   UNL     1      -4.867  12.880  23.337  0.00  0.00    +0.000 A 
ATOM     16  C   UNL     1      -4.974  12.806  21.973  0.00  0.00    +0.000 A 
ATOM     17 CL   UNL     1      -6.396  12.458  21.076  0.00  0.00    +0.000 Cl
ATOM     18  S   UNL     1      -3.517  13.092  21.163  0.00  0.00    +0.000 S 
ENDBRANCH  11  13
ENDBRANCH   8  11
ENDBRANCH   7   8
ENDBRANCH   1   7
BRANCH   4  19
ATOM     19  C   UNL     1       2.191   8.410  18.223  0.00  0.00    +0.000 C 
BRANCH  19  20
ATOM     20  C   UNL     1       2.993   7.207  18.769  0.00  0.00    +0.000 C 
BRANCH  20  21
ATOM     21  O   UNL     1       2.472   5.964  18.284  0.00  0.00    +0.000 OA
BRANCH  21  22
ATOM     22  C   UNL     1       2.490   4.885  19.133  0.00  0.00    +0.000 A 
ATOM     23  C   UNL     1       1.439   4.621  20.030  0.00  0.00    +0.000 A 
ATOM     24  C   UNL     1       1.525   3.604  20.972  0.00  0.00    +0.000 A 
ATOM     25  C   UNL     1       2.644   2.790  20.992  0.00  0.00    +0.000 A 
ATOM     26  C   UNL     1       3.652   2.980  20.043  0.00  0.00    +0.000 A 
ATOM     27  C   UNL     1       3.613   4.017  19.089  0.00  0.00    +0.000 A 
BRANCH  27  28
ATOM     28  C   UNL     1       4.748   4.147  18.117  0.00  0.00    +0.000 A 
ATOM     29  C   UNL     1       6.005   4.655  18.475  0.00  0.00    +0.000 A 
ATOM     30  C   UNL     1       7.049   4.773  17.549  0.00  0.00    +0.000 A 
ATOM     31  C   UNL     1       6.852   4.405  16.220  0.00  0.00    +0.000 A 
ATOM     32  C   UNL     1       5.613   3.925  15.825  0.00  0.00    +0.000 A 
ATOM     33  C   UNL     1       4.579   3.792  16.761  0.00  0.00    +0.000 A 
ENDBRANCH  27  28
ENDBRANCH  21  22
ENDBRANCH  20  21
ENDBRANCH  19  20
ENDBRANCH   4  19
TORSDOF 9
ENDMDL
MODEL 8
REMARK VINA RESULT:      -7.7      4.456      7.125
REMARK  Name = 
REMARK  9 active torsions:
REMARK  status: ('A' for Active; 'I' for Inactive)
REMARK    1  A    between atoms: S_2  and  N_4
REMARK    2  A    between atoms: S_2  and  C_27
REMARK    3  A    between atoms: N_4  and  C_5
REMARK    4  A    between atoms: C_5  and  C_6
REMARK    5  A    between atoms: N_9  and  C_10
REMARK    6  A    between atoms: C_10  and  C_11
REMARK    7  A    between atoms: C_11  and  O_12
REMARK    8  A    between atoms: O_12  and  C_13
REMARK    9  A    between atoms: C_18  and  C_19
REMARK                            x       y       z     vdW  Elec       q    Type
REMARK                         _______ _______ _______ _____ _____    ______ ____
ROOT
ATOM      1  C   UNL     1       1.904   3.524  21.138  0.00  0.00    +0.000 C 
ATOM      2  C   UNL     1       3.406   3.257  20.972  0.00  0.00    +0.000 C 
ATOM      3  C   UNL     1       3.824   3.145  19.505  0.00  0.00    +0.000 C 
ATOM      4  N   UNL     1       3.017   2.212  18.714  0.00  0.00    +0.000 NA
ATOM      5  C   UNL     1       1.574   2.415  18.868  0.00  0.00    +0.000 C 
ATOM      6  C   UNL     1       1.153   2.447  20.338  0.00  0.00    +0.000 C 
ENDROOT
BRANCH   1   7
ATOM      7  C   UNL     1       1.519   4.974  20.753  0.00  0.00    +0.000 C 
BRANCH   7   8
ATOM      8  N   UNL     1       2.722   5.724  20.331  0.00  0.00    +0.000 NA
ATOM      9  H   UNL     1       3.000   6.459  20.974  0.00  0.00    +0.000 HD
BRANCH   8  11
ATOM     10  O   UNL     1       4.106   6.534  18.357  0.00  0.00    +0.000 OA
ATOM     11  S   UNL     1       2.733   6.381  18.779  0.00  0.00    +0.000 S 
ATOM     12  O   UNL     1       1.797   5.603  17.997  0.00  0.00    +0.000 OA
BRANCH  11  13
ATOM     13  C   UNL     1       2.071   8.023  18.842  0.00  0.00    +0.000 A 
ATOM     14  C   UNL     1       1.948   9.014  17.884  0.00  0.00    +0.000 A 
ATOM     15  C   UNL     1       1.328  10.190  18.401  0.00  0.00    +0.000 A 
ATOM     16  C   UNL     1       1.002  10.033  19.723  0.00  0.00    +0.000 A 
ATOM     17 CL   UNL     1       0.243  11.194  20.735  0.00  0.00    +0.000 Cl
ATOM     18  S   UNL     1       1.430   8.522  20.350  0.00  0.00    +0.000 S 
ENDBRANCH  11  13
ENDBRANCH   8  11
ENDBRANCH   7   8
ENDBRANCH   1   7
BRANCH   4  19
ATOM     19  C   UNL     1       3.436   2.202  17.286  0.00  0.00    +0.000 C 
BRANCH  19  20
ATOM     20  C   UNL     1       4.804   2.835  16.944  0.00  0.00    +0.000 C 
BRANCH  20  21
ATOM     21  O   UNL     1       4.650   4.035  16.177  0.00  0.00    +0.000 OA
BRANCH  21  22
ATOM     22  C   UNL     1       5.423   4.181  15.051  0.00  0.00    +0.000 A 
ATOM     23  C   UNL     1       5.029   3.669  13.801  0.00  0.00    +0.000 A 
ATOM     24  C   UNL     1       5.874   3.709  12.699  0.00  0.00    +0.000 A 
ATOM     25  C   UNL     1       7.111   4.318  12.814  0.00  0.00    +0.000 A 
ATOM     26  C   UNL     1       7.476   4.916  14.023  0.00  0.00    +0.000 A 
ATOM     27  C   UNL     1       6.657   4.873  15.171  0.00  0.00    +0.000 A 
BRANCH  27  28
ATOM     28  C   UNL     1       7.139   5.536  16.427  0.00  0.00    +0.000 A 
ATOM     29  C   UNL     1       7.519   4.819  17.571  0.00  0.00    +0.000 A 
ATOM     30  C   UNL     1       7.960   5.460  18.736  0.00  0.00    +0.000 A 
ATOM     31  C   UNL     1       8.010   6.851  18.795  0.00  0.00    +0.000 A 
ATOM     32  C   UNL     1       7.616   7.591  17.692  0.00  0.00    +0.000 A 
ATOM     33  C   UNL     1       7.193   6.944  16.523  0.00  0.00    +0.000 A 
ENDBRANCH  27  28
ENDBRANCH  21  22
ENDBRANCH  20  21
ENDBRANCH  19  20
ENDBRANCH   4  19
TORSDOF 9
ENDMDL
MODEL 9
REMARK VINA RESULT:      -7.7      6.210      9.871
REMARK  Name = 
REMARK  9 active torsions:
REMARK  status: ('A' for Active; 'I' for Inactive)
REMARK    1  A    between atoms: S_2  and  N_4
REMARK    2  A    between atoms: S_2  and  C_27
REMARK    3  A    between atoms: N_4  and  C_5
REMARK    4  A    between atoms: C_5  and  C_6
REMARK    5  A    between atoms: N_9  and  C_10
REMARK    6  A    between atoms: C_10  and  C_11
REMARK    7  A    between atoms: C_11  and  O_12
REMARK    8  A    between atoms: O_12  and  C_13
REMARK    9  A    between atoms: C_18  and  C_19
REMARK                            x       y       z     vdW  Elec       q    Type
REMARK                         _______ _______ _______ _____ _____    ______ ____
ROOT
ATOM      1  C   UNL     1       0.046  11.038  19.790  0.00  0.00    +0.000 C 
ATOM      2  C   UNL     1      -0.074   9.989  20.906  0.00  0.00    +0.000 C 
ATOM      3  C   UNL     1       1.060   8.962  20.869  0.00  0.00    +0.000 C 
ATOM      4  N   UNL     1       1.271   8.339  19.559  0.00  0.00    +0.000 NA
ATOM      5  C   UNL     1       1.361   9.306  18.462  0.00  0.00    +0.000 C 
ATOM      6  C   UNL     1       0.183  10.281  18.459  0.00  0.00    +0.000 C 
ENDROOT
BRANCH   1   7
ATOM      7  C   UNL     1       1.186  12.050  20.057  0.00  0.00    +0.000 C 
BRANCH   7   8
ATOM      8  N   UNL     1       1.076  12.590  21.430  0.00  0.00    +0.000 NA
ATOM      9  H   UNL     1       0.830  11.896  22.130  0.00  0.00    +0.000 HD
BRANCH   8  11
ATOM     10  O   UNL     1       0.694  14.785  22.655  0.00  0.00    +0.000 OA
ATOM     11  S   UNL     1       0.078  13.926  21.670  0.00  0.00    +0.000 S 
ATOM     12  O   UNL     1      -0.264  14.426  20.357  0.00  0.00    +0.000 OA
BRANCH  11  13
ATOM     13  C   UNL     1      -1.444  13.387  22.399  0.00  0.00    +0.000 A 
ATOM     14  C   UNL     1      -1.786  12.247  23.106  0.00  0.00    +0.000 A 
ATOM     15  C   UNL     1      -3.152  12.254  23.515  0.00  0.00    +0.000 A 
ATOM     16  C   UNL     1      -3.781  13.402  23.107  0.00  0.00    +0.000 A 
ATOM     17 CL   UNL     1      -5.422  13.823  23.384  0.00  0.00    +0.000 Cl
ATOM     18  S   UNL     1      -2.776  14.454  22.245  0.00  0.00    +0.000 S 
ENDBRANCH  11  13
ENDBRANCH   8  11
ENDBRANCH   7   8
ENDBRANCH   1   7
BRANCH   4  19
ATOM     19  C   UNL     1       2.427   7.402  19.581  0.00  0.00    +0.000 C 
BRANCH  19  20
ATOM     20  C   UNL     1       2.797   6.701  18.254  0.00  0.00    +0.000 C 
BRANCH  20  21
ATOM     21  O   UNL     1       2.077   5.473  18.091  0.00  0.00    +0.000 OA
BRANCH  21  22
ATOM     22  C   UNL     1       2.236   4.503  19.050  0.00  0.00    +0.000 A 
ATOM     23  C   UNL     1       1.208   4.163  19.948  0.00  0.00    +0.000 A 
ATOM     24  C   UNL     1       1.421   3.274  20.995  0.00  0.00    +0.000 A 
ATOM     25  C   UNL     1       2.655   2.661  21.125  0.00  0.00    +0.000 A 
ATOM     26  C   UNL     1       3.655   2.916  20.182  0.00  0.00    +0.000 A 
ATOM     27  C   UNL     1       3.485   3.831  19.122  0.00  0.00    +0.000 A 
BRANCH  27  28
ATOM     28  C   UNL     1       4.621   4.045  18.166  0.00  0.00    +0.000 A 
ATOM     29  C   UNL     1       4.553   3.693  16.810  0.00  0.00    +0.000 A 
ATOM     30  C   UNL     1       5.629   3.896  15.936  0.00  0.00    +0.000 A 
ATOM     31  C   UNL     1       6.822   4.440  16.406  0.00  0.00    +0.000 A 
ATOM     32  C   UNL     1       6.933   4.774  17.747  0.00  0.00    +0.000 A 
ATOM     33  C   UNL     1       5.846   4.585  18.612  0.00  0.00    +0.000 A 
ENDBRANCH  27  28
ENDBRANCH  21  22
ENDBRANCH  20  21
ENDBRANCH  19  20
ENDBRANCH   4  19
TORSDOF 9
ENDMDL
