MODEL 1
REMARK VINA RESULT:      -6.5      0.000      0.000
REMARK  Name = 
REMARK  8 active torsions:
REMARK  status: ('A' for Active; 'I' for Inactive)
REMARK    1  A    between atoms: C_1  and  C_2
REMARK    2  A    between atoms: C_2  and  O_3
REMARK    3  A    between atoms: O_3  and  C_4
REMARK    4  A    between atoms: C_12  and  S_13
REMARK    5  A    between atoms: S_13  and  C_14
REMARK    6  A    between atoms: C_14  and  C_15
REMARK    7  A    between atoms: C_15  and  N_16
REMARK    8  A    between atoms: N_21  and  C_22
REMARK                            x       y       z     vdW  Elec       q    Type
REMARK                         _______ _______ _______ _____ _____    ______ ____
ROOT
ATOM      1  C   UNL     1       1.500   9.390  18.731  0.00  0.00    +0.000 A 
ATOM      2  C   UNL     1       2.449   8.697  17.968  0.00  0.00    +0.000 A 
ATOM      3  C   UNL     1       2.931   7.482  18.463  0.00  0.00    +0.000 A 
ATOM      4  C   UNL     1       2.534   6.944  19.675  0.00  0.00    +0.000 A 
ATOM      5  C   UNL     1       1.600   7.639  20.456  0.00  0.00    +0.000 A 
ATOM      6  C   UNL     1       1.089   8.859  19.969  0.00  0.00    +0.000 A 
ATOM      7 CL   UNL     1      -0.083   9.678  20.944  0.00  0.00    +0.000 Cl
ATOM      8  N   UNL     1       3.162   5.738  19.893  0.00  0.00    +0.000 NA
ATOM      9  C   UNL     1       3.929   5.553  18.841  0.00  0.00    +0.000 A 
ATOM     10  N   UNL     1       3.819   6.572  17.941  0.00  0.00    +0.000 N 
ATOM     11  C   UNL     1       4.425   6.708  16.636  0.00  0.00    +0.000 C 
ENDROOT
BRANCH   1  12
ATOM     12  O   UNL     1       0.946  10.583  18.312  0.00  0.00    +0.000 OA
BRANCH  12  14
ATOM     13  C   UNL     1       2.425  12.497  18.105  0.00  0.00    +0.000 C 
ATOM     14  C   UNL     1       1.429  11.755  18.974  0.00  0.00    +0.000 C 
ENDBRANCH  12  14
ENDBRANCH   1  12
BRANCH   9  15
ATOM     15  S   UNL     1       4.910   4.150  18.560  0.00  0.00    +0.000 S 
BRANCH  15  16
ATOM     16  C   UNL     1       3.742   3.082  17.675  0.00  0.00    +0.000 C 
BRANCH  16  17
ATOM     17  C   UNL     1       3.372   1.849  18.492  0.00  0.00    +0.000 C 
BRANCH  17  18
ATOM     18  N   UNL     1       2.754   2.212  19.750  0.00  0.00    +0.000 N 
ATOM     19  C   UNL     1       1.438   2.531  19.947  0.00  0.00    +0.000 A 
ATOM     20  C   UNL     1       1.347   2.823  21.288  0.00  0.00    +0.000 A 
ATOM     21  N   UNL     1       2.566   2.690  21.902  0.00  0.00    +0.000 NA
ATOM     22  C   UNL     1       3.396   2.327  20.951  0.00  0.00    +0.000 A 
ENDBRANCH  17  18
ENDBRANCH  16  17
ENDBRANCH  15  16
ENDBRANCH   9  15
TORSDOF 6
ENDMDL
MODEL 2
REMARK VINA RESULT:      -6.3      1.043      1.167
REMARK  Name = 
REMARK  8 active torsions:
REMARK  status: ('A' for Active; 'I' for Inactive)
REMARK    1  A    between atoms: C_1  and  C_2
REMARK    2  A    between atoms: C_2  and  O_3
REMARK    3  A    between atoms: O_3  and  C_4
REMARK    4  A    between atoms: C_12  and  S_13
REMARK    5  A    between atoms: S_13  and  C_14
REMARK    6  A    between atoms: C_14  and  C_15
REMARK    7  A    between atoms: C_15  and  N_16
REMARK    8  A    between atoms: N_21  and  C_22
REMARK                            x       y       z     vdW  Elec       q    Type
REMARK                         _______ _______ _______ _____ _____    ______ ____
ROOT
ATOM      1  C   UNL     1       1.365   9.252  18.805  0.00  0.00    +0.000 A 
ATOM      2  C   UNL     1       2.320   8.625  17.994  0.00  0.00    +0.000 A 
ATOM      3  C   UNL     1       2.920   7.455  18.468  0.00  0.00    +0.000 A 
ATOM      4  C   UNL     1       2.633   6.900  19.703  0.00  0.00    +0.000 A 
ATOM      5  C   UNL     1       1.693   7.530  20.531  0.00  0.00    +0.000 A 
ATOM      6  C   UNL     1       1.064   8.703  20.067  0.00  0.00    +0.000 A 
ATOM      7 CL   UNL     1      -0.111   9.440  21.101  0.00  0.00    +0.000 Cl
ATOM      8  N   UNL     1       3.362   5.748  19.893  0.00  0.00    +0.000 NA
ATOM      9  C   UNL     1       4.082   5.611  18.800  0.00  0.00    +0.000 A 
ATOM     10  N   UNL     1       3.845   6.610  17.902  0.00  0.00    +0.000 N 
ATOM     11  C   UNL     1       4.365   6.779  16.564  0.00  0.00    +0.000 C 
ENDROOT
BRANCH   1  12
ATOM     12  O   UNL     1       0.699  10.395  18.411  0.00  0.00    +0.000 OA
BRANCH  12  14
ATOM     13  C   UNL     1      -1.503  11.380  18.142  0.00  0.00    +0.000 C 
ATOM     14  C   UNL     1      -0.605  10.192  17.860  0.00  0.00    +0.000 C 
ENDBRANCH  12  14
ENDBRANCH   1  12
BRANCH   9  15
ATOM     15  S   UNL     1       5.150   4.285  18.472  0.00  0.00    +0.000 S 
BRANCH  15  16
ATOM     16  C   UNL     1       4.033   3.143  17.613  0.00  0.00    +0.000 C 
BRANCH  16  17
ATOM     17  C   UNL     1       3.570   2.011  18.523  0.00  0.00    +0.000 C 
BRANCH  17  18
ATOM     18  N   UNL     1       2.533   2.452  19.433  0.00  0.00    +0.000 N 
ATOM     19  C   UNL     1       1.298   2.929  19.088  0.00  0.00    +0.000 A 
ATOM     20  C   UNL     1       0.697   3.236  20.286  0.00  0.00    +0.000 A 
ATOM     21  N   UNL     1       1.530   2.957  21.339  0.00  0.00    +0.000 NA
ATOM     22  C   UNL     1       2.632   2.492  20.796  0.00  0.00    +0.000 A 
ENDBRANCH  17  18
ENDBRANCH  16  17
ENDBRANCH  15  16
ENDBRANCH   9  15
TORSDOF 6
ENDMDL
MODEL 3
REMARK VINA RESULT:      -6.3      4.587      6.713
REMARK  Name = 
REMARK  8 active torsions:
REMARK  status: ('A' for Active; 'I' for Inactive)
REMARK    1  A    between atoms: C_1  and  C_2
REMARK    2  A    between atoms: C_2  and  O_3
REMARK    3  A    between atoms: O_3  and  C_4
REMARK    4  A    between atoms: C_12  and  S_13
REMARK    5  A    between atoms: S_13  and  C_14
REMARK    6  A    between atoms: C_14  and  C_15
REMARK    7  A    between atoms: C_15  and  N_16
REMARK    8  A    between atoms: N_21  and  C_22
REMARK                            x       y       z     vdW  Elec       q    Type
REMARK                         _______ _______ _______ _____ _____    ______ ____
ROOT
ATOM      1  C   UNL     1       6.414   3.956  13.546  0.00  0.00    +0.000 A 
ATOM      2  C   UNL     1       5.603   3.496  14.591  0.00  0.00    +0.000 A 
ATOM      3  C   UNL     1       5.655   4.172  15.813  0.00  0.00    +0.000 A 
ATOM      4  C   UNL     1       6.483   5.258  16.046  0.00  0.00    +0.000 A 
ATOM      5  C   UNL     1       7.314   5.714  15.013  0.00  0.00    +0.000 A 
ATOM      6  C   UNL     1       7.266   5.057  13.767  0.00  0.00    +0.000 A 
ATOM      7 CL   UNL     1       8.283   5.663  12.506  0.00  0.00    +0.000 Cl
ATOM      8  N   UNL     1       6.311   5.725  17.330  0.00  0.00    +0.000 NA
ATOM      9  C   UNL     1       5.406   4.935  17.866  0.00  0.00    +0.000 A 
ATOM     10  N   UNL     1       4.969   3.987  16.989  0.00  0.00    +0.000 N 
ATOM     11  C   UNL     1       3.933   2.993  17.159  0.00  0.00    +0.000 C 
ENDROOT
BRANCH   1  12
ATOM     12  O   UNL     1       6.410   3.370  12.296  0.00  0.00    +0.000 OA
BRANCH  12  14
ATOM     13  C   UNL     1       4.233   3.430  11.225  0.00  0.00    +0.000 C 
ATOM     14  C   UNL     1       5.249   2.597  11.981  0.00  0.00    +0.000 C 
ENDBRANCH  12  14
ENDBRANCH   1  12
BRANCH   9  15
ATOM     15  S   UNL     1       4.761   5.106  19.467  0.00  0.00    +0.000 S 
BRANCH  15  16
ATOM     16  C   UNL     1       3.258   6.066  19.135  0.00  0.00    +0.000 C 
BRANCH  16  17
ATOM     17  C   UNL     1       2.225   5.902  20.244  0.00  0.00    +0.000 C 
BRANCH  17  18
ATOM     18  N   UNL     1       1.827   4.519  20.399  0.00  0.00    +0.000 N 
ATOM     19  C   UNL     1       1.200   3.744  19.462  0.00  0.00    +0.000 A 
ATOM     20  C   UNL     1       1.012   2.531  20.083  0.00  0.00    +0.000 A 
ATOM     21  N   UNL     1       1.507   2.553  21.361  0.00  0.00    +0.000 NA
ATOM     22  C   UNL     1       1.986   3.765  21.528  0.00  0.00    +0.000 A 
ENDBRANCH  17  18
ENDBRANCH  16  17
ENDBRANCH  15  16
ENDBRANCH   9  15
TORSDOF 6
ENDMDL
MODEL 4
REMARK VINA RESULT:      -6.3      2.251      4.291
REMARK  Name = 
REMARK  8 active torsions:
REMARK  status: ('A' for Active; 'I' for Inactive)
REMARK    1  A    between atoms: C_1  and  C_2
REMARK    2  A    between atoms: C_2  and  O_3
REMARK    3  A    between atoms: O_3  and  C_4
REMARK    4  A    between atoms: C_12  and  S_13
REMARK    5  A    between atoms: S_13  and  C_14
REMARK    6  A    between atoms: C_14  and  C_15
REMARK    7  A    between atoms: C_15  and  N_16
REMARK    8  A    between atoms: N_21  and  C_22
REMARK                            x       y       z     vdW  Elec       q    Type
REMARK                         _______ _______ _______ _____ _____    ______ ____
ROOT
ATOM      1  C   UNL     1       1.257   9.097  20.381  0.00  0.00    +0.000 A 
ATOM      2  C   UNL     1       1.447   7.756  20.738  0.00  0.00    +0.000 A 
ATOM      3  C   UNL     1       1.987   6.890  19.784  0.00  0.00    +0.000 A 
ATOM      4  C   UNL     1       2.323   7.288  18.501  0.00  0.00    +0.000 A 
ATOM      5  C   UNL     1       2.119   8.623  18.126  0.00  0.00    +0.000 A 
ATOM      6  C   UNL     1       1.589   9.517  19.078  0.00  0.00    +0.000 A 
ATOM      7 CL   UNL     1       1.376  11.164  18.593  0.00  0.00    +0.000 Cl
ATOM      8  N   UNL     1       2.843   6.228  17.791  0.00  0.00    +0.000 NA
ATOM      9  C   UNL     1       2.816   5.209  18.623  0.00  0.00    +0.000 A 
ATOM     10  N   UNL     1       2.318   5.557  19.843  0.00  0.00    +0.000 N 
ATOM     11  C   UNL     1       2.199   4.759  21.043  0.00  0.00    +0.000 C 
ENDROOT
BRANCH   1  12
ATOM     12  O   UNL     1       0.755  10.031  21.265  0.00  0.00    +0.000 OA
BRANCH  12  14
ATOM     13  C   UNL     1      -0.800  10.221  23.119  0.00  0.00    +0.000 C 
ATOM     14  C   UNL     1      -0.603   9.835  21.667  0.00  0.00    +0.000 C 
ENDBRANCH  12  14
ENDBRANCH   1  12
BRANCH   9  15
ATOM     15  S   UNL     1       3.414   3.620  18.267  0.00  0.00    +0.000 S 
BRANCH  15  16
ATOM     16  C   UNL     1       4.997   3.640  19.153  0.00  0.00    +0.000 C 
BRANCH  16  17
ATOM     17  C   UNL     1       5.690   4.993  19.044  0.00  0.00    +0.000 C 
BRANCH  17  18
ATOM     18  N   UNL     1       6.294   5.177  17.741  0.00  0.00    +0.000 N 
ATOM     19  C   UNL     1       6.458   4.218  16.779  0.00  0.00    +0.000 A 
ATOM     20  C   UNL     1       7.097   4.866  15.747  0.00  0.00    +0.000 A 
ATOM     21  N   UNL     1       7.321   6.182  16.060  0.00  0.00    +0.000 NA
ATOM     22  C   UNL     1       6.834   6.340  17.269  0.00  0.00    +0.000 A 
ENDBRANCH  17  18
ENDBRANCH  16  17
ENDBRANCH  15  16
ENDBRANCH   9  15
TORSDOF 6
ENDMDL
MODEL 5
REMARK VINA RESULT:      -6.3      4.610      7.726
REMARK  Name = 
REMARK  8 active torsions:
REMARK  status: ('A' for Active; 'I' for Inactive)
REMARK    1  A    between atoms: C_1  and  C_2
REMARK    2  A    between atoms: C_2  and  O_3
REMARK    3  A    between atoms: O_3  and  C_4
REMARK    4  A    between atoms: C_12  and  S_13
REMARK    5  A    between atoms: S_13  and  C_14
REMARK    6  A    between atoms: C_14  and  C_15
REMARK    7  A    between atoms: C_15  and  N_16
REMARK    8  A    between atoms: N_21  and  C_22
REMARK                            x       y       z     vdW  Elec       q    Type
REMARK                         _______ _______ _______ _____ _____    ______ ____
ROOT
ATOM      1  C   UNL     1       2.479   5.921  19.772  0.00  0.00    +0.000 A 
ATOM      2  C   UNL     1       1.874   6.957  20.497  0.00  0.00    +0.000 A 
ATOM      3  C   UNL     1       1.679   8.183  19.856  0.00  0.00    +0.000 A 
ATOM      4  C   UNL     1       2.071   8.429  18.551  0.00  0.00    +0.000 A 
ATOM      5  C   UNL     1       2.695   7.407  17.823  0.00  0.00    +0.000 A 
ATOM      6  C   UNL     1       2.889   6.157  18.445  0.00  0.00    +0.000 A 
ATOM      7 CL   UNL     1       3.636   4.908  17.510  0.00  0.00    +0.000 Cl
ATOM      8  N   UNL     1       1.739   9.714  18.185  0.00  0.00    +0.000 NA
ATOM      9  C   UNL     1       1.165  10.238  19.247  0.00  0.00    +0.000 A 
ATOM     10  N   UNL     1       1.094   9.352  20.281  0.00  0.00    +0.000 N 
ATOM     11  C   UNL     1       0.472   9.507  21.577  0.00  0.00    +0.000 C 
ENDROOT
BRANCH   1  12
ATOM     12  O   UNL     1       2.688   4.668  20.312  0.00  0.00    +0.000 OA
BRANCH  12  14
ATOM     13  C   UNL     1       0.901   3.102  19.820  0.00  0.00    +0.000 C 
ATOM     14  C   UNL     1       1.528   4.024  20.846  0.00  0.00    +0.000 C 
ENDBRANCH  12  14
ENDBRANCH   1  12
BRANCH   9  15
ATOM     15  S   UNL     1       0.492  11.835  19.327  0.00  0.00    +0.000 S 
BRANCH  15  16
ATOM     16  C   UNL     1      -1.281  11.470  19.198  0.00  0.00    +0.000 C 
BRANCH  16  17
ATOM     17  C   UNL     1      -1.555  10.333  18.220  0.00  0.00    +0.000 C 
BRANCH  17  18
ATOM     18  N   UNL     1      -2.620  10.671  17.299  0.00  0.00    +0.000 N 
ATOM     19  C   UNL     1      -3.765  11.359  17.598  0.00  0.00    +0.000 A 
ATOM     20  C   UNL     1      -4.463  11.403  16.414  0.00  0.00    +0.000 A 
ATOM     21  N   UNL     1      -3.775  10.764  15.415  0.00  0.00    +0.000 NA
ATOM     22  C   UNL     1      -2.672  10.327  15.978  0.00  0.00    +0.000 A 
ENDBRANCH  17  18
ENDBRANCH  16  17
ENDBRANCH  15  16
ENDBRANCH   9  15
TORSDOF 6
ENDMDL
MODEL 6
REMARK VINA RESULT:      -6.3      3.594      5.696
REMARK  Name = 
REMARK  8 active torsions:
REMARK  status: ('A' for Active; 'I' for Inactive)
REMARK    1  A    between atoms: C_1  and  C_2
REMARK    2  A    between atoms: C_2  and  O_3
REMARK    3  A    between atoms: O_3  and  C_4
REMARK    4  A    between atoms: C_12  and  S_13
REMARK    5  A    between atoms: S_13  and  C_14
REMARK    6  A    between atoms: C_14  and  C_15
REMARK    7  A    between atoms: C_15  and  N_16
REMARK    8  A    between atoms: N_21  and  C_22
REMARK                            x       y       z     vdW  Elec       q    Type
REMARK                         _______ _______ _______ _____ _____    ______ ____
ROOT
ATOM      1  C   UNL     1       6.119   5.365  16.220  0.00  0.00    +0.000 A 
ATOM      2  C   UNL     1       5.266   4.286  16.486  0.00  0.00    +0.000 A 
ATOM      3  C   UNL     1       4.994   3.975  17.822  0.00  0.00    +0.000 A 
ATOM      4  C   UNL     1       5.541   4.666  18.889  0.00  0.00    +0.000 A 
ATOM      5  C   UNL     1       6.412   5.734  18.635  0.00  0.00    +0.000 A 
ATOM      6  C   UNL     1       6.689   6.075  17.295  0.00  0.00    +0.000 A 
ATOM      7 CL   UNL     1       7.745   7.417  17.016  0.00  0.00    +0.000 Cl
ATOM      8  N   UNL     1       5.084   4.147  20.080  0.00  0.00    +0.000 NA
ATOM      9  C   UNL     1       4.284   3.159  19.742  0.00  0.00    +0.000 A 
ATOM     10  N   UNL     1       4.186   3.019  18.390  0.00  0.00    +0.000 N 
ATOM     11  C   UNL     1       3.357   2.117  17.622  0.00  0.00    +0.000 C 
ENDROOT
BRANCH   1  12
ATOM     12  O   UNL     1       6.425   5.763  14.935  0.00  0.00    +0.000 OA
BRANCH  12  14
ATOM     13  C   UNL     1       7.867   5.308  13.036  0.00  0.00    +0.000 C 
ATOM     14  C   UNL     1       6.918   4.736  14.070  0.00  0.00    +0.000 C 
ENDBRANCH  12  14
ENDBRANCH   1  12
BRANCH   9  15
ATOM     15  S   UNL     1       3.380   2.186  20.858  0.00  0.00    +0.000 S 
BRANCH  15  16
ATOM     16  C   UNL     1       2.124   3.372  21.413  0.00  0.00    +0.000 C 
BRANCH  16  17
ATOM     17  C   UNL     1       1.229   3.826  20.266  0.00  0.00    +0.000 C 
BRANCH  17  18
ATOM     18  N   UNL     1       1.682   5.081  19.704  0.00  0.00    +0.000 N 
ATOM     19  C   UNL     1       1.832   5.369  18.375  0.00  0.00    +0.000 A 
ATOM     20  C   UNL     1       2.305   6.660  18.350  0.00  0.00    +0.000 A 
ATOM     21  N   UNL     1       2.444   7.156  19.621  0.00  0.00    +0.000 NA
ATOM     22  C   UNL     1       2.067   6.182  20.417  0.00  0.00    +0.000 A 
ENDBRANCH  17  18
ENDBRANCH  16  17
ENDBRANCH  15  16
ENDBRANCH   9  15
TORSDOF 6
ENDMDL
MODEL 7
REMARK VINA RESULT:      -6.2      4.632      7.675
REMARK  Name = 
REMARK  8 active torsions:
REMARK  status: ('A' for Active; 'I' for Inactive)
REMARK    1  A    between atoms: C_1  and  C_2
REMARK    2  A    between atoms: C_2  and  O_3
REMARK    3  A    between atoms: O_3  and  C_4
REMARK    4  A    between atoms: C_12  and  S_13
REMARK    5  A    between atoms: S_13  and  C_14
REMARK    6  A    between atoms: C_14  and  C_15
REMARK    7  A    between atoms: C_15  and  N_16
REMARK    8  A    between atoms: N_21  and  C_22
REMARK                            x       y       z     vdW  Elec       q    Type
REMARK                         _______ _______ _______ _____ _____    ______ ____
ROOT
ATOM      1  C   UNL     1       2.964   5.688  19.413  0.00  0.00    +0.000 A 
ATOM      2  C   UNL     1       2.215   6.571  20.202  0.00  0.00    +0.000 A 
ATOM      3  C   UNL     1       1.919   7.833  19.678  0.00  0.00    +0.000 A 
ATOM      4  C   UNL     1       2.346   8.257  18.431  0.00  0.00    +0.000 A 
ATOM      5  C   UNL     1       3.113   7.388  17.642  0.00  0.00    +0.000 A 
ATOM      6  C   UNL     1       3.411   6.105  18.144  0.00  0.00    +0.000 A 
ATOM      7 CL   UNL     1       4.334   5.048  17.133  0.00  0.00    +0.000 Cl
ATOM      8  N   UNL     1       1.894   9.533  18.178  0.00  0.00    +0.000 NA
ATOM      9  C   UNL     1       1.215   9.877  19.251  0.00  0.00    +0.000 A 
ATOM     10  N   UNL     1       1.190   8.883  20.183  0.00  0.00    +0.000 N 
ATOM     11  C   UNL     1       0.492   8.833  21.448  0.00  0.00    +0.000 C 
ENDROOT
BRANCH   1  12
ATOM     12  O   UNL     1       3.282   4.412  19.834  0.00  0.00    +0.000 OA
BRANCH  12  14
ATOM     13  C   UNL     1       2.175   3.094  21.546  0.00  0.00    +0.000 C 
ATOM     14  C   UNL     1       2.168   3.555  20.102  0.00  0.00    +0.000 C 
ENDBRANCH  12  14
ENDBRANCH   1  12
BRANCH   9  15
ATOM     15  S   UNL     1       0.369  11.378  19.451  0.00  0.00    +0.000 S 
BRANCH  15  16
ATOM     16  C   UNL     1      -1.322  10.882  19.024  0.00  0.00    +0.000 C 
BRANCH  16  17
ATOM     17  C   UNL     1      -1.357   9.999  17.781  0.00  0.00    +0.000 C 
BRANCH  17  18
ATOM     18  N   UNL     1      -2.450  10.360  16.903  0.00  0.00    +0.000 N 
ATOM     19  C   UNL     1      -2.673   9.879  15.642  0.00  0.00    +0.000 A 
ATOM     20  C   UNL     1      -3.804  10.534  15.214  0.00  0.00    +0.000 A 
ATOM     21  N   UNL     1      -4.267  11.393  16.178  0.00  0.00    +0.000 NA
ATOM     22  C   UNL     1      -3.429  11.272  17.182  0.00  0.00    +0.000 A 
ENDBRANCH  17  18
ENDBRANCH  16  17
ENDBRANCH  15  16
ENDBRANCH   9  15
TORSDOF 6
ENDMDL
MODEL 8
REMARK VINA RESULT:      -6.2      4.533      7.800
REMARK  Name = 
REMARK  8 active torsions:
REMARK  status: ('A' for Active; 'I' for Inactive)
REMARK    1  A    between atoms: C_1  and  C_2
REMARK    2  A    between atoms: C_2  and  O_3
REMARK    3  A    between atoms: O_3  and  C_4
REMARK    4  A    between atoms: C_12  and  S_13
REMARK    5  A    between atoms: S_13  and  C_14
REMARK    6  A    between atoms: C_14  and  C_15
REMARK    7  A    between atoms: C_15  and  N_16
REMARK    8  A    between atoms: N_21  and  C_22
REMARK                            x       y       z     vdW  Elec       q    Type
REMARK                         _______ _______ _______ _____ _____    ______ ____
ROOT
ATOM      1  C   UNL     1       3.122   4.668  19.583  0.00  0.00    +0.000 A 
ATOM      2  C   UNL     1       2.542   5.734  20.283  0.00  0.00    +0.000 A 
ATOM      3  C   UNL     1       2.307   6.926  19.593  0.00  0.00    +0.000 A 
ATOM      4  C   UNL     1       2.638   7.111  18.261  0.00  0.00    +0.000 A 
ATOM      5  C   UNL     1       3.238   6.059  17.556  0.00  0.00    +0.000 A 
ATOM      6  C   UNL     1       3.470   4.841  18.229  0.00  0.00    +0.000 A 
ATOM      7 CL   UNL     1       4.185   3.553  17.322  0.00  0.00    +0.000 Cl
ATOM      8  N   UNL     1       2.278   8.374  17.849  0.00  0.00    +0.000 NA
ATOM      9  C   UNL     1       1.748   8.946  18.909  0.00  0.00    +0.000 A 
ATOM     10  N   UNL     1       1.731   8.111  19.987  0.00  0.00    +0.000 N 
ATOM     11  C   UNL     1       1.167   8.325  21.300  0.00  0.00    +0.000 C 
ENDROOT
BRANCH   1  12
ATOM     12  O   UNL     1       3.367   3.445  20.172  0.00  0.00    +0.000 OA
BRANCH  12  14
ATOM     13  C   UNL     1       1.546   2.703  21.596  0.00  0.00    +0.000 C 
ATOM     14  C   UNL     1       2.243   2.564  20.257  0.00  0.00    +0.000 C 
ENDBRANCH  12  14
ENDBRANCH   1  12
BRANCH   9  15
ATOM     15  S   UNL     1       1.065  10.540  18.942  0.00  0.00    +0.000 S 
BRANCH  15  16
ATOM     16  C   UNL     1      -0.708  10.157  18.930  0.00  0.00    +0.000 C 
BRANCH  16  17
ATOM     17  C   UNL     1      -1.558  11.415  18.783  0.00  0.00    +0.000 C 
BRANCH  17  18
ATOM     18  N   UNL     1      -2.581  11.248  17.773  0.00  0.00    +0.000 N 
ATOM     19  C   UNL     1      -3.892  11.627  17.874  0.00  0.00    +0.000 A 
ATOM     20  C   UNL     1      -4.460  11.238  16.683  0.00  0.00    +0.000 A 
ATOM     21  N   UNL     1      -3.532  10.638  15.871  0.00  0.00    +0.000 NA
ATOM     22  C   UNL     1      -2.411  10.652  16.555  0.00  0.00    +0.000 A 
ENDBRANCH  17  18
ENDBRANCH  16  17
ENDBRANCH  15  16
ENDBRANCH   9  15
TORSDOF 6
ENDMDL
MODEL 9
REMARK VINA RESULT:      -6.1      4.657      7.800
REMARK  Name = 
REMARK  8 active torsions:
REMARK  status: ('A' for Active; 'I' for Inactive)
REMARK    1  A    between atoms: C_1  and  C_2
REMARK    2  A    between atoms: C_2  and  O_3
REMARK    3  A    between atoms: O_3  and  C_4
REMARK    4  A    between atoms: C_12  and  S_13
REMARK    5  A    between atoms: S_13  and  C_14
REMARK    6  A    between atoms: C_14  and  C_15
REMARK    7  A    between atoms: C_15  and  N_16
REMARK    8  A    between atoms: N_21  and  C_22
REMARK                            x       y       z     vdW  Elec       q    Type
REMARK                         _______ _______ _______ _____ _____    ______ ____
ROOT
ATOM      1  C   UNL     1       4.128   4.807  18.750  0.00  0.00    +0.000 A 
ATOM      2  C   UNL     1       3.306   5.600  19.562  0.00  0.00    +0.000 A 
ATOM      3  C   UNL     1       2.898   6.843  19.072  0.00  0.00    +0.000 A 
ATOM      4  C   UNL     1       3.283   7.336  17.837  0.00  0.00    +0.000 A 
ATOM      5  C   UNL     1       4.121   6.560  17.025  0.00  0.00    +0.000 A 
ATOM      6  C   UNL     1       4.532   5.296  17.493  0.00  0.00    +0.000 A 
ATOM      7 CL   UNL     1       5.543   4.351  16.454  0.00  0.00    +0.000 Cl
ATOM      8  N   UNL     1       2.719   8.573  17.618  0.00  0.00    +0.000 NA
ATOM      9  C   UNL     1       2.015   8.828  18.699  0.00  0.00    +0.000 A 
ATOM     10  N   UNL     1       2.080   7.811  19.605  0.00  0.00    +0.000 N 
ATOM     11  C   UNL     1       1.393   7.666  20.868  0.00  0.00    +0.000 C 
ENDROOT
BRANCH   1  12
ATOM     12  O   UNL     1       4.558   3.554  19.138  0.00  0.00    +0.000 OA
BRANCH  12  14
ATOM     13  C   UNL     1       2.762   1.955  18.808  0.00  0.00    +0.000 C 
ATOM     14  C   UNL     1       3.585   2.745  19.805  0.00  0.00    +0.000 C 
ENDBRANCH  12  14
ENDBRANCH   1  12
BRANCH   9  15
ATOM     15  S   UNL     1       1.040  10.243  18.940  0.00  0.00    +0.000 S 
BRANCH  15  16
ATOM     16  C   UNL     1      -0.378   9.871  17.872  0.00  0.00    +0.000 C 
BRANCH  16  17
ATOM     17  C   UNL     1      -1.679  10.422  18.446  0.00  0.00    +0.000 C 
BRANCH  17  18
ATOM     18  N   UNL     1      -2.646  10.694  17.403  0.00  0.00    +0.000 N 
ATOM     19  C   UNL     1      -2.539  10.345  16.085  0.00  0.00    +0.000 A 
ATOM     20  C   UNL     1      -3.681  10.841  15.500  0.00  0.00    +0.000 A 
ATOM     21  N   UNL     1      -4.469  11.476  16.425  0.00  0.00    +0.000 NA
ATOM     22  C   UNL     1      -3.819  11.378  17.561  0.00  0.00    +0.000 A 
ENDBRANCH  17  18
ENDBRANCH  16  17
ENDBRANCH  15  16
ENDBRANCH   9  15
TORSDOF 6
ENDMDL
