MODEL 1
REMARK VINA RESULT:      -7.3      0.000      0.000
REMARK  Name = 
REMARK  9 active torsions:
REMARK  status: ('A' for Active; 'I' for Inactive)
REMARK    1  A    between atoms: C_2  and  O_3
REMARK    2  A    between atoms: C_2  and  C_4
REMARK    3  A    between atoms: N_8  and  C_9
REMARK    4  A    between atoms: C_9  and  P_10
REMARK    5  A    between atoms: P_10  and  O_12
REMARK    6  A    between atoms: P_10  and  C_13
REMARK    7  A    between atoms: C_13  and  N_14
REMARK    8  A    between atoms: C_18  and  C_19
REMARK    9  A    between atoms: C_19  and  O_21
REMARK                            x       y       z     vdW  Elec       q    Type
REMARK                         _______ _______ _______ _____ _____    ______ ____
ROOT
ATOM      1  P   UNL     1       4.000   3.095  18.731  0.00  0.00    +0.000 P 
ATOM      2  O   UNL     1       4.206   2.472  17.334  0.00  0.00    +0.000 OA
ENDROOT
BRANCH   1   3
ATOM      3  O   UNL     1       4.802   2.121  19.808  0.00  0.00    +0.000 OA
ATOM      4  H   UNL     1       5.773   2.226  19.871  0.00  0.00    +0.000 HD
ENDBRANCH   1   3
BRANCH   1   5
ATOM      5  C   UNL     1       5.506   4.102  18.477  0.00  0.00    +0.000 C 
BRANCH   5  10
ATOM      6  C   UNL     1       6.978   4.877  16.624  0.00  0.00    +0.000 C 
ATOM      7  C   UNL     1       7.225   6.322  17.029  0.00  0.00    +0.000 C 
ATOM      8  C   UNL     1       5.877   6.986  16.830  0.00  0.00    +0.000 C 
ATOM      9  C   UNL     1       4.850   5.871  16.960  0.00  0.00    +0.000 C 
ATOM     10  N   UNL     1       5.574   4.564  17.052  0.00  0.00    +0.000 NA
BRANCH   6  12
ATOM     11  O   UNL     1       7.763   5.429  14.349  0.00  0.00    +0.000 OA
ATOM     12  C   UNL     1       7.095   4.713  15.090  0.00  0.00    +0.000 C 
BRANCH  12  13
ATOM     13  O   UNL     1       6.371   3.659  14.629  0.00  0.00    +0.000 OA
ATOM     14  H   UNL     1       5.423   3.916  14.691  0.00  0.00    +0.000 HD
ENDBRANCH  12  13
ENDBRANCH   6  12
ENDBRANCH   5  10
ENDBRANCH   1   5
BRANCH   1  15
ATOM     15  C   UNL     1       2.495   2.087  18.985  0.00  0.00    +0.000 C 
BRANCH  15  16
ATOM     16  N   UNL     1       1.407   3.080  19.210  0.00  0.00    +0.000 NA
ATOM     17  C   UNL     1       1.619   4.320  18.433  0.00  0.00    +0.000 C 
ATOM     18  C   UNL     1       2.201   5.317  19.411  0.00  0.00    +0.000 C 
ATOM     19  C   UNL     1       1.404   5.050  20.666  0.00  0.00    +0.000 C 
ATOM     20  C   UNL     1       1.087   3.549  20.598  0.00  0.00    +0.000 C 
BRANCH  20  21
ATOM     21  C   UNL     1       1.679   2.763  21.768  0.00  0.00    +0.000 C 
ATOM     22  O   UNL     1       2.869   2.649  22.013  0.00  0.00    +0.000 OA
BRANCH  21  23
ATOM     23  O   UNL     1       0.729   2.257  22.595  0.00  0.00    +0.000 OA
ATOM     24  H   UNL     1       1.131   1.818  23.373  0.00  0.00    +0.000 HD
ENDBRANCH  21  23
ENDBRANCH  20  21
ENDBRANCH  15  16
ENDBRANCH   1  15
TORSDOF 9
ENDMDL
MODEL 2
REMARK VINA RESULT:      -7.1      1.893      6.316
REMARK  Name = 
REMARK  9 active torsions:
REMARK  status: ('A' for Active; 'I' for Inactive)
REMARK    1  A    between atoms: C_2  and  O_3
REMARK    2  A    between atoms: C_2  and  C_4
REMARK    3  A    between atoms: N_8  and  C_9
REMARK    4  A    between atoms: C_9  and  P_10
REMARK    5  A    between atoms: P_10  and  O_12
REMARK    6  A    between atoms: P_10  and  C_13
REMARK    7  A    between atoms: C_13  and  N_14
REMARK    8  A    between atoms: C_18  and  C_19
REMARK    9  A    between atoms: C_19  and  O_21
REMARK                            x       y       z     vdW  Elec       q    Type
REMARK                         _______ _______ _______ _____ _____    ______ ____
ROOT
ATOM      1  P   UNL     1       5.603   4.774  18.661  0.00  0.00    +0.000 P 
ATOM      2  O   UNL     1       6.405   4.721  19.978  0.00  0.00    +0.000 OA
ENDROOT
BRANCH   1   3
ATOM      3  O   UNL     1       5.230   3.207  18.268  0.00  0.00    +0.000 OA
ATOM      4  H   UNL     1       5.934   2.667  17.854  0.00  0.00    +0.000 HD
ENDBRANCH   1   3
BRANCH   1   5
ATOM      5  C   UNL     1       4.061   4.926  19.633  0.00  0.00    +0.000 C 
BRANCH   5  10
ATOM      6  C   UNL     1       1.897   3.823  19.085  0.00  0.00    +0.000 C 
ATOM      7  C   UNL     1       1.065   4.183  20.307  0.00  0.00    +0.000 C 
ATOM      8  C   UNL     1       1.700   3.377  21.422  0.00  0.00    +0.000 C 
ATOM      9  C   UNL     1       3.140   3.142  20.988  0.00  0.00    +0.000 C 
ATOM     10  N   UNL     1       3.300   3.635  19.583  0.00  0.00    +0.000 NA
BRANCH   6  12
ATOM     11  O   UNL     1       0.232   2.109  18.461  0.00  0.00    +0.000 OA
ATOM     12  C   UNL     1       1.396   2.503  18.453  0.00  0.00    +0.000 C 
BRANCH  12  13
ATOM     13  O   UNL     1       2.398   1.802  17.861  0.00  0.00    +0.000 OA
ATOM     14  H   UNL     1       2.552   2.214  16.980  0.00  0.00    +0.000 HD
ENDBRANCH  12  13
ENDBRANCH   6  12
ENDBRANCH   5  10
ENDBRANCH   1   5
BRANCH   1  15
ATOM     15  C   UNL     1       7.145   4.621  17.688  0.00  0.00    +0.000 C 
BRANCH  15  16
ATOM     16  N   UNL     1       7.064   5.713  16.677  0.00  0.00    +0.000 NA
ATOM     17  C   UNL     1       6.310   6.881  17.180  0.00  0.00    +0.000 C 
ATOM     18  C   UNL     1       4.925   6.755  16.584  0.00  0.00    +0.000 C 
ATOM     19  C   UNL     1       5.214   6.284  15.178  0.00  0.00    +0.000 C 
ATOM     20  C   UNL     1       6.491   5.444  15.318  0.00  0.00    +0.000 C 
BRANCH  20  21
ATOM     21  C   UNL     1       6.291   3.985  14.907  0.00  0.00    +0.000 C 
ATOM     22  O   UNL     1       5.686   3.145  15.554  0.00  0.00    +0.000 OA
BRANCH  21  23
ATOM     23  O   UNL     1       6.784   3.715  13.672  0.00  0.00    +0.000 OA
ATOM     24  H   UNL     1       7.348   4.446  13.345  0.00  0.00    +0.000 HD
ENDBRANCH  21  23
ENDBRANCH  20  21
ENDBRANCH  15  16
ENDBRANCH   1  15
TORSDOF 9
ENDMDL
MODEL 3
REMARK VINA RESULT:      -7.0      2.504      6.001
REMARK  Name = 
REMARK  9 active torsions:
REMARK  status: ('A' for Active; 'I' for Inactive)
REMARK    1  A    between atoms: C_2  and  O_3
REMARK    2  A    between atoms: C_2  and  C_4
REMARK    3  A    between atoms: N_8  and  C_9
REMARK    4  A    between atoms: C_9  and  P_10
REMARK    5  A    between atoms: P_10  and  O_12
REMARK    6  A    between atoms: P_10  and  C_13
REMARK    7  A    between atoms: C_13  and  N_14
REMARK    8  A    between atoms: C_18  and  C_19
REMARK    9  A    between atoms: C_19  and  O_21
REMARK                            x       y       z     vdW  Elec       q    Type
REMARK                         _______ _______ _______ _____ _____    ______ ____
ROOT
ATOM      1  P   UNL     1       3.846   6.252  17.784  0.00  0.00    +0.000 P 
ATOM      2  O   UNL     1       2.863   7.421  18.002  0.00  0.00    +0.000 OA
ENDROOT
BRANCH   1   3
ATOM      3  O   UNL     1       4.428   5.835  19.281  0.00  0.00    +0.000 OA
ATOM      4  H   UNL     1       4.786   6.555  19.839  0.00  0.00    +0.000 HD
ENDBRANCH   1   3
BRANCH   1   5
ATOM      5  C   UNL     1       2.454   5.079  17.970  0.00  0.00    +0.000 C 
BRANCH   5  10
ATOM      6  C   UNL     1       3.214   2.723  18.237  0.00  0.00    +0.000 C 
ATOM      7  C   UNL     1       1.916   1.967  18.003  0.00  0.00    +0.000 C 
ATOM      8  C   UNL     1       1.080   2.302  19.221  0.00  0.00    +0.000 C 
ATOM      9  C   UNL     1       1.606   3.639  19.722  0.00  0.00    +0.000 C 
ATOM     10  N   UNL     1       2.829   3.995  18.935  0.00  0.00    +0.000 NA
BRANCH   6  12
ATOM     11  O   UNL     1       4.711   2.331  20.162  0.00  0.00    +0.000 OA
ATOM     12  C   UNL     1       4.165   1.908  19.146  0.00  0.00    +0.000 C 
BRANCH  12  13
ATOM     13  O   UNL     1       4.337   0.636  18.702  0.00  0.00    +0.000 OA
ATOM     14  H   UNL     1       4.874   0.691  17.879  0.00  0.00    +0.000 HD
ENDBRANCH  12  13
ENDBRANCH   6  12
ENDBRANCH   5  10
ENDBRANCH   1   5
BRANCH   1  15
ATOM     15  C   UNL     1       5.238   7.425  17.600  0.00  0.00    +0.000 C 
BRANCH  15  16
ATOM     16  N   UNL     1       6.186   6.745  16.672  0.00  0.00    +0.000 NA
ATOM     17  C   UNL     1       5.497   5.789  15.779  0.00  0.00    +0.000 C 
ATOM     18  C   UNL     1       5.727   4.424  16.392  0.00  0.00    +0.000 C 
ATOM     19  C   UNL     1       7.166   4.507  16.846  0.00  0.00    +0.000 C 
ATOM     20  C   UNL     1       7.360   5.985  17.213  0.00  0.00    +0.000 C 
BRANCH  20  21
ATOM     21  C   UNL     1       7.722   6.190  18.684  0.00  0.00    +0.000 C 
ATOM     22  O   UNL     1       7.428   5.434  19.596  0.00  0.00    +0.000 OA
BRANCH  21  23
ATOM     23  O   UNL     1       8.505   7.280  18.885  0.00  0.00    +0.000 OA
ATOM     24  H   UNL     1       8.032   8.107  18.656  0.00  0.00    +0.000 HD
ENDBRANCH  21  23
ENDBRANCH  20  21
ENDBRANCH  15  16
ENDBRANCH   1  15
TORSDOF 9
ENDMDL
MODEL 4
REMARK VINA RESULT:      -6.6      2.324      6.303
REMARK  Name = 
REMARK  9 active torsions:
REMARK  status: ('A' for Active; 'I' for Inactive)
REMARK    1  A    between atoms: C_2  and  O_3
REMARK    2  A    between atoms: C_2  and  C_4
REMARK    3  A    between atoms: N_8  and  C_9
REMARK    4  A    between atoms: C_9  and  P_10
REMARK    5  A    between atoms: P_10  and  O_12
REMARK    6  A    between atoms: P_10  and  C_13
REMARK    7  A    between atoms: C_13  and  N_14
REMARK    8  A    between atoms: C_18  and  C_19
REMARK    9  A    between atoms: C_19  and  O_21
REMARK                            x       y       z     vdW  Elec       q    Type
REMARK                         _______ _______ _______ _____ _____    ______ ____
ROOT
ATOM      1  P   UNL     1       3.155   6.037  18.349  0.00  0.00    +0.000 P 
ATOM      2  O   UNL     1       2.250   7.189  17.865  0.00  0.00    +0.000 OA
ENDROOT
BRANCH   1   3
ATOM      3  O   UNL     1       3.402   6.278  19.972  0.00  0.00    +0.000 OA
ATOM      4  H   UNL     1       4.263   6.655  20.243  0.00  0.00    +0.000 HD
ENDBRANCH   1   3
BRANCH   1   5
ATOM      5  C   UNL     1       1.660   5.042  18.698  0.00  0.00    +0.000 C 
BRANCH   5  10
ATOM      6  C   UNL     1       3.181   3.112  19.098  0.00  0.00    +0.000 C 
ATOM      7  C   UNL     1       2.606   2.080  18.140  0.00  0.00    +0.000 C 
ATOM      8  C   UNL     1       1.269   1.723  18.759  0.00  0.00    +0.000 C 
ATOM      9  C   UNL     1       0.867   2.934  19.588  0.00  0.00    +0.000 C 
ATOM     10  N   UNL     1       2.010   3.901  19.606  0.00  0.00    +0.000 NA
BRANCH   6  12
ATOM     11  O   UNL     1       3.497   2.439  21.453  0.00  0.00    +0.000 OA
ATOM     12  C   UNL     1       3.887   2.419  20.288  0.00  0.00    +0.000 C 
BRANCH  12  13
ATOM     13  O   UNL     1       5.012   1.759  19.906  0.00  0.00    +0.000 OA
ATOM     14  H   UNL     1       5.312   2.170  19.064  0.00  0.00    +0.000 HD
ENDBRANCH  12  13
ENDBRANCH   6  12
ENDBRANCH   5  10
ENDBRANCH   1   5
BRANCH   1  15
ATOM     15  C   UNL     1       4.649   7.033  18.002  0.00  0.00    +0.000 C 
BRANCH  15  16
ATOM     16  N   UNL     1       5.232   6.426  16.771  0.00  0.00    +0.000 NA
ATOM     17  C   UNL     1       4.786   5.030  16.578  0.00  0.00    +0.000 C 
ATOM     18  C   UNL     1       5.928   4.169  17.074  0.00  0.00    +0.000 C 
ATOM     19  C   UNL     1       7.142   4.908  16.564  0.00  0.00    +0.000 C 
ATOM     20  C   UNL     1       6.718   6.383  16.580  0.00  0.00    +0.000 C 
BRANCH  20  21
ATOM     21  C   UNL     1       7.579   7.240  17.508  0.00  0.00    +0.000 C 
ATOM     22  O   UNL     1       7.817   8.427  17.356  0.00  0.00    +0.000 OA
BRANCH  21  23
ATOM     23  O   UNL     1       7.999   6.563  18.608  0.00  0.00    +0.000 OA
ATOM     24  H   UNL     1       7.857   5.599  18.509  0.00  0.00    +0.000 HD
ENDBRANCH  21  23
ENDBRANCH  20  21
ENDBRANCH  15  16
ENDBRANCH   1  15
TORSDOF 9
ENDMDL
MODEL 5
REMARK VINA RESULT:      -6.6      2.504      6.040
REMARK  Name = 
REMARK  9 active torsions:
REMARK  status: ('A' for Active; 'I' for Inactive)
REMARK    1  A    between atoms: C_2  and  O_3
REMARK    2  A    between atoms: C_2  and  C_4
REMARK    3  A    between atoms: N_8  and  C_9
REMARK    4  A    between atoms: C_9  and  P_10
REMARK    5  A    between atoms: P_10  and  O_12
REMARK    6  A    between atoms: P_10  and  C_13
REMARK    7  A    between atoms: C_13  and  N_14
REMARK    8  A    between atoms: C_18  and  C_19
REMARK    9  A    between atoms: C_19  and  O_21
REMARK                            x       y       z     vdW  Elec       q    Type
REMARK                         _______ _______ _______ _____ _____    ______ ____
ROOT
ATOM      1  P   UNL     1       3.769   6.403  17.805  0.00  0.00    +0.000 P 
ATOM      2  O   UNL     1       2.866   7.626  18.070  0.00  0.00    +0.000 OA
ENDROOT
BRANCH   1   3
ATOM      3  O   UNL     1       4.484   6.018  19.251  0.00  0.00    +0.000 OA
ATOM      4  H   UNL     1       3.966   5.474  19.877  0.00  0.00    +0.000 HD
ENDBRANCH   1   3
BRANCH   1   5
ATOM      5  C   UNL     1       2.353   5.307  18.182  0.00  0.00    +0.000 C 
BRANCH   5  10
ATOM      6  C   UNL     1       2.816   2.862  18.270  0.00  0.00    +0.000 C 
ATOM      7  C   UNL     1       1.408   2.301  18.400  0.00  0.00    +0.000 C 
ATOM      8  C   UNL     1       0.982   2.719  19.792  0.00  0.00    +0.000 C 
ATOM      9  C   UNL     1       1.805   3.957  20.117  0.00  0.00    +0.000 C 
ATOM     10  N   UNL     1       2.814   4.157  19.028  0.00  0.00    +0.000 NA
BRANCH   6  12
ATOM     11  O   UNL     1       3.791   0.672  18.866  0.00  0.00    +0.000 OA
ATOM     12  C   UNL     1       3.848   1.899  18.904  0.00  0.00    +0.000 C 
BRANCH  12  13
ATOM     13  O   UNL     1       4.861   2.563  19.520  0.00  0.00    +0.000 OA
ATOM     14  H   UNL     1       5.206   1.967  20.224  0.00  0.00    +0.000 HD
ENDBRANCH  12  13
ENDBRANCH   6  12
ENDBRANCH   5  10
ENDBRANCH   1   5
BRANCH   1  15
ATOM     15  C   UNL     1       5.184   7.499  17.428  0.00  0.00    +0.000 C 
BRANCH  15  16
ATOM     16  N   UNL     1       6.029   6.715  16.483  0.00  0.00    +0.000 NA
ATOM     17  C   UNL     1       5.249   5.685  15.766  0.00  0.00    +0.000 C 
ATOM     18  C   UNL     1       5.535   4.386  16.488  0.00  0.00    +0.000 C 
ATOM     19  C   UNL     1       7.012   4.493  16.784  0.00  0.00    +0.000 C 
ATOM     20  C   UNL     1       7.249   5.997  16.978  0.00  0.00    +0.000 C 
BRANCH  20  21
ATOM     21  C   UNL     1       7.760   6.344  18.376  0.00  0.00    +0.000 C 
ATOM     22  O   UNL     1       8.365   7.361  18.676  0.00  0.00    +0.000 OA
BRANCH  21  23
ATOM     23  O   UNL     1       7.392   5.431  19.311  0.00  0.00    +0.000 OA
ATOM     24  H   UNL     1       8.169   4.954  19.669  0.00  0.00    +0.000 HD
ENDBRANCH  21  23
ENDBRANCH  20  21
ENDBRANCH  15  16
ENDBRANCH   1  15
TORSDOF 9
ENDMDL
MODEL 6
REMARK VINA RESULT:      -6.6      2.118      3.112
REMARK  Name = 
REMARK  9 active torsions:
REMARK  status: ('A' for Active; 'I' for Inactive)
REMARK    1  A    between atoms: C_2  and  O_3
REMARK    2  A    between atoms: C_2  and  C_4
REMARK    3  A    between atoms: N_8  and  C_9
REMARK    4  A    between atoms: C_9  and  P_10
REMARK    5  A    between atoms: P_10  and  O_12
REMARK    6  A    between atoms: P_10  and  C_13
REMARK    7  A    between atoms: C_13  and  N_14
REMARK    8  A    between atoms: C_18  and  C_19
REMARK    9  A    between atoms: C_19  and  O_21
REMARK                            x       y       z     vdW  Elec       q    Type
REMARK                         _______ _______ _______ _____ _____    ______ ____
ROOT
ATOM      1  P   UNL     1       4.055   6.234  18.230  0.00  0.00    +0.000 P 
ATOM      2  O   UNL     1       2.925   7.283  18.182  0.00  0.00    +0.000 OA
ENDROOT
BRANCH   1   3
ATOM      3  O   UNL     1       3.782   5.185  16.974  0.00  0.00    +0.000 OA
ATOM      4  H   UNL     1       3.931   4.233  17.145  0.00  0.00    +0.000 HD
ENDBRANCH   1   3
BRANCH   1   5
ATOM      5  C   UNL     1       5.065   7.309  17.147  0.00  0.00    +0.000 C 
BRANCH   5  10
ATOM      6  C   UNL     1       6.684   5.556  17.858  0.00  0.00    +0.000 C 
ATOM      7  C   UNL     1       7.327   6.220  19.065  0.00  0.00    +0.000 C 
ATOM      8  C   UNL     1       8.137   7.351  18.464  0.00  0.00    +0.000 C 
ATOM      9  C   UNL     1       7.458   7.681  17.143  0.00  0.00    +0.000 C 
ATOM     10  N   UNL     1       6.393   6.661  16.886  0.00  0.00    +0.000 NA
BRANCH   6  12
ATOM     11  O   UNL     1       8.546   3.933  17.798  0.00  0.00    +0.000 OA
ATOM     12  C   UNL     1       7.660   4.546  17.207  0.00  0.00    +0.000 C 
BRANCH  12  13
ATOM     13  O   UNL     1       7.429   4.391  15.877  0.00  0.00    +0.000 OA
ATOM     14  H   UNL     1       6.716   5.025  15.635  0.00  0.00    +0.000 HD
ENDBRANCH  12  13
ENDBRANCH   6  12
ENDBRANCH   5  10
ENDBRANCH   1   5
BRANCH   1  15
ATOM     15  C   UNL     1       3.044   5.159  19.311  0.00  0.00    +0.000 C 
BRANCH  15  16
ATOM     16  N   UNL     1       2.696   3.986  18.460  0.00  0.00    +0.000 NA
ATOM     17  C   UNL     1       1.242   3.893  18.212  0.00  0.00    +0.000 C 
ATOM     18  C   UNL     1       0.733   2.848  19.182  0.00  0.00    +0.000 C 
ATOM     19  C   UNL     1       1.822   1.802  19.140  0.00  0.00    +0.000 C 
ATOM     20  C   UNL     1       3.103   2.604  18.875  0.00  0.00    +0.000 C 
BRANCH  20  21
ATOM     21  C   UNL     1       4.129   2.473  20.001  0.00  0.00    +0.000 C 
ATOM     22  O   UNL     1       3.875   2.179  21.158  0.00  0.00    +0.000 OA
BRANCH  21  23
ATOM     23  O   UNL     1       5.407   2.631  19.569  0.00  0.00    +0.000 OA
ATOM     24  H   UNL     1       5.872   3.327  20.078  0.00  0.00    +0.000 HD
ENDBRANCH  21  23
ENDBRANCH  20  21
ENDBRANCH  15  16
ENDBRANCH   1  15
TORSDOF 9
ENDMDL
MODEL 7
REMARK VINA RESULT:      -6.5      2.094      3.152
REMARK  Name = 
REMARK  9 active torsions:
REMARK  status: ('A' for Active; 'I' for Inactive)
REMARK    1  A    between atoms: C_2  and  O_3
REMARK    2  A    between atoms: C_2  and  C_4
REMARK    3  A    between atoms: N_8  and  C_9
REMARK    4  A    between atoms: C_9  and  P_10
REMARK    5  A    between atoms: P_10  and  O_12
REMARK    6  A    between atoms: P_10  and  C_13
REMARK    7  A    between atoms: C_13  and  N_14
REMARK    8  A    between atoms: C_18  and  C_19
REMARK    9  A    between atoms: C_19  and  O_21
REMARK                            x       y       z     vdW  Elec       q    Type
REMARK                         _______ _______ _______ _____ _____    ______ ____
ROOT
ATOM      1  P   UNL     1       4.120   5.826  18.738  0.00  0.00    +0.000 P 
ATOM      2  O   UNL     1       3.159   6.870  19.344  0.00  0.00    +0.000 OA
ENDROOT
BRANCH   1   3
ATOM      3  O   UNL     1       3.363   5.204  17.400  0.00  0.00    +0.000 OA
ATOM      4  H   UNL     1       3.800   5.337  16.534  0.00  0.00    +0.000 HD
ENDBRANCH   1   3
BRANCH   1   5
ATOM      5  C   UNL     1       4.881   7.147  17.727  0.00  0.00    +0.000 C 
BRANCH   5  10
ATOM      6  C   UNL     1       6.727   5.484  17.889  0.00  0.00    +0.000 C 
ATOM      7  C   UNL     1       7.555   6.072  19.020  0.00  0.00    +0.000 C 
ATOM      8  C   UNL     1       8.146   7.329  18.416  0.00  0.00    +0.000 C 
ATOM      9  C   UNL     1       7.192   7.735  17.303  0.00  0.00    +0.000 C 
ATOM     10  N   UNL     1       6.168   6.655  17.135  0.00  0.00    +0.000 NA
BRANCH   6  12
ATOM     11  O   UNL     1       7.552   4.652  15.714  0.00  0.00    +0.000 OA
ATOM     12  C   UNL     1       7.616   4.642  16.941  0.00  0.00    +0.000 C 
BRANCH  12  13
ATOM     13  O   UNL     1       8.508   3.874  17.619  0.00  0.00    +0.000 OA
ATOM     14  H   UNL     1       8.280   3.948  18.574  0.00  0.00    +0.000 HD
ENDBRANCH  12  13
ENDBRANCH   6  12
ENDBRANCH   5  10
ENDBRANCH   1   5
BRANCH   1  15
ATOM     15  C   UNL     1       3.358   4.504  19.748  0.00  0.00    +0.000 C 
BRANCH  15  16
ATOM     16  N   UNL     1       2.043   4.242  19.099  0.00  0.00    +0.000 NA
ATOM     17  C   UNL     1       0.924   4.315  20.063  0.00  0.00    +0.000 C 
ATOM     18  C   UNL     1       0.598   2.880  20.414  0.00  0.00    +0.000 C 
ATOM     19  C   UNL     1       0.723   2.179  19.081  0.00  0.00    +0.000 C 
ATOM     20  C   UNL     1       1.813   2.968  18.342  0.00  0.00    +0.000 C 
BRANCH  20  21
ATOM     21  C   UNL     1       3.035   2.115  18.000  0.00  0.00    +0.000 C 
ATOM     22  O   UNL     1       3.939   2.445  17.250  0.00  0.00    +0.000 OA
BRANCH  21  23
ATOM     23  O   UNL     1       3.075   0.951  18.698  0.00  0.00    +0.000 OA
ATOM     24  H   UNL     1       2.793   1.082  19.627  0.00  0.00    +0.000 HD
ENDBRANCH  21  23
ENDBRANCH  20  21
ENDBRANCH  15  16
ENDBRANCH   1  15
TORSDOF 9
ENDMDL
MODEL 8
REMARK VINA RESULT:      -6.4      2.419      3.151
REMARK  Name = 
REMARK  9 active torsions:
REMARK  status: ('A' for Active; 'I' for Inactive)
REMARK    1  A    between atoms: C_2  and  O_3
REMARK    2  A    between atoms: C_2  and  C_4
REMARK    3  A    between atoms: N_8  and  C_9
REMARK    4  A    between atoms: C_9  and  P_10
REMARK    5  A    between atoms: P_10  and  O_12
REMARK    6  A    between atoms: P_10  and  C_13
REMARK    7  A    between atoms: C_13  and  N_14
REMARK    8  A    between atoms: C_18  and  C_19
REMARK    9  A    between atoms: C_19  and  O_21
REMARK                            x       y       z     vdW  Elec       q    Type
REMARK                         _______ _______ _______ _____ _____    ______ ____
ROOT
ATOM      1  P   UNL     1       3.744   6.403  17.767  0.00  0.00    +0.000 P 
ATOM      2  O   UNL     1       4.014   6.387  19.285  0.00  0.00    +0.000 OA
ENDROOT
BRANCH   1   3
ATOM      3  O   UNL     1       2.527   7.502  17.512  0.00  0.00    +0.000 OA
ATOM      4  H   UNL     1       1.607   7.180  17.595  0.00  0.00    +0.000 HD
ENDBRANCH   1   3
BRANCH   1   5
ATOM      5  C   UNL     1       5.005   7.715  17.580  0.00  0.00    +0.000 C 
BRANCH   5  10
ATOM      6  C   UNL     1       6.573   5.781  17.533  0.00  0.00    +0.000 C 
ATOM      7  C   UNL     1       7.381   6.027  18.797  0.00  0.00    +0.000 C 
ATOM      8  C   UNL     1       8.195   7.263  18.468  0.00  0.00    +0.000 C 
ATOM      9  C   UNL     1       7.403   8.000  17.398  0.00  0.00    +0.000 C 
ATOM     10  N   UNL     1       6.252   7.139  16.979  0.00  0.00    +0.000 NA
BRANCH   6  12
ATOM     11  O   UNL     1       7.446   5.222  15.292  0.00  0.00    +0.000 OA
ATOM     12  C   UNL     1       7.406   4.989  16.497  0.00  0.00    +0.000 C 
BRANCH  12  13
ATOM     13  O   UNL     1       8.118   3.984  17.070  0.00  0.00    +0.000 OA
ATOM     14  H   UNL     1       8.167   4.182  18.033  0.00  0.00    +0.000 HD
ENDBRANCH  12  13
ENDBRANCH   6  12
ENDBRANCH   5  10
ENDBRANCH   1   5
BRANCH   1  15
ATOM     15  C   UNL     1       2.482   5.092  17.953  0.00  0.00    +0.000 C 
BRANCH  15  16
ATOM     16  N   UNL     1       3.188   3.984  18.658  0.00  0.00    +0.000 NA
ATOM     17  C   UNL     1       3.883   3.082  17.716  0.00  0.00    +0.000 C 
ATOM     18  C   UNL     1       2.974   1.882  17.561  0.00  0.00    +0.000 C 
ATOM     19  C   UNL     1       2.476   1.662  18.970  0.00  0.00    +0.000 C 
ATOM     20  C   UNL     1       2.434   3.071  19.577  0.00  0.00    +0.000 C 
BRANCH  20  21
ATOM     21  C   UNL     1       1.027   3.493  20.002  0.00  0.00    +0.000 C 
ATOM     22  O   UNL     1       0.758   4.463  20.693  0.00  0.00    +0.000 OA
BRANCH  21  23
ATOM     23  O   UNL     1       0.057   2.720  19.449  0.00  0.00    +0.000 OA
ATOM     24  H   UNL     1      -0.447   2.236  20.136  0.00  0.00    +0.000 HD
ENDBRANCH  21  23
ENDBRANCH  20  21
ENDBRANCH  15  16
ENDBRANCH   1  15
TORSDOF 9
ENDMDL
MODEL 9
REMARK VINA RESULT:      -6.4      2.246      6.524
REMARK  Name = 
REMARK  9 active torsions:
REMARK  status: ('A' for Active; 'I' for Inactive)
REMARK    1  A    between atoms: C_2  and  O_3
REMARK    2  A    between atoms: C_2  and  C_4
REMARK    3  A    between atoms: N_8  and  C_9
REMARK    4  A    between atoms: C_9  and  P_10
REMARK    5  A    between atoms: P_10  and  O_12
REMARK    6  A    between atoms: P_10  and  C_13
REMARK    7  A    between atoms: C_13  and  N_14
REMARK    8  A    between atoms: C_18  and  C_19
REMARK    9  A    between atoms: C_19  and  O_21
REMARK                            x       y       z     vdW  Elec       q    Type
REMARK                         _______ _______ _______ _____ _____    ______ ____
ROOT
ATOM      1  P   UNL     1       3.952   5.510  17.496  0.00  0.00    +0.000 P 
ATOM      2  O   UNL     1       2.753   6.377  17.932  0.00  0.00    +0.000 OA
ENDROOT
BRANCH   1   3
ATOM      3  O   UNL     1       4.738   5.054  18.884  0.00  0.00    +0.000 OA
ATOM      4  H   UNL     1       5.699   5.230  18.934  0.00  0.00    +0.000 HD
ENDBRANCH   1   3
BRANCH   1   5
ATOM      5  C   UNL     1       2.882   4.029  17.583  0.00  0.00    +0.000 C 
BRANCH   5  10
ATOM      6  C   UNL     1       2.645   3.112  19.886  0.00  0.00    +0.000 C 
ATOM      7  C   UNL     1       2.016   1.757  19.600  0.00  0.00    +0.000 C 
ATOM      8  C   UNL     1       0.623   2.103  19.118  0.00  0.00    +0.000 C 
ATOM      9  C   UNL     1       0.724   3.512  18.552  0.00  0.00    +0.000 C 
ATOM     10  N   UNL     1       2.088   4.050  18.855  0.00  0.00    +0.000 NA
BRANCH   6  12
ATOM     11  O   UNL     1       1.904   2.892  22.232  0.00  0.00    +0.000 OA
ATOM     12  C   UNL     1       2.251   3.611  21.297  0.00  0.00    +0.000 C 
BRANCH  12  13
ATOM     13  O   UNL     1       2.337   4.962  21.409  0.00  0.00    +0.000 OA
ATOM     14  H   UNL     1       1.647   5.239  22.054  0.00  0.00    +0.000 HD
ENDBRANCH  12  13
ENDBRANCH   6  12
ENDBRANCH   5  10
ENDBRANCH   1   5
BRANCH   1  15
ATOM     15  C   UNL     1       5.022   6.991  17.410  0.00  0.00    +0.000 C 
BRANCH  15  16
ATOM     16  N   UNL     1       6.004   6.687  16.331  0.00  0.00    +0.000 NA
ATOM     17  C   UNL     1       5.434   5.798  15.297  0.00  0.00    +0.000 C 
ATOM     18  C   UNL     1       5.952   4.414  15.623  0.00  0.00    +0.000 C 
ATOM     19  C   UNL     1       7.382   4.685  16.028  0.00  0.00    +0.000 C 
ATOM     20  C   UNL     1       7.333   6.080  16.667  0.00  0.00    +0.000 C 
BRANCH  20  21
ATOM     21  C   UNL     1       7.762   6.077  18.134  0.00  0.00    +0.000 C 
ATOM     22  O   UNL     1       8.199   7.039  18.745  0.00  0.00    +0.000 OA
BRANCH  21  23
ATOM     23  O   UNL     1       7.523   4.890  18.749  0.00  0.00    +0.000 OA
ATOM     24  H   UNL     1       7.332   4.183  18.098  0.00  0.00    +0.000 HD
ENDBRANCH  21  23
ENDBRANCH  20  21
ENDBRANCH  15  16
ENDBRANCH   1  15
TORSDOF 9
ENDMDL
