MODEL 1
REMARK VINA RESULT:      -7.7      0.000      0.000
REMARK  Name = 
REMARK  11 active torsions:
REMARK  status: ('A' for Active; 'I' for Inactive)
REMARK    1  A    between atoms: C_1  and  C_2
REMARK    2  A    between atoms: C_2  and  C_3
REMARK    3  A    between atoms: C_3  and  C_4
REMARK    4  A    between atoms: C_4  and  C_5
REMARK    5  A    between atoms: C_5  and  C_6
REMARK    6  A    between atoms: C_6  and  C_7
REMARK    7  A    between atoms: C_10  and  N_11
REMARK    8  A    between atoms: N_11  and  C_12
REMARK    9  A    between atoms: N_19  and  C_20
REMARK   10  A    between atoms: C_20  and  C_21
REMARK   11  A    between atoms: C_21  and  C_22
REMARK                            x       y       z     vdW  Elec       q    Type
REMARK                         _______ _______ _______ _____ _____    ______ ____
ROOT
ATOM      1  N   UNL     1       3.230   6.129  19.906  0.00  0.00    +0.000 N 
ATOM      2  H   UNL     1       3.783   6.373  20.720  0.00  0.00    +0.000 HD
ENDROOT
BRANCH   1   3
ATOM      3  C   UNL     1       2.797   4.805  19.910  0.00  0.00    +0.000 A 
ATOM      4  C   UNL     1       2.307   4.325  21.068  0.00  0.00    +0.000 A 
ATOM      5  C   UNL     1       1.777   2.969  21.170  0.00  0.00    +0.000 A 
ATOM      6  O   UNL     1       1.340   2.529  22.227  0.00  0.00    +0.000 OA
ATOM      7  N   UNL     1       1.795   2.248  20.022  0.00  0.00    +0.000 N 
ATOM      8  C   UNL     1       2.263   2.687  18.818  0.00  0.00    +0.000 A 
ATOM      9  O   UNL     1       2.205   1.930  17.848  0.00  0.00    +0.000 OA
ATOM     10  N   UNL     1       2.781   3.981  18.779  0.00  0.00    +0.000 N 
ATOM     11  H   UNL     1       1.423   1.315  20.052  0.00  0.00    +0.000 HD
BRANCH  10  12
ATOM     12  C   UNL     1       3.309   4.423  17.481  0.00  0.00    +0.000 C 
BRANCH  12  13
ATOM     13  C   UNL     1       4.812   4.184  17.262  0.00  0.00    +0.000 C 
ATOM     14  C   UNL     1       5.310   4.464  15.852  0.00  0.00    +0.000 C 
ENDBRANCH  12  13
ENDBRANCH  10  12
ENDBRANCH   1   3
BRANCH   1  18
ATOM     15  C   UNL     1       1.004   9.606  18.972  0.00  0.00    +0.000 A 
ATOM     16  C   UNL     1       0.929   9.055  20.256  0.00  0.00    +0.000 A 
ATOM     17  C   UNL     1       1.620   7.883  20.567  0.00  0.00    +0.000 A 
ATOM     18  C   UNL     1       2.390   7.233  19.598  0.00  0.00    +0.000 A 
ATOM     19  C   UNL     1       2.395   7.738  18.293  0.00  0.00    +0.000 A 
ATOM     20  C   UNL     1       1.703   8.912  17.978  0.00  0.00    +0.000 A 
BRANCH  15  21
ATOM     21  C   UNL     1       0.391  10.955  18.683  0.00  0.00    +0.000 C 
BRANCH  21  22
ATOM     22  C   UNL     1      -1.146  10.919  18.638  0.00  0.00    +0.000 C 
BRANCH  22  23
ATOM     23  C   UNL     1      -1.707  10.202  17.402  0.00  0.00    +0.000 C 
BRANCH  23  24
ATOM     24  C   UNL     1      -3.236  10.155  17.450  0.00  0.00    +0.000 C 
BRANCH  24  26
ATOM     25  C   UNL     1      -2.899  10.341  14.963  0.00  0.00    +0.000 C 
ATOM     26  C   UNL     1      -3.858  10.577  16.120  0.00  0.00    +0.000 C 
ENDBRANCH  24  26
ENDBRANCH  23  24
ENDBRANCH  22  23
ENDBRANCH  21  22
ENDBRANCH  15  21
ENDBRANCH   1  18
TORSDOF 9
ENDMDL
MODEL 2
REMARK VINA RESULT:      -7.6      1.526      2.817
REMARK  Name = 
REMARK  11 active torsions:
REMARK  status: ('A' for Active; 'I' for Inactive)
REMARK    1  A    between atoms: C_1  and  C_2
REMARK    2  A    between atoms: C_2  and  C_3
REMARK    3  A    between atoms: C_3  and  C_4
REMARK    4  A    between atoms: C_4  and  C_5
REMARK    5  A    between atoms: C_5  and  C_6
REMARK    6  A    between atoms: C_6  and  C_7
REMARK    7  A    between atoms: C_10  and  N_11
REMARK    8  A    between atoms: N_11  and  C_12
REMARK    9  A    between atoms: N_19  and  C_20
REMARK   10  A    between atoms: C_20  and  C_21
REMARK   11  A    between atoms: C_21  and  C_22
REMARK                            x       y       z     vdW  Elec       q    Type
REMARK                         _______ _______ _______ _____ _____    ______ ____
ROOT
ATOM      1  N   UNL     1       2.935   6.099  20.252  0.00  0.00    +0.000 N 
ATOM      2  H   UNL     1       2.362   5.666  20.967  0.00  0.00    +0.000 HD
ENDROOT
BRANCH   1   3
ATOM      3  C   UNL     1       3.559   5.179  19.412  0.00  0.00    +0.000 A 
ATOM      4  C   UNL     1       4.890   5.296  19.256  0.00  0.00    +0.000 A 
ATOM      5  C   UNL     1       5.651   4.353  18.442  0.00  0.00    +0.000 A 
ATOM      6  O   UNL     1       6.862   4.468  18.292  0.00  0.00    +0.000 OA
ATOM      7  N   UNL     1       4.929   3.351  17.883  0.00  0.00    +0.000 N 
ATOM      8  C   UNL     1       3.583   3.172  18.020  0.00  0.00    +0.000 A 
ATOM      9  O   UNL     1       3.055   2.206  17.468  0.00  0.00    +0.000 OA
ATOM     10  N   UNL     1       2.898   4.114  18.788  0.00  0.00    +0.000 N 
ATOM     11  H   UNL     1       5.423   2.674  17.328  0.00  0.00    +0.000 HD
BRANCH  10  12
ATOM     12  C   UNL     1       1.447   3.922  18.897  0.00  0.00    +0.000 C 
BRANCH  12  13
ATOM     13  C   UNL     1       0.996   2.817  19.866  0.00  0.00    +0.000 C 
ATOM     14  C   UNL     1       1.384   3.037  21.321  0.00  0.00    +0.000 C 
ENDBRANCH  12  13
ENDBRANCH  10  12
ENDBRANCH   1   3
BRANCH   1  18
ATOM     15  C   UNL     1       1.213   9.705  18.855  0.00  0.00    +0.000 A 
ATOM     16  C   UNL     1       0.977   9.283  20.168  0.00  0.00    +0.000 A 
ATOM     17  C   UNL     1       1.499   8.074  20.630  0.00  0.00    +0.000 A 
ATOM     18  C   UNL     1       2.257   7.258  19.786  0.00  0.00    +0.000 A 
ATOM     19  C   UNL     1       2.420   7.641  18.450  0.00  0.00    +0.000 A 
ATOM     20  C   UNL     1       1.898   8.852  17.984  0.00  0.00    +0.000 A 
BRANCH  15  21
ATOM     21  C   UNL     1       0.788  11.083  18.409  0.00  0.00    +0.000 C 
BRANCH  21  22
ATOM     22  C   UNL     1      -0.518  11.553  19.071  0.00  0.00    +0.000 C 
BRANCH  22  23
ATOM     23  C   UNL     1      -1.666  11.772  18.076  0.00  0.00    +0.000 C 
BRANCH  23  24
ATOM     24  C   UNL     1      -2.648  10.598  18.115  0.00  0.00    +0.000 C 
BRANCH  24  26
ATOM     25  C   UNL     1      -2.681  10.620  15.599  0.00  0.00    +0.000 C 
ATOM     26  C   UNL     1      -2.571   9.753  16.844  0.00  0.00    +0.000 C 
ENDBRANCH  24  26
ENDBRANCH  23  24
ENDBRANCH  22  23
ENDBRANCH  21  22
ENDBRANCH  15  21
ENDBRANCH   1  18
TORSDOF 9
ENDMDL
MODEL 3
REMARK VINA RESULT:      -7.5      1.551      2.979
REMARK  Name = 
REMARK  11 active torsions:
REMARK  status: ('A' for Active; 'I' for Inactive)
REMARK    1  A    between atoms: C_1  and  C_2
REMARK    2  A    between atoms: C_2  and  C_3
REMARK    3  A    between atoms: C_3  and  C_4
REMARK    4  A    between atoms: C_4  and  C_5
REMARK    5  A    between atoms: C_5  and  C_6
REMARK    6  A    between atoms: C_6  and  C_7
REMARK    7  A    between atoms: C_10  and  N_11
REMARK    8  A    between atoms: N_11  and  C_12
REMARK    9  A    between atoms: N_19  and  C_20
REMARK   10  A    between atoms: C_20  and  C_21
REMARK   11  A    between atoms: C_21  and  C_22
REMARK                            x       y       z     vdW  Elec       q    Type
REMARK                         _______ _______ _______ _____ _____    ______ ____
ROOT
ATOM      1  N   UNL     1       2.827   5.919  20.295  0.00  0.00    +0.000 N 
ATOM      2  H   UNL     1       2.113   5.448  20.839  0.00  0.00    +0.000 HD
ENDROOT
BRANCH   1   3
ATOM      3  C   UNL     1       3.557   5.056  19.481  0.00  0.00    +0.000 A 
ATOM      4  C   UNL     1       4.879   5.285  19.376  0.00  0.00    +0.000 A 
ATOM      5  C   UNL     1       5.747   4.411  18.593  0.00  0.00    +0.000 A 
ATOM      6  O   UNL     1       6.949   4.627  18.490  0.00  0.00    +0.000 OA
ATOM      7  N   UNL     1       5.134   3.354  18.007  0.00  0.00    +0.000 N 
ATOM      8  C   UNL     1       3.804   3.062  18.093  0.00  0.00    +0.000 A 
ATOM      9  O   UNL     1       3.380   2.056  17.521  0.00  0.00    +0.000 OA
ATOM     10  N   UNL     1       3.013   3.941  18.832  0.00  0.00    +0.000 N 
ATOM     11  H   UNL     1       5.704   2.721  17.473  0.00  0.00    +0.000 HD
BRANCH  10  12
ATOM     12  C   UNL     1       1.580   3.628  18.885  0.00  0.00    +0.000 C 
BRANCH  12  13
ATOM     13  C   UNL     1       1.182   2.509  19.861  0.00  0.00    +0.000 C 
ATOM     14  C   UNL     1       1.238   2.887  21.334  0.00  0.00    +0.000 C 
ENDBRANCH  12  13
ENDBRANCH  10  12
ENDBRANCH   1   3
BRANCH   1  18
ATOM     15  C   UNL     1       0.941   9.477  18.988  0.00  0.00    +0.000 A 
ATOM     16  C   UNL     1       1.725   8.736  18.097  0.00  0.00    +0.000 A 
ATOM     17  C   UNL     1       2.391   7.586  18.523  0.00  0.00    +0.000 A 
ATOM     18  C   UNL     1       2.296   7.161  19.851  0.00  0.00    +0.000 A 
ATOM     19  C   UNL     1       1.581   7.949  20.760  0.00  0.00    +0.000 A 
ATOM     20  C   UNL     1       0.913   9.102  20.336  0.00  0.00    +0.000 A 
BRANCH  15  21
ATOM     21  C   UNL     1       0.094  10.622  18.490  0.00  0.00    +0.000 C 
BRANCH  21  22
ATOM     22  C   UNL     1      -1.083  10.162  17.613  0.00  0.00    +0.000 C 
BRANCH  22  23
ATOM     23  C   UNL     1      -2.446  10.681  18.093  0.00  0.00    +0.000 C 
BRANCH  23  24
ATOM     24  C   UNL     1      -3.391  10.898  16.910  0.00  0.00    +0.000 C 
BRANCH  24  26
ATOM     25  C   UNL     1      -3.032  10.198  14.520  0.00  0.00    +0.000 C 
ATOM     26  C   UNL     1      -3.353   9.726  15.930  0.00  0.00    +0.000 C 
ENDBRANCH  24  26
ENDBRANCH  23  24
ENDBRANCH  22  23
ENDBRANCH  21  22
ENDBRANCH  15  21
ENDBRANCH   1  18
TORSDOF 9
ENDMDL
MODEL 4
REMARK VINA RESULT:      -7.4      1.614      3.070
REMARK  Name = 
REMARK  11 active torsions:
REMARK  status: ('A' for Active; 'I' for Inactive)
REMARK    1  A    between atoms: C_1  and  C_2
REMARK    2  A    between atoms: C_2  and  C_3
REMARK    3  A    between atoms: C_3  and  C_4
REMARK    4  A    between atoms: C_4  and  C_5
REMARK    5  A    between atoms: C_5  and  C_6
REMARK    6  A    between atoms: C_6  and  C_7
REMARK    7  A    between atoms: C_10  and  N_11
REMARK    8  A    between atoms: N_11  and  C_12
REMARK    9  A    between atoms: N_19  and  C_20
REMARK   10  A    between atoms: C_20  and  C_21
REMARK   11  A    between atoms: C_21  and  C_22
REMARK                            x       y       z     vdW  Elec       q    Type
REMARK                         _______ _______ _______ _____ _____    ______ ____
ROOT
ATOM      1  N   UNL     1       2.834   6.045  20.284  0.00  0.00    +0.000 N 
ATOM      2  H   UNL     1       2.141   5.627  20.895  0.00  0.00    +0.000 HD
ENDROOT
BRANCH   1   3
ATOM      3  C   UNL     1       3.504   5.114  19.493  0.00  0.00    +0.000 A 
ATOM      4  C   UNL     1       4.833   5.274  19.353  0.00  0.00    +0.000 A 
ATOM      5  C   UNL     1       5.640   4.326  18.590  0.00  0.00    +0.000 A 
ATOM      6  O   UNL     1       6.849   4.478  18.455  0.00  0.00    +0.000 OA
ATOM      7  N   UNL     1       4.964   3.278  18.061  0.00  0.00    +0.000 N 
ATOM      8  C   UNL     1       3.623   3.056  18.184  0.00  0.00    +0.000 A 
ATOM      9  O   UNL     1       3.139   2.050  17.663  0.00  0.00    +0.000 OA
ATOM     10  N   UNL     1       2.892   4.003  18.902  0.00  0.00    +0.000 N 
ATOM     11  H   UNL     1       5.491   2.597  17.543  0.00  0.00    +0.000 HD
BRANCH  10  12
ATOM     12  C   UNL     1       1.447   3.762  18.995  0.00  0.00    +0.000 C 
BRANCH  12  13
ATOM     13  C   UNL     1       0.893   3.600  20.420  0.00  0.00    +0.000 C 
ATOM     14  C   UNL     1       1.615   2.573  21.280  0.00  0.00    +0.000 C 
ENDBRANCH  12  13
ENDBRANCH  10  12
ENDBRANCH   1   3
BRANCH   1  18
ATOM     15  C   UNL     1       0.950   9.535  18.805  0.00  0.00    +0.000 A 
ATOM     16  C   UNL     1       1.792   8.792  17.971  0.00  0.00    +0.000 A 
ATOM     17  C   UNL     1       2.457   7.665  18.456  0.00  0.00    +0.000 A 
ATOM     18  C   UNL     1       2.303   7.266  19.787  0.00  0.00    +0.000 A 
ATOM     19  C   UNL     1       1.528   8.059  20.641  0.00  0.00    +0.000 A 
ATOM     20  C   UNL     1       0.860   9.189  20.158  0.00  0.00    +0.000 A 
BRANCH  15  21
ATOM     21  C   UNL     1       0.108  10.652  18.239  0.00  0.00    +0.000 C 
BRANCH  21  22
ATOM     22  C   UNL     1      -1.361  10.587  18.691  0.00  0.00    +0.000 C 
BRANCH  22  23
ATOM     23  C   UNL     1      -2.313  10.056  17.610  0.00  0.00    +0.000 C 
BRANCH  23  24
ATOM     24  C   UNL     1      -3.179  11.186  17.049  0.00  0.00    +0.000 C 
BRANCH  24  26
ATOM     25  C   UNL     1      -5.260  12.101  18.125  0.00  0.00    +0.000 C 
ATOM     26  C   UNL     1      -4.664  10.953  17.326  0.00  0.00    +0.000 C 
ENDBRANCH  24  26
ENDBRANCH  23  24
ENDBRANCH  22  23
ENDBRANCH  21  22
ENDBRANCH  15  21
ENDBRANCH   1  18
TORSDOF 9
ENDMDL
MODEL 5
REMARK VINA RESULT:      -7.4      0.446      1.178
REMARK  Name = 
REMARK  11 active torsions:
REMARK  status: ('A' for Active; 'I' for Inactive)
REMARK    1  A    between atoms: C_1  and  C_2
REMARK    2  A    between atoms: C_2  and  C_3
REMARK    3  A    between atoms: C_3  and  C_4
REMARK    4  A    between atoms: C_4  and  C_5
REMARK    5  A    between atoms: C_5  and  C_6
REMARK    6  A    between atoms: C_6  and  C_7
REMARK    7  A    between atoms: C_10  and  N_11
REMARK    8  A    between atoms: N_11  and  C_12
REMARK    9  A    between atoms: N_19  and  C_20
REMARK   10  A    between atoms: C_20  and  C_21
REMARK   11  A    between atoms: C_21  and  C_22
REMARK                            x       y       z     vdW  Elec       q    Type
REMARK                         _______ _______ _______ _____ _____    ______ ____
ROOT
ATOM      1  N   UNL     1       3.345   6.060  19.863  0.00  0.00    +0.000 N 
ATOM      2  H   UNL     1       3.916   6.242  20.680  0.00  0.00    +0.000 HD
ENDROOT
BRANCH   1   3
ATOM      3  C   UNL     1       2.748   4.802  19.877  0.00  0.00    +0.000 A 
ATOM      4  C   UNL     1       2.264   4.366  21.055  0.00  0.00    +0.000 A 
ATOM      5  C   UNL     1       1.573   3.086  21.171  0.00  0.00    +0.000 A 
ATOM      6  O   UNL     1       1.142   2.686  22.247  0.00  0.00    +0.000 OA
ATOM      7  N   UNL     1       1.437   2.390  20.017  0.00  0.00    +0.000 N 
ATOM      8  C   UNL     1       1.891   2.788  18.793  0.00  0.00    +0.000 A 
ATOM      9  O   UNL     1       1.685   2.062  17.820  0.00  0.00    +0.000 OA
ATOM     10  N   UNL     1       2.566   4.007  18.739  0.00  0.00    +0.000 N 
ATOM     11  H   UNL     1       0.951   1.510  20.057  0.00  0.00    +0.000 HD
BRANCH  10  12
ATOM     12  C   UNL     1       3.074   4.402  17.419  0.00  0.00    +0.000 C 
BRANCH  12  13
ATOM     13  C   UNL     1       4.538   4.027  17.134  0.00  0.00    +0.000 C 
ATOM     14  C   UNL     1       5.205   4.829  16.026  0.00  0.00    +0.000 C 
ENDBRANCH  12  13
ENDBRANCH  10  12
ENDBRANCH   1   3
BRANCH   1  18
ATOM     15  C   UNL     1       1.000   9.446  18.885  0.00  0.00    +0.000 A 
ATOM     16  C   UNL     1       1.857   8.892  17.928  0.00  0.00    +0.000 A 
ATOM     17  C   UNL     1       2.671   7.805  18.248  0.00  0.00    +0.000 A 
ATOM     18  C   UNL     1       2.653   7.257  19.534  0.00  0.00    +0.000 A 
ATOM     19  C   UNL     1       1.858   7.865  20.512  0.00  0.00    +0.000 A 
ATOM     20  C   UNL     1       1.042   8.955  20.194  0.00  0.00    +0.000 A 
BRANCH  15  21
ATOM     21  C   UNL     1       0.006  10.512  18.494  0.00  0.00    +0.000 C 
BRANCH  21  22
ATOM     22  C   UNL     1      -1.406  10.248  19.043  0.00  0.00    +0.000 C 
BRANCH  22  23
ATOM     23  C   UNL     1      -2.505  10.322  17.973  0.00  0.00    +0.000 C 
BRANCH  23  24
ATOM     24  C   UNL     1      -1.997   9.778  16.636  0.00  0.00    +0.000 C 
BRANCH  24  26
ATOM     25  C   UNL     1      -4.078  11.020  15.960  0.00  0.00    +0.000 C 
ATOM     26  C   UNL     1      -2.938  10.132  15.485  0.00  0.00    +0.000 C 
ENDBRANCH  24  26
ENDBRANCH  23  24
ENDBRANCH  22  23
ENDBRANCH  21  22
ENDBRANCH  15  21
ENDBRANCH   1  18
TORSDOF 9
ENDMDL
MODEL 6
REMARK VINA RESULT:      -7.3      4.124      6.191
REMARK  Name = 
REMARK  11 active torsions:
REMARK  status: ('A' for Active; 'I' for Inactive)
REMARK    1  A    between atoms: C_1  and  C_2
REMARK    2  A    between atoms: C_2  and  C_3
REMARK    3  A    between atoms: C_3  and  C_4
REMARK    4  A    between atoms: C_4  and  C_5
REMARK    5  A    between atoms: C_5  and  C_6
REMARK    6  A    between atoms: C_6  and  C_7
REMARK    7  A    between atoms: C_10  and  N_11
REMARK    8  A    between atoms: N_11  and  C_12
REMARK    9  A    between atoms: N_19  and  C_20
REMARK   10  A    between atoms: C_20  and  C_21
REMARK   11  A    between atoms: C_21  and  C_22
REMARK                            x       y       z     vdW  Elec       q    Type
REMARK                         _______ _______ _______ _____ _____    ______ ____
ROOT
ATOM      1  N   UNL     1       3.001   5.771  19.756  0.00  0.00    +0.000 N 
ATOM      2  H   UNL     1       2.414   6.584  19.604  0.00  0.00    +0.000 HD
ENDROOT
BRANCH   1   3
ATOM      3  C   UNL     1       2.276   4.603  19.977  0.00  0.00    +0.000 A 
ATOM      4  C   UNL     1       2.182   4.171  21.248  0.00  0.00    +0.000 A 
ATOM      5  C   UNL     1       1.402   2.989  21.599  0.00  0.00    +0.000 A 
ATOM      6  O   UNL     1       1.325   2.591  22.756  0.00  0.00    +0.000 OA
ATOM      7  N   UNL     1       0.770   2.379  20.566  0.00  0.00    +0.000 N 
ATOM      8  C   UNL     1       0.816   2.780  19.262  0.00  0.00    +0.000 A 
ATOM      9  O   UNL     1       0.179   2.141  18.423  0.00  0.00    +0.000 OA
ATOM     10  N   UNL     1       1.594   3.901  18.975  0.00  0.00    +0.000 N 
ATOM     11  H   UNL     1       0.211   1.570  20.773  0.00  0.00    +0.000 HD
BRANCH  10  12
ATOM     12  C   UNL     1       1.655   4.297  17.563  0.00  0.00    +0.000 C 
BRANCH  12  13
ATOM     13  C   UNL     1       2.740   3.600  16.726  0.00  0.00    +0.000 C 
ATOM     14  C   UNL     1       3.484   2.479  17.439  0.00  0.00    +0.000 C 
ENDBRANCH  12  13
ENDBRANCH  10  12
ENDBRANCH   1   3
BRANCH   1  18
ATOM     15  C   UNL     1       6.123   5.847  16.898  0.00  0.00    +0.000 A 
ATOM     16  C   UNL     1       6.261   5.081  18.061  0.00  0.00    +0.000 A 
ATOM     17  C   UNL     1       5.262   5.082  19.035  0.00  0.00    +0.000 A 
ATOM     18  C   UNL     1       4.109   5.856  18.871  0.00  0.00    +0.000 A 
ATOM     19  C   UNL     1       4.011   6.686  17.748  0.00  0.00    +0.000 A 
ATOM     20  C   UNL     1       5.012   6.688  16.771  0.00  0.00    +0.000 A 
BRANCH  15  21
ATOM     21  C   UNL     1       7.124   5.720  15.777  0.00  0.00    +0.000 C 
BRANCH  21  22
ATOM     22  C   UNL     1       7.073   4.351  15.078  0.00  0.00    +0.000 C 
BRANCH  22  23
ATOM     23  C   UNL     1       5.924   4.220  14.067  0.00  0.00    +0.000 C 
BRANCH  23  24
ATOM     24  C   UNL     1       6.454   3.806  12.693  0.00  0.00    +0.000 C 
BRANCH  24  26
ATOM     25  C   UNL     1       4.328   3.325  11.438  0.00  0.00    +0.000 C 
ATOM     26  C   UNL     1       5.584   2.726  12.051  0.00  0.00    +0.000 C 
ENDBRANCH  24  26
ENDBRANCH  23  24
ENDBRANCH  22  23
ENDBRANCH  21  22
ENDBRANCH  15  21
ENDBRANCH   1  18
TORSDOF 9
ENDMDL
MODEL 7
REMARK VINA RESULT:      -7.3      1.367      2.525
REMARK  Name = 
REMARK  11 active torsions:
REMARK  status: ('A' for Active; 'I' for Inactive)
REMARK    1  A    between atoms: C_1  and  C_2
REMARK    2  A    between atoms: C_2  and  C_3
REMARK    3  A    between atoms: C_3  and  C_4
REMARK    4  A    between atoms: C_4  and  C_5
REMARK    5  A    between atoms: C_5  and  C_6
REMARK    6  A    between atoms: C_6  and  C_7
REMARK    7  A    between atoms: C_10  and  N_11
REMARK    8  A    between atoms: N_11  and  C_12
REMARK    9  A    between atoms: N_19  and  C_20
REMARK   10  A    between atoms: C_20  and  C_21
REMARK   11  A    between atoms: C_21  and  C_22
REMARK                            x       y       z     vdW  Elec       q    Type
REMARK                         _______ _______ _______ _____ _____    ______ ____
ROOT
ATOM      1  N   UNL     1       3.211   6.137  19.850  0.00  0.00    +0.000 N 
ATOM      2  H   UNL     1       3.807   6.366  20.637  0.00  0.00    +0.000 HD
ENDROOT
BRANCH   1   3
ATOM      3  C   UNL     1       2.756   4.820  19.868  0.00  0.00    +0.000 A 
ATOM      4  C   UNL     1       2.241   4.366  21.026  0.00  0.00    +0.000 A 
ATOM      5  C   UNL     1       1.686   3.021  21.140  0.00  0.00    +0.000 A 
ATOM      6  O   UNL     1       1.227   2.606  22.198  0.00  0.00    +0.000 OA
ATOM      7  N   UNL     1       1.708   2.283  20.005  0.00  0.00    +0.000 N 
ATOM      8  C   UNL     1       2.201   2.695  18.801  0.00  0.00    +0.000 A 
ATOM      9  O   UNL     1       2.145   1.924  17.842  0.00  0.00    +0.000 OA
ATOM     10  N   UNL     1       2.742   3.980  18.749  0.00  0.00    +0.000 N 
ATOM     11  H   UNL     1       1.320   1.356  20.043  0.00  0.00    +0.000 HD
BRANCH  10  12
ATOM     12  C   UNL     1       3.296   4.392  17.453  0.00  0.00    +0.000 C 
BRANCH  12  13
ATOM     13  C   UNL     1       4.807   4.173  17.279  0.00  0.00    +0.000 C 
ATOM     14  C   UNL     1       5.292   4.137  15.837  0.00  0.00    +0.000 C 
ENDBRANCH  12  13
ENDBRANCH  10  12
ENDBRANCH   1   3
BRANCH   1  18
ATOM     15  C   UNL     1       1.002   9.660  19.058  0.00  0.00    +0.000 A 
ATOM     16  C   UNL     1       0.945   9.072  20.326  0.00  0.00    +0.000 A 
ATOM     17  C   UNL     1       1.630   7.885  20.591  0.00  0.00    +0.000 A 
ATOM     18  C   UNL     1       2.376   7.256  19.590  0.00  0.00    +0.000 A 
ATOM     19  C   UNL     1       2.362   7.800  18.300  0.00  0.00    +0.000 A 
ATOM     20  C   UNL     1       1.676   8.989  18.032  0.00  0.00    +0.000 A 
BRANCH  15  21
ATOM     21  C   UNL     1       0.397  11.022  18.820  0.00  0.00    +0.000 C 
BRANCH  21  22
ATOM     22  C   UNL     1      -1.140  11.017  18.884  0.00  0.00    +0.000 C 
BRANCH  22  23
ATOM     23  C   UNL     1      -1.703  11.667  20.155  0.00  0.00    +0.000 C 
BRANCH  23  24
ATOM     24  C   UNL     1      -0.613  12.447  20.894  0.00  0.00    +0.000 C 
BRANCH  24  26
ATOM     25  C   UNL     1      -1.036  10.990  22.901  0.00  0.00    +0.000 C 
ATOM     26  C   UNL     1      -0.818  12.412  22.408  0.00  0.00    +0.000 C 
ENDBRANCH  24  26
ENDBRANCH  23  24
ENDBRANCH  22  23
ENDBRANCH  21  22
ENDBRANCH  15  21
ENDBRANCH   1  18
TORSDOF 9
ENDMDL
MODEL 8
REMARK VINA RESULT:      -7.2      1.970      3.486
REMARK  Name = 
REMARK  11 active torsions:
REMARK  status: ('A' for Active; 'I' for Inactive)
REMARK    1  A    between atoms: C_1  and  C_2
REMARK    2  A    between atoms: C_2  and  C_3
REMARK    3  A    between atoms: C_3  and  C_4
REMARK    4  A    between atoms: C_4  and  C_5
REMARK    5  A    between atoms: C_5  and  C_6
REMARK    6  A    between atoms: C_6  and  C_7
REMARK    7  A    between atoms: C_10  and  N_11
REMARK    8  A    between atoms: N_11  and  C_12
REMARK    9  A    between atoms: N_19  and  C_20
REMARK   10  A    between atoms: C_20  and  C_21
REMARK   11  A    between atoms: C_21  and  C_22
REMARK                            x       y       z     vdW  Elec       q    Type
REMARK                         _______ _______ _______ _____ _____    ______ ____
ROOT
ATOM      1  N   UNL     1       2.661   6.062  17.863  0.00  0.00    +0.000 N 
ATOM      2  H   UNL     1       2.530   6.134  16.860  0.00  0.00    +0.000 HD
ENDROOT
BRANCH   1   3
ATOM      3  C   UNL     1       3.793   5.333  18.219  0.00  0.00    +0.000 A 
ATOM      4  C   UNL     1       4.988   5.851  17.876  0.00  0.00    +0.000 A 
ATOM      5  C   UNL     1       6.239   5.198  18.247  0.00  0.00    +0.000 A 
ATOM      6  O   UNL     1       7.325   5.666  17.926  0.00  0.00    +0.000 OA
ATOM      7  N   UNL     1       6.110   4.060  18.971  0.00  0.00    +0.000 N 
ATOM      8  C   UNL     1       4.930   3.498  19.361  0.00  0.00    +0.000 A 
ATOM      9  O   UNL     1       4.958   2.465  20.032  0.00  0.00    +0.000 OA
ATOM     10  N   UNL     1       3.762   4.147  18.961  0.00  0.00    +0.000 N 
ATOM     11  H   UNL     1       6.953   3.592  19.258  0.00  0.00    +0.000 HD
BRANCH  10  12
ATOM     12  C   UNL     1       2.502   3.509  19.363  0.00  0.00    +0.000 C 
BRANCH  12  13
ATOM     13  C   UNL     1       2.005   3.857  20.776  0.00  0.00    +0.000 C 
ATOM     14  C   UNL     1       1.358   2.706  21.534  0.00  0.00    +0.000 C 
ENDBRANCH  12  13
ENDBRANCH  10  12
ENDBRANCH   1   3
BRANCH   1  18
ATOM     15  C   UNL     1       1.301   9.670  19.609  0.00  0.00    +0.000 A 
ATOM     16  C   UNL     1       1.705   9.653  18.270  0.00  0.00    +0.000 A 
ATOM     17  C   UNL     1       2.200   8.483  17.692  0.00  0.00    +0.000 A 
ATOM     18  C   UNL     1       2.311   7.310  18.443  0.00  0.00    +0.000 A 
ATOM     19  C   UNL     1       1.986   7.351  19.804  0.00  0.00    +0.000 A 
ATOM     20  C   UNL     1       1.491   8.522  20.386  0.00  0.00    +0.000 A 
BRANCH  15  21
ATOM     21  C   UNL     1       0.618  10.886  20.185  0.00  0.00    +0.000 C 
BRANCH  21  22
ATOM     22  C   UNL     1      -0.300  11.595  19.174  0.00  0.00    +0.000 C 
BRANCH  22  23
ATOM     23  C   UNL     1      -1.659  10.905  18.990  0.00  0.00    +0.000 C 
BRANCH  23  24
ATOM     24  C   UNL     1      -1.817  10.393  17.556  0.00  0.00    +0.000 C 
BRANCH  24  26
ATOM     25  C   UNL     1      -4.302  10.788  17.567  0.00  0.00    +0.000 C 
ATOM     26  C   UNL     1      -3.195   9.774  17.324  0.00  0.00    +0.000 C 
ENDBRANCH  24  26
ENDBRANCH  23  24
ENDBRANCH  22  23
ENDBRANCH  21  22
ENDBRANCH  15  21
ENDBRANCH   1  18
TORSDOF 9
ENDMDL
MODEL 9
REMARK VINA RESULT:      -7.2      1.576      2.148
REMARK  Name = 
REMARK  11 active torsions:
REMARK  status: ('A' for Active; 'I' for Inactive)
REMARK    1  A    between atoms: C_1  and  C_2
REMARK    2  A    between atoms: C_2  and  C_3
REMARK    3  A    between atoms: C_3  and  C_4
REMARK    4  A    between atoms: C_4  and  C_5
REMARK    5  A    between atoms: C_5  and  C_6
REMARK    6  A    between atoms: C_6  and  C_7
REMARK    7  A    between atoms: C_10  and  N_11
REMARK    8  A    between atoms: N_11  and  C_12
REMARK    9  A    between atoms: N_19  and  C_20
REMARK   10  A    between atoms: C_20  and  C_21
REMARK   11  A    between atoms: C_21  and  C_22
REMARK                            x       y       z     vdW  Elec       q    Type
REMARK                         _______ _______ _______ _____ _____    ______ ____
ROOT
ATOM      1  N   UNL     1       3.072   6.344  17.933  0.00  0.00    +0.000 N 
ATOM      2  H   UNL     1       4.010   6.626  17.672  0.00  0.00    +0.000 HD
ENDROOT
BRANCH   1   3
ATOM      3  C   UNL     1       3.012   5.057  18.463  0.00  0.00    +0.000 A 
ATOM      4  C   UNL     1       1.842   4.401  18.348  0.00  0.00    +0.000 A 
ATOM      5  C   UNL     1       1.685   3.029  18.821  0.00  0.00    +0.000 A 
ATOM      6  O   UNL     1       0.616   2.437  18.725  0.00  0.00    +0.000 OA
ATOM      7  N   UNL     1       2.796   2.466  19.355  0.00  0.00    +0.000 N 
ATOM      8  C   UNL     1       4.011   3.075  19.481  0.00  0.00    +0.000 A 
ATOM      9  O   UNL     1       4.944   2.439  19.974  0.00  0.00    +0.000 OA
ATOM     10  N   UNL     1       4.102   4.393  19.037  0.00  0.00    +0.000 N 
ATOM     11  H   UNL     1       2.728   1.516  19.676  0.00  0.00    +0.000 HD
BRANCH  10  12
ATOM     12  C   UNL     1       5.409   5.041  19.212  0.00  0.00    +0.000 C 
BRANCH  12  13
ATOM     13  C   UNL     1       6.290   5.103  17.954  0.00  0.00    +0.000 C 
ATOM     14  C   UNL     1       7.767   4.817  18.186  0.00  0.00    +0.000 C 
ENDBRANCH  12  13
ENDBRANCH  10  12
ENDBRANCH   1   3
BRANCH   1  18
ATOM     15  C   UNL     1       0.846   9.497  19.671  0.00  0.00    +0.000 A 
ATOM     16  C   UNL     1       1.234   9.576  18.329  0.00  0.00    +0.000 A 
ATOM     17  C   UNL     1       2.008   8.567  17.753  0.00  0.00    +0.000 A 
ATOM     18  C   UNL     1       2.418   7.466  18.510  0.00  0.00    +0.000 A 
ATOM     19  C   UNL     1       2.100   7.431  19.873  0.00  0.00    +0.000 A 
ATOM     20  C   UNL     1       1.326   8.441  20.453  0.00  0.00    +0.000 A 
BRANCH  15  21
ATOM     21  C   UNL     1      -0.122  10.503  20.245  0.00  0.00    +0.000 C 
BRANCH  21  22
ATOM     22  C   UNL     1      -0.645  11.499  19.198  0.00  0.00    +0.000 C 
BRANCH  22  23
ATOM     23  C   UNL     1      -2.135  11.323  18.873  0.00  0.00    +0.000 C 
BRANCH  23  24
ATOM     24  C   UNL     1      -2.362  10.064  18.033  0.00  0.00    +0.000 C 
BRANCH  24  26
ATOM     25  C   UNL     1      -3.284   9.967  15.694  0.00  0.00    +0.000 C 
ATOM     26  C   UNL     1      -2.076  10.312  16.552  0.00  0.00    +0.000 C 
ENDBRANCH  24  26
ENDBRANCH  23  24
ENDBRANCH  22  23
ENDBRANCH  21  22
ENDBRANCH  15  21
ENDBRANCH   1  18
TORSDOF 9
ENDMDL
