MODEL 1
REMARK VINA RESULT:      -6.8      0.000      0.000
REMARK  Name = 
REMARK  9 active torsions:
REMARK  status: ('A' for Active; 'I' for Inactive)
REMARK    1  A    between atoms: C_1  and  C_2
REMARK    2  A    between atoms: C_2  and  N_3
REMARK    3  A    between atoms: C_4  and  C_6
REMARK    4  A    between atoms: C_6  and  C_7
REMARK    5  A    between atoms: C_8  and  C_9
REMARK    6  A    between atoms: C_12  and  O_13
REMARK    7  A    between atoms: O_13  and  C_14
REMARK    8  A    between atoms: C_15  and  O_16
REMARK    9  A    between atoms: C_17  and  C_18
REMARK                            x       y       z     vdW  Elec       q    Type
REMARK                         _______ _______ _______ _____ _____    ______ ____
ROOT
ATOM      1  C   UNL     1       1.504   9.148  19.243  0.00  0.00    +0.000 A 
ATOM      2  C   UNL     1       1.444   8.207  20.209  0.00  0.00    +0.000 A 
ATOM      3  C   UNL     1       0.784   8.441  21.546  0.00  0.00    +0.000 C 
ATOM      4  C   UNL     1       2.058   6.884  19.966  0.00  0.00    +0.000 A 
ATOM      5  C   UNL     1       1.968   5.820  20.876  0.00  0.00    +0.000 A 
ATOM      6  C   UNL     1       2.526   4.552  20.628  0.00  0.00    +0.000 A 
ATOM      7  C   UNL     1       3.200   4.343  19.421  0.00  0.00    +0.000 A 
ATOM      8  C   UNL     1       3.312   5.395  18.489  0.00  0.00    +0.000 A 
ATOM      9  C   UNL     1       2.735   6.646  18.773  0.00  0.00    +0.000 A 
ATOM     10  O   UNL     1       2.840   7.680  17.820  0.00  0.00    +0.000 OA
ATOM     11  C   UNL     1       2.262   8.921  17.987  0.00  0.00    +0.000 A 
ATOM     12  O   UNL     1       2.379   9.810  17.148  0.00  0.00    +0.000 OA
ENDROOT
BRANCH   6  13
ATOM     13  O   UNL     1       2.284   3.698  21.665  0.00  0.00    +0.000 OA
ATOM     14  C   UNL     1       1.363   2.628  21.567  0.00  0.00    +0.000 C 
ENDBRANCH   6  13
BRANCH   7  15
ATOM     15  O   UNL     1       3.756   3.143  19.073  0.00  0.00    +0.000 OA
ATOM     16  H   UNL     1       4.703   3.263  18.916  0.00  0.00    +0.000 HD
ENDBRANCH   7  15
BRANCH   8  17
ATOM     17  C   UNL     1       4.070   5.159  17.231  0.00  0.00    +0.000 C 
ATOM     18  O   UNL     1       5.282   4.999  17.180  0.00  0.00    +0.000 OA
ENDBRANCH   8  17
BRANCH   1  19
ATOM     19  C   UNL     1       0.817  10.491  19.286  0.00  0.00    +0.000 C 
BRANCH  19  21
ATOM     20  N   UNL     1      -0.856  10.036  17.571  0.00  0.00    +0.000 N 
ATOM     21  C   UNL     1      -0.643  10.354  18.895  0.00  0.00    +0.000 C 
ATOM     22  O   UNL     1      -1.549  10.517  19.707  0.00  0.00    +0.000 OA
ATOM     23  H   UNL     1      -0.082  10.158  16.919  0.00  0.00    +0.000 HD
BRANCH  20  25
ATOM     24  C   UNL     1      -2.526  10.898  15.983  0.00  0.00    +0.000 C 
ATOM     25  C   UNL     1      -2.190   9.862  17.040  0.00  0.00    +0.000 C 
ENDBRANCH  20  25
ENDBRANCH  19  21
ENDBRANCH   1  19
TORSDOF 6
ENDMDL
MODEL 2
REMARK VINA RESULT:      -6.6      4.105      6.692
REMARK  Name = 
REMARK  9 active torsions:
REMARK  status: ('A' for Active; 'I' for Inactive)
REMARK    1  A    between atoms: C_1  and  C_2
REMARK    2  A    between atoms: C_2  and  N_3
REMARK    3  A    between atoms: C_4  and  C_6
REMARK    4  A    between atoms: C_6  and  C_7
REMARK    5  A    between atoms: C_8  and  C_9
REMARK    6  A    between atoms: C_12  and  O_13
REMARK    7  A    between atoms: O_13  and  C_14
REMARK    8  A    between atoms: C_15  and  O_16
REMARK    9  A    between atoms: C_17  and  C_18
REMARK                            x       y       z     vdW  Elec       q    Type
REMARK                         _______ _______ _______ _____ _____    ______ ____
ROOT
ATOM      1  C   UNL     1       2.381   4.329  18.464  0.00  0.00    +0.000 A 
ATOM      2  C   UNL     1       3.109   5.464  18.494  0.00  0.00    +0.000 A 
ATOM      3  C   UNL     1       2.783   6.629  19.397  0.00  0.00    +0.000 C 
ATOM      4  C   UNL     1       4.279   5.595  17.599  0.00  0.00    +0.000 A 
ATOM      5  C   UNL     1       5.143   6.700  17.624  0.00  0.00    +0.000 A 
ATOM      6  C   UNL     1       6.274   6.806  16.793  0.00  0.00    +0.000 A 
ATOM      7  C   UNL     1       6.550   5.764  15.903  0.00  0.00    +0.000 A 
ATOM      8  C   UNL     1       5.696   4.642  15.850  0.00  0.00    +0.000 A 
ATOM      9  C   UNL     1       4.579   4.573  16.702  0.00  0.00    +0.000 A 
ATOM     10  O   UNL     1       3.749   3.434  16.649  0.00  0.00    +0.000 OA
ATOM     11  C   UNL     1       2.663   3.254  17.481  0.00  0.00    +0.000 A 
ATOM     12  O   UNL     1       1.947   2.259  17.406  0.00  0.00    +0.000 OA
ENDROOT
BRANCH   6  13
ATOM     13  O   UNL     1       6.948   7.969  17.028  0.00  0.00    +0.000 OA
ATOM     14  C   UNL     1       8.025   8.050  17.941  0.00  0.00    +0.000 C 
ENDBRANCH   6  13
BRANCH   7  15
ATOM     15  O   UNL     1       7.635   5.758  15.071  0.00  0.00    +0.000 OA
ATOM     16  H   UNL     1       8.277   5.107  15.387  0.00  0.00    +0.000 HD
ENDBRANCH   7  15
BRANCH   8  17
ATOM     17  C   UNL     1       5.987   3.567  14.865  0.00  0.00    +0.000 C 
ATOM     18  O   UNL     1       6.367   3.770  13.719  0.00  0.00    +0.000 OA
ENDBRANCH   8  17
BRANCH   1  19
ATOM     19  C   UNL     1       1.247   3.992  19.400  0.00  0.00    +0.000 C 
BRANCH  19  21
ATOM     20  N   UNL     1       3.039   2.687  20.414  0.00  0.00    +0.000 N 
ATOM     21  C   UNL     1       1.743   3.133  20.549  0.00  0.00    +0.000 C 
ATOM     22  O   UNL     1       1.031   2.866  21.514  0.00  0.00    +0.000 OA
ATOM     23  H   UNL     1       3.472   2.743  19.493  0.00  0.00    +0.000 HD
BRANCH  20  25
ATOM     24  C   UNL     1       5.034   1.367  20.994  0.00  0.00    +0.000 C 
ATOM     25  C   UNL     1       3.666   1.864  21.426  0.00  0.00    +0.000 C 
ENDBRANCH  20  25
ENDBRANCH  19  21
ENDBRANCH   1  19
TORSDOF 6
ENDMDL
MODEL 3
REMARK VINA RESULT:      -6.5      1.725      2.402
REMARK  Name = 
REMARK  9 active torsions:
REMARK  status: ('A' for Active; 'I' for Inactive)
REMARK    1  A    between atoms: C_1  and  C_2
REMARK    2  A    between atoms: C_2  and  N_3
REMARK    3  A    between atoms: C_4  and  C_6
REMARK    4  A    between atoms: C_6  and  C_7
REMARK    5  A    between atoms: C_8  and  C_9
REMARK    6  A    between atoms: C_12  and  O_13
REMARK    7  A    between atoms: O_13  and  C_14
REMARK    8  A    between atoms: C_15  and  O_16
REMARK    9  A    between atoms: C_17  and  C_18
REMARK                            x       y       z     vdW  Elec       q    Type
REMARK                         _______ _______ _______ _____ _____    ______ ____
ROOT
ATOM      1  C   UNL     1       1.171   9.292  19.377  0.00  0.00    +0.000 A 
ATOM      2  C   UNL     1       1.129   8.311  20.304  0.00  0.00    +0.000 A 
ATOM      3  C   UNL     1       0.360   8.432  21.597  0.00  0.00    +0.000 C 
ATOM      4  C   UNL     1       1.876   7.058  20.062  0.00  0.00    +0.000 A 
ATOM      5  C   UNL     1       1.819   5.954  20.926  0.00  0.00    +0.000 A 
ATOM      6  C   UNL     1       2.506   4.751  20.676  0.00  0.00    +0.000 A 
ATOM      7  C   UNL     1       3.278   4.651  19.515  0.00  0.00    +0.000 A 
ATOM      8  C   UNL     1       3.359   5.746  18.630  0.00  0.00    +0.000 A 
ATOM      9  C   UNL     1       2.654   6.928  18.914  0.00  0.00    +0.000 A 
ATOM     10  O   UNL     1       2.731   8.005  18.007  0.00  0.00    +0.000 OA
ATOM     11  C   UNL     1       2.033   9.183  18.174  0.00  0.00    +0.000 A 
ATOM     12  O   UNL     1       2.128  10.112  17.376  0.00  0.00    +0.000 OA
ENDROOT
BRANCH   6  13
ATOM     13  O   UNL     1       2.269   3.838  21.663  0.00  0.00    +0.000 OA
ATOM     14  C   UNL     1       1.401   2.736  21.484  0.00  0.00    +0.000 C 
ENDBRANCH   6  13
BRANCH   7  15
ATOM     15  O   UNL     1       3.963   3.519  19.168  0.00  0.00    +0.000 OA
ATOM     16  H   UNL     1       4.907   3.653  19.335  0.00  0.00    +0.000 HD
ENDBRANCH   7  15
BRANCH   8  17
ATOM     17  C   UNL     1       4.222   5.628  17.424  0.00  0.00    +0.000 C 
ATOM     18  O   UNL     1       4.238   4.653  16.685  0.00  0.00    +0.000 OA
ENDBRANCH   8  17
BRANCH   1  19
ATOM     19  C   UNL     1       0.365  10.566  19.416  0.00  0.00    +0.000 C 
BRANCH  19  21
ATOM     20  N   UNL     1       1.696  12.590  19.131  0.00  0.00    +0.000 N 
ATOM     21  C   UNL     1       1.177  11.690  20.035  0.00  0.00    +0.000 C 
ATOM     22  O   UNL     1       1.347  11.773  21.249  0.00  0.00    +0.000 OA
ATOM     23  H   UNL     1       1.719  12.322  18.148  0.00  0.00    +0.000 HD
BRANCH  20  25
ATOM     24  C   UNL     1       3.316  14.304  18.429  0.00  0.00    +0.000 C 
ATOM     25  C   UNL     1       2.486  13.724  19.559  0.00  0.00    +0.000 C 
ENDBRANCH  20  25
ENDBRANCH  19  21
ENDBRANCH   1  19
TORSDOF 6
ENDMDL
MODEL 4
REMARK VINA RESULT:      -6.5      2.762      7.092
REMARK  Name = 
REMARK  9 active torsions:
REMARK  status: ('A' for Active; 'I' for Inactive)
REMARK    1  A    between atoms: C_1  and  C_2
REMARK    2  A    between atoms: C_2  and  N_3
REMARK    3  A    between atoms: C_4  and  C_6
REMARK    4  A    between atoms: C_6  and  C_7
REMARK    5  A    between atoms: C_8  and  C_9
REMARK    6  A    between atoms: C_12  and  O_13
REMARK    7  A    between atoms: O_13  and  C_14
REMARK    8  A    between atoms: C_15  and  O_16
REMARK    9  A    between atoms: C_17  and  C_18
REMARK                            x       y       z     vdW  Elec       q    Type
REMARK                         _______ _______ _______ _____ _____    ______ ____
ROOT
ATOM      1  C   UNL     1       2.483   6.303  19.236  0.00  0.00    +0.000 A 
ATOM      2  C   UNL     1       2.452   7.522  18.657  0.00  0.00    +0.000 A 
ATOM      3  C   UNL     1       3.122   7.824  17.339  0.00  0.00    +0.000 C 
ATOM      4  C   UNL     1       1.742   8.626  19.337  0.00  0.00    +0.000 A 
ATOM      5  C   UNL     1       1.584   9.899  18.769  0.00  0.00    +0.000 A 
ATOM      6  C   UNL     1       0.880  10.939  19.405  0.00  0.00    +0.000 A 
ATOM      7  C   UNL     1       0.312  10.692  20.658  0.00  0.00    +0.000 A 
ATOM      8  C   UNL     1       0.459   9.424  21.257  0.00  0.00    +0.000 A 
ATOM      9  C   UNL     1       1.165   8.410  20.586  0.00  0.00    +0.000 A 
ATOM     10  O   UNL     1       1.284   7.143  21.192  0.00  0.00    +0.000 OA
ATOM     11  C   UNL     1       1.912   6.074  20.587  0.00  0.00    +0.000 A 
ATOM     12  O   UNL     1       2.015   4.983  21.142  0.00  0.00    +0.000 OA
ENDROOT
BRANCH   6  13
ATOM     13  O   UNL     1       0.864  12.064  18.633  0.00  0.00    +0.000 OA
ATOM     14  C   UNL     1       2.035  12.805  18.348  0.00  0.00    +0.000 C 
ENDBRANCH   6  13
BRANCH   7  15
ATOM     15  O   UNL     1      -0.412  11.625  21.348  0.00  0.00    +0.000 OA
ATOM     16  H   UNL     1      -1.083  11.178  21.883  0.00  0.00    +0.000 HD
ENDBRANCH   7  15
BRANCH   8  17
ATOM     17  C   UNL     1      -0.119   9.200  22.610  0.00  0.00    +0.000 C 
ATOM     18  O   UNL     1       0.195   9.840  23.605  0.00  0.00    +0.000 OA
ENDBRANCH   8  17
BRANCH   1  19
ATOM     19  C   UNL     1       3.049   5.052  18.612  0.00  0.00    +0.000 C 
BRANCH  19  21
ATOM     20  N   UNL     1       5.189   4.831  17.465  0.00  0.00    +0.000 N 
ATOM     21  C   UNL     1       4.566   5.068  18.670  0.00  0.00    +0.000 C 
ATOM     22  O   UNL     1       5.172   5.278  19.717  0.00  0.00    +0.000 OA
ATOM     23  H   UNL     1       4.634   4.430  16.710  0.00  0.00    +0.000 HD
BRANCH  20  25
ATOM     24  C   UNL     1       7.199   6.215  17.147  0.00  0.00    +0.000 C 
ATOM     25  C   UNL     1       6.631   4.821  17.347  0.00  0.00    +0.000 C 
ENDBRANCH  20  25
ENDBRANCH  19  21
ENDBRANCH   1  19
TORSDOF 6
ENDMDL
MODEL 5
REMARK VINA RESULT:      -6.4      1.525      3.209
REMARK  Name = 
REMARK  9 active torsions:
REMARK  status: ('A' for Active; 'I' for Inactive)
REMARK    1  A    between atoms: C_1  and  C_2
REMARK    2  A    between atoms: C_2  and  N_3
REMARK    3  A    between atoms: C_4  and  C_6
REMARK    4  A    between atoms: C_6  and  C_7
REMARK    5  A    between atoms: C_8  and  C_9
REMARK    6  A    between atoms: C_12  and  O_13
REMARK    7  A    between atoms: O_13  and  C_14
REMARK    8  A    between atoms: C_15  and  O_16
REMARK    9  A    between atoms: C_17  and  C_18
REMARK                            x       y       z     vdW  Elec       q    Type
REMARK                         _______ _______ _______ _____ _____    ______ ____
ROOT
ATOM      1  C   UNL     1       1.460   8.879  19.832  0.00  0.00    +0.000 A 
ATOM      2  C   UNL     1       2.037   8.271  18.774  0.00  0.00    +0.000 A 
ATOM      3  C   UNL     1       2.321   8.980  17.472  0.00  0.00    +0.000 C 
ATOM      4  C   UNL     1       2.403   6.842  18.874  0.00  0.00    +0.000 A 
ATOM      5  C   UNL     1       3.083   6.153  17.858  0.00  0.00    +0.000 A 
ATOM      6  C   UNL     1       3.459   4.801  17.970  0.00  0.00    +0.000 A 
ATOM      7  C   UNL     1       3.140   4.114  19.145  0.00  0.00    +0.000 A 
ATOM      8  C   UNL     1       2.451   4.778  20.181  0.00  0.00    +0.000 A 
ATOM      9  C   UNL     1       2.099   6.131  20.032  0.00  0.00    +0.000 A 
ATOM     10  O   UNL     1       1.428   6.783  21.087  0.00  0.00    +0.000 OA
ATOM     11  C   UNL     1       1.090   8.120  21.053  0.00  0.00    +0.000 A 
ATOM     12  O   UNL     1       0.493   8.662  21.980  0.00  0.00    +0.000 OA
ENDROOT
BRANCH   6  13
ATOM     13  O   UNL     1       4.119   4.382  16.851  0.00  0.00    +0.000 OA
ATOM     14  C   UNL     1       5.530   4.299  16.789  0.00  0.00    +0.000 C 
ENDBRANCH   6  13
BRANCH   7  15
ATOM     15  O   UNL     1       3.481   2.807  19.362  0.00  0.00    +0.000 OA
ATOM     16  H   UNL     1       2.861   2.417  19.995  0.00  0.00    +0.000 HD
ENDBRANCH   7  15
BRANCH   8  17
ATOM     17  C   UNL     1       2.087   4.012  21.403  0.00  0.00    +0.000 C 
ATOM     18  O   UNL     1       1.357   3.030  21.405  0.00  0.00    +0.000 OA
ENDBRANCH   8  17
BRANCH   1  19
ATOM     19  C   UNL     1       1.150  10.352  19.934  0.00  0.00    +0.000 C 
BRANCH  19  21
ATOM     20  N   UNL     1      -0.577  10.519  18.221  0.00  0.00    +0.000 N 
ATOM     21  C   UNL     1      -0.299  10.616  19.566  0.00  0.00    +0.000 C 
ATOM     22  O   UNL     1      -1.142  10.893  20.415  0.00  0.00    +0.000 OA
ATOM     23  H   UNL     1       0.206  10.529  17.568  0.00  0.00    +0.000 HD
BRANCH  20  25
ATOM     24  C   UNL     1      -2.210   9.858  16.503  0.00  0.00    +0.000 C 
ATOM     25  C   UNL     1      -1.912  10.734  17.707  0.00  0.00    +0.000 C 
ENDBRANCH  20  25
ENDBRANCH  19  21
ENDBRANCH   1  19
TORSDOF 6
ENDMDL
MODEL 6
REMARK VINA RESULT:      -6.3      1.514      3.356
REMARK  Name = 
REMARK  9 active torsions:
REMARK  status: ('A' for Active; 'I' for Inactive)
REMARK    1  A    between atoms: C_1  and  C_2
REMARK    2  A    between atoms: C_2  and  N_3
REMARK    3  A    between atoms: C_4  and  C_6
REMARK    4  A    between atoms: C_6  and  C_7
REMARK    5  A    between atoms: C_8  and  C_9
REMARK    6  A    between atoms: C_12  and  O_13
REMARK    7  A    between atoms: O_13  and  C_14
REMARK    8  A    between atoms: C_15  and  O_16
REMARK    9  A    between atoms: C_17  and  C_18
REMARK                            x       y       z     vdW  Elec       q    Type
REMARK                         _______ _______ _______ _____ _____    ______ ____
ROOT
ATOM      1  C   UNL     1       1.005   9.494  20.089  0.00  0.00    +0.000 A 
ATOM      2  C   UNL     1       1.716   9.099  19.013  0.00  0.00    +0.000 A 
ATOM      3  C   UNL     1       1.981   9.993  17.826  0.00  0.00    +0.000 C 
ATOM      4  C   UNL     1       2.260   7.724  18.973  0.00  0.00    +0.000 A 
ATOM      5  C   UNL     1       3.082   7.256  17.937  0.00  0.00    +0.000 A 
ATOM      6  C   UNL     1       3.625   5.957  17.918  0.00  0.00    +0.000 A 
ATOM      7  C   UNL     1       3.331   5.095  18.979  0.00  0.00    +0.000 A 
ATOM      8  C   UNL     1       2.502   5.535  20.031  0.00  0.00    +0.000 A 
ATOM      9  C   UNL     1       1.985   6.842  20.015  0.00  0.00    +0.000 A 
ATOM     10  O   UNL     1       1.174   7.271  21.086  0.00  0.00    +0.000 OA
ATOM     11  C   UNL     1       0.666   8.550  21.183  0.00  0.00    +0.000 A 
ATOM     12  O   UNL     1      -0.049   8.895  22.120  0.00  0.00    +0.000 OA
ENDROOT
BRANCH   6  13
ATOM     13  O   UNL     1       4.398   5.765  16.810  0.00  0.00    +0.000 OA
ATOM     14  C   UNL     1       5.807   5.885  16.838  0.00  0.00    +0.000 C 
ENDBRANCH   6  13
BRANCH   7  15
ATOM     15  O   UNL     1       3.826   3.823  19.068  0.00  0.00    +0.000 OA
ATOM     16  H   UNL     1       3.115   3.190  18.897  0.00  0.00    +0.000 HD
ENDBRANCH   7  15
BRANCH   8  17
ATOM     17  C   UNL     1       2.171   4.584  21.126  0.00  0.00    +0.000 C 
ATOM     18  O   UNL     1       1.383   3.654  21.013  0.00  0.00    +0.000 OA
ENDBRANCH   8  17
BRANCH   1  19
ATOM     19  C   UNL     1       0.499  10.894  20.337  0.00  0.00    +0.000 C 
BRANCH  19  21
ATOM     20  N   UNL     1      -1.466  10.323  19.011  0.00  0.00    +0.000 N 
ATOM     21  C   UNL     1      -0.519  11.286  19.282  0.00  0.00    +0.000 C 
ATOM     22  O   UNL     1      -0.486  12.380  18.724  0.00  0.00    +0.000 OA
ATOM     23  H   UNL     1      -1.284   9.371  19.328  0.00  0.00    +0.000 HD
BRANCH  20  25
ATOM     24  C   UNL     1      -2.169   9.946  16.684  0.00  0.00    +0.000 C 
ATOM     25  C   UNL     1      -2.512  10.542  18.037  0.00  0.00    +0.000 C 
ENDBRANCH  20  25
ENDBRANCH  19  21
ENDBRANCH   1  19
TORSDOF 6
ENDMDL
MODEL 7
REMARK VINA RESULT:      -6.3      1.953      2.611
REMARK  Name = 
REMARK  9 active torsions:
REMARK  status: ('A' for Active; 'I' for Inactive)
REMARK    1  A    between atoms: C_1  and  C_2
REMARK    2  A    between atoms: C_2  and  N_3
REMARK    3  A    between atoms: C_4  and  C_6
REMARK    4  A    between atoms: C_6  and  C_7
REMARK    5  A    between atoms: C_8  and  C_9
REMARK    6  A    between atoms: C_12  and  O_13
REMARK    7  A    between atoms: O_13  and  C_14
REMARK    8  A    between atoms: C_15  and  O_16
REMARK    9  A    between atoms: C_17  and  C_18
REMARK                            x       y       z     vdW  Elec       q    Type
REMARK                         _______ _______ _______ _____ _____    ______ ____
ROOT
ATOM      1  C   UNL     1       1.504   8.743  19.195  0.00  0.00    +0.000 A 
ATOM      2  C   UNL     1       1.790   7.611  19.871  0.00  0.00    +0.000 A 
ATOM      3  C   UNL     1       1.176   7.273  21.208  0.00  0.00    +0.000 C 
ATOM      4  C   UNL     1       2.756   6.651  19.296  0.00  0.00    +0.000 A 
ATOM      5  C   UNL     1       3.046   5.411  19.885  0.00  0.00    +0.000 A 
ATOM      6  C   UNL     1       3.942   4.485  19.317  0.00  0.00    +0.000 A 
ATOM      7  C   UNL     1       4.571   4.815  18.113  0.00  0.00    +0.000 A 
ATOM      8  C   UNL     1       4.303   6.057  17.500  0.00  0.00    +0.000 A 
ATOM      9  C   UNL     1       3.397   6.952  18.097  0.00  0.00    +0.000 A 
ATOM     10  O   UNL     1       3.128   8.179  17.459  0.00  0.00    +0.000 OA
ATOM     11  C   UNL     1       2.215   9.096  17.941  0.00  0.00    +0.000 A 
ATOM     12  O   UNL     1       2.008  10.165  17.373  0.00  0.00    +0.000 OA
ENDROOT
BRANCH   6  13
ATOM     13  O   UNL     1       4.032   3.358  20.082  0.00  0.00    +0.000 OA
ATOM     14  C   UNL     1       2.905   2.564  20.397  0.00  0.00    +0.000 C 
ENDBRANCH   6  13
BRANCH   7  15
ATOM     15  O   UNL     1       5.438   3.978  17.468  0.00  0.00    +0.000 OA
ATOM     16  H   UNL     1       4.943   3.241  17.082  0.00  0.00    +0.000 HD
ENDBRANCH   7  15
BRANCH   8  17
ATOM     17  C   UNL     1       5.016   6.402  16.241  0.00  0.00    +0.000 C 
ATOM     18  O   UNL     1       6.195   6.727  16.187  0.00  0.00    +0.000 OA
ENDBRANCH   8  17
BRANCH   1  19
ATOM     19  C   UNL     1       0.451   9.752  19.582  0.00  0.00    +0.000 C 
BRANCH  19  21
ATOM     20  N   UNL     1       1.414  11.983  19.783  0.00  0.00    +0.000 N 
ATOM     21  C   UNL     1       1.051  10.837  20.457  0.00  0.00    +0.000 C 
ATOM     22  O   UNL     1       1.194  10.689  21.667  0.00  0.00    +0.000 OA
ATOM     23  H   UNL     1       1.491  11.937  18.768  0.00  0.00    +0.000 HD
BRANCH  20  25
ATOM     24  C   UNL     1       1.236  14.402  20.197  0.00  0.00    +0.000 C 
ATOM     25  C   UNL     1       1.993  13.115  20.472  0.00  0.00    +0.000 C 
ENDBRANCH  20  25
ENDBRANCH  19  21
ENDBRANCH   1  19
TORSDOF 6
ENDMDL
MODEL 8
REMARK VINA RESULT:      -6.3      2.716      6.344
REMARK  Name = 
REMARK  9 active torsions:
REMARK  status: ('A' for Active; 'I' for Inactive)
REMARK    1  A    between atoms: C_1  and  C_2
REMARK    2  A    between atoms: C_2  and  N_3
REMARK    3  A    between atoms: C_4  and  C_6
REMARK    4  A    between atoms: C_6  and  C_7
REMARK    5  A    between atoms: C_8  and  C_9
REMARK    6  A    between atoms: C_12  and  O_13
REMARK    7  A    between atoms: O_13  and  C_14
REMARK    8  A    between atoms: C_15  and  O_16
REMARK    9  A    between atoms: C_17  and  C_18
REMARK                            x       y       z     vdW  Elec       q    Type
REMARK                         _______ _______ _______ _____ _____    ______ ____
ROOT
ATOM      1  C   UNL     1       3.499   6.148  18.624  0.00  0.00    +0.000 A 
ATOM      2  C   UNL     1       2.649   6.217  19.670  0.00  0.00    +0.000 A 
ATOM      3  C   UNL     1       2.441   5.079  20.639  0.00  0.00    +0.000 C 
ATOM      4  C   UNL     1       1.869   7.455  19.884  0.00  0.00    +0.000 A 
ATOM      5  C   UNL     1       1.029   7.648  20.991  0.00  0.00    +0.000 A 
ATOM      6  C   UNL     1       0.313   8.841  21.210  0.00  0.00    +0.000 A 
ATOM      7  C   UNL     1       0.444   9.878  20.282  0.00  0.00    +0.000 A 
ATOM      8  C   UNL     1       1.277   9.711  19.156  0.00  0.00    +0.000 A 
ATOM      9  C   UNL     1       1.979   8.506  18.977  0.00  0.00    +0.000 A 
ATOM     10  O   UNL     1       2.822   8.365  17.856  0.00  0.00    +0.000 OA
ATOM     11  C   UNL     1       3.590   7.243  17.626  0.00  0.00    +0.000 A 
ATOM     12  O   UNL     1       4.306   7.139  16.634  0.00  0.00    +0.000 OA
ENDROOT
BRANCH   6  13
ATOM     13  O   UNL     1      -0.413   8.772  22.363  0.00  0.00    +0.000 OA
ATOM     14  C   UNL     1      -0.114   9.565  23.496  0.00  0.00    +0.000 C 
ENDBRANCH   6  13
BRANCH   7  15
ATOM     15  O   UNL     1      -0.188  11.083  20.414  0.00  0.00    +0.000 OA
ATOM     16  H   UNL     1      -0.550  11.159  21.309  0.00  0.00    +0.000 HD
ENDBRANCH   7  15
BRANCH   8  17
ATOM     17  C   UNL     1       1.366  10.814  18.162  0.00  0.00    +0.000 C 
ATOM     18  O   UNL     1       1.902  11.893  18.381  0.00  0.00    +0.000 OA
ENDBRANCH   8  17
BRANCH   1  19
ATOM     19  C   UNL     1       4.455   5.014  18.347  0.00  0.00    +0.000 C 
BRANCH  19  21
ATOM     20  N   UNL     1       6.556   6.194  17.978  0.00  0.00    +0.000 N 
ATOM     21  C   UNL     1       5.852   5.367  18.825  0.00  0.00    +0.000 C 
ATOM     22  O   UNL     1       6.301   4.940  19.885  0.00  0.00    +0.000 OA
ATOM     23  H   UNL     1       6.217   6.303  17.023  0.00  0.00    +0.000 HD
BRANCH  20  25
ATOM     24  C   UNL     1       8.102   8.108  18.005  0.00  0.00    +0.000 C 
ATOM     25  C   UNL     1       7.899   6.632  18.291  0.00  0.00    +0.000 C 
ENDBRANCH  20  25
ENDBRANCH  19  21
ENDBRANCH   1  19
TORSDOF 6
ENDMDL
MODEL 9
REMARK VINA RESULT:      -6.3      1.876      3.644
REMARK  Name = 
REMARK  9 active torsions:
REMARK  status: ('A' for Active; 'I' for Inactive)
REMARK    1  A    between atoms: C_1  and  C_2
REMARK    2  A    between atoms: C_2  and  N_3
REMARK    3  A    between atoms: C_4  and  C_6
REMARK    4  A    between atoms: C_6  and  C_7
REMARK    5  A    between atoms: C_8  and  C_9
REMARK    6  A    between atoms: C_12  and  O_13
REMARK    7  A    between atoms: O_13  and  C_14
REMARK    8  A    between atoms: C_15  and  O_16
REMARK    9  A    between atoms: C_17  and  C_18
REMARK                            x       y       z     vdW  Elec       q    Type
REMARK                         _______ _______ _______ _____ _____    ______ ____
ROOT
ATOM      1  C   UNL     1       1.022   9.334  20.075  0.00  0.00    +0.000 A 
ATOM      2  C   UNL     1       1.733   8.906  19.011  0.00  0.00    +0.000 A 
ATOM      3  C   UNL     1       2.003   9.766  17.800  0.00  0.00    +0.000 C 
ATOM      4  C   UNL     1       2.269   7.528  19.009  0.00  0.00    +0.000 A 
ATOM      5  C   UNL     1       3.090   7.027  17.987  0.00  0.00    +0.000 A 
ATOM      6  C   UNL     1       3.626   5.725  18.005  0.00  0.00    +0.000 A 
ATOM      7  C   UNL     1       3.326   4.894  19.088  0.00  0.00    +0.000 A 
ATOM      8  C   UNL     1       2.498   5.368  20.128  0.00  0.00    +0.000 A 
ATOM      9  C   UNL     1       1.988   6.677  20.075  0.00  0.00    +0.000 A 
ATOM     10  O   UNL     1       1.179   7.138  21.133  0.00  0.00    +0.000 OA
ATOM     11  C   UNL     1       0.678   8.423  21.194  0.00  0.00    +0.000 A 
ATOM     12  O   UNL     1      -0.036   8.797  22.121  0.00  0.00    +0.000 OA
ENDROOT
BRANCH   6  13
ATOM     13  O   UNL     1       4.399   5.499  16.903  0.00  0.00    +0.000 OA
ATOM     14  C   UNL     1       5.060   6.541  16.213  0.00  0.00    +0.000 C 
ENDBRANCH   6  13
BRANCH   7  15
ATOM     15  O   UNL     1       3.815   3.623  19.213  0.00  0.00    +0.000 OA
ATOM     16  H   UNL     1       4.039   3.279  18.336  0.00  0.00    +0.000 HD
ENDBRANCH   7  15
BRANCH   8  17
ATOM     17  C   UNL     1       2.161   4.449  21.248  0.00  0.00    +0.000 C 
ATOM     18  O   UNL     1       1.416   3.484  21.143  0.00  0.00    +0.000 OA
ENDBRANCH   8  17
BRANCH   1  19
ATOM     19  C   UNL     1       0.524  10.743  20.284  0.00  0.00    +0.000 C 
BRANCH  19  21
ATOM     20  N   UNL     1      -1.568  11.992  20.192  0.00  0.00    +0.000 N 
ATOM     21  C   UNL     1      -0.875  10.902  19.715  0.00  0.00    +0.000 C 
ATOM     22  O   UNL     1      -1.334  10.111  18.895  0.00  0.00    +0.000 OA
ATOM     23  H   UNL     1      -1.221  12.449  21.035  0.00  0.00    +0.000 HD
BRANCH  20  25
ATOM     24  C   UNL     1      -3.766  12.881  20.849  0.00  0.00    +0.000 C 
ATOM     25  C   UNL     1      -2.911  12.290  19.744  0.00  0.00    +0.000 C 
ENDBRANCH  20  25
ENDBRANCH  19  21
ENDBRANCH   1  19
TORSDOF 6
ENDMDL
