MODEL 1
REMARK VINA RESULT:      -8.5      0.000      0.000
REMARK  Name = 
REMARK  7 active torsions:
REMARK  status: ('A' for Active; 'I' for Inactive)
REMARK    1  A    between atoms: C_1  and  O_2
REMARK    2  A    between atoms: O_2  and  C_3
REMARK    3  A    between atoms: C_9  and  C_10
REMARK    4  A    between atoms: N_12  and  C_13
REMARK    5  A    between atoms: C_16  and  O_17
REMARK    6  A    between atoms: O_17  and  C_18
REMARK    7  A    between atoms: C_18  and  C_19
REMARK                            x       y       z     vdW  Elec       q    Type
REMARK                         _______ _______ _______ _____ _____    ______ ____
ROOT
ATOM      1  C   UNL     1       7.975   7.389  18.280  0.00  0.00    +0.000 A 
ATOM      2  C   UNL     1       7.858   6.210  19.018  0.00  0.00    +0.000 A 
ATOM      3  C   UNL     1       7.014   5.183  18.604  0.00  0.00    +0.000 A 
ATOM      4  C   UNL     1       6.261   5.314  17.445  0.00  0.00    +0.000 A 
ATOM      5  C   UNL     1       6.388   6.472  16.675  0.00  0.00    +0.000 A 
ATOM      6  C   UNL     1       7.226   7.517  17.106  0.00  0.00    +0.000 A 
ENDROOT
BRANCH   1   9
ATOM      7  C   UNL     1       8.633   9.780  18.368  0.00  0.00    +0.000 C 
ATOM      8  O   UNL     1       7.681  10.221  17.718  0.00  0.00    +0.000 OA
ATOM      9  N   UNL     1       8.814   8.450  18.692  0.00  0.00    +0.000 N 
ATOM     10  H   UNL     1       9.576   8.232  19.326  0.00  0.00    +0.000 HD
BRANCH   7  17
ATOM     11  C   UNL     1       9.799  11.163  20.200  0.00  0.00    +0.000 A 
ATOM     12  C   UNL     1      10.801  12.096  20.519  0.00  0.00    +0.000 A 
ATOM     13  C   UNL     1      11.579  12.689  19.527  0.00  0.00    +0.000 A 
ATOM     14  C   UNL     1      11.382  12.345  18.200  0.00  0.00    +0.000 A 
ATOM     15 CL   UNL     1      12.333  13.079  16.973  0.00  0.00    +0.000 Cl
ATOM     16  C   UNL     1      10.419  11.399  17.864  0.00  0.00    +0.000 A 
ATOM     17  C   UNL     1       9.625  10.788  18.860  0.00  0.00    +0.000 A 
BRANCH  11  19
ATOM     18  C   UNL     1       8.529  11.486  22.168  0.00  0.00    +0.000 C 
ATOM     19  O   UNL     1       9.006  10.589  21.165  0.00  0.00    +0.000 OA
ENDBRANCH  11  19
ENDBRANCH   7  17
ENDBRANCH   1   9
BRANCH   4  20
ATOM     20  O   UNL     1       5.452   4.248  17.170  0.00  0.00    +0.000 OA
BRANCH  20  21
ATOM     21  C   UNL     1       4.080   4.550  16.970  0.00  0.00    +0.000 C 
BRANCH  21  22
ATOM     22  C   UNL     1       3.431   5.094  18.246  0.00  0.00    +0.000 C 
ATOM     23  O   UNL     1       3.224   6.307  18.361  0.00  0.00    +0.000 OA
ATOM     24  N   UNL     1       3.019   4.196  19.214  0.00  0.00    +0.000 N 
ATOM     25  C   UNL     1       3.225   2.745  19.189  0.00  0.00    +0.000 C 
ATOM     26  C   UNL     1       1.900   2.017  19.445  0.00  0.00    +0.000 C 
ATOM     27  O   UNL     1       1.275   2.472  20.657  0.00  0.00    +0.000 OA
ATOM     28  C   UNL     1       1.029   3.889  20.610  0.00  0.00    +0.000 C 
ATOM     29  C   UNL     1       2.335   4.666  20.420  0.00  0.00    +0.000 C 
ENDBRANCH  21  22
ENDBRANCH  20  21
ENDBRANCH   4  20
TORSDOF 6
ENDMDL
MODEL 2
REMARK VINA RESULT:      -7.9      6.428      8.672
REMARK  Name = 
REMARK  7 active torsions:
REMARK  status: ('A' for Active; 'I' for Inactive)
REMARK    1  A    between atoms: C_1  and  O_2
REMARK    2  A    between atoms: O_2  and  C_3
REMARK    3  A    between atoms: C_9  and  C_10
REMARK    4  A    between atoms: N_12  and  C_13
REMARK    5  A    between atoms: C_16  and  O_17
REMARK    6  A    between atoms: O_17  and  C_18
REMARK    7  A    between atoms: C_18  and  C_19
REMARK                            x       y       z     vdW  Elec       q    Type
REMARK                         _______ _______ _______ _____ _____    ______ ____
ROOT
ATOM      1  C   UNL     1       0.974   8.993  19.274  0.00  0.00    +0.000 A 
ATOM      2  C   UNL     1       1.626   9.080  18.043  0.00  0.00    +0.000 A 
ATOM      3  C   UNL     1       2.678   8.226  17.724  0.00  0.00    +0.000 A 
ATOM      4  C   UNL     1       3.109   7.269  18.632  0.00  0.00    +0.000 A 
ATOM      5  C   UNL     1       2.449   7.143  19.856  0.00  0.00    +0.000 A 
ATOM      6  C   UNL     1       1.399   8.020  20.185  0.00  0.00    +0.000 A 
ENDROOT
BRANCH   1   9
ATOM      7  C   UNL     1      -0.017  10.859  20.574  0.00  0.00    +0.000 C 
ATOM      8  O   UNL     1       1.000  11.158  21.206  0.00  0.00    +0.000 OA
ATOM      9  N   UNL     1      -0.086   9.860  19.623  0.00  0.00    +0.000 N 
ATOM     10  H   UNL     1      -0.950   9.789  19.095  0.00  0.00    +0.000 HD
BRANCH   7  17
ATOM     11  C   UNL     1      -1.958  12.408  19.892  0.00  0.00    +0.000 A 
ATOM     12  C   UNL     1      -3.111  13.104  20.293  0.00  0.00    +0.000 A 
ATOM     13  C   UNL     1      -3.513  13.129  21.627  0.00  0.00    +0.000 A 
ATOM     14  C   UNL     1      -2.781  12.441  22.580  0.00  0.00    +0.000 A 
ATOM     15 CL   UNL     1      -3.268  12.475  24.226  0.00  0.00    +0.000 Cl
ATOM     16  C   UNL     1      -1.654  11.718  22.201  0.00  0.00    +0.000 A 
ATOM     17  C   UNL     1      -1.237  11.681  20.852  0.00  0.00    +0.000 A 
BRANCH  11  19
ATOM     18  C   UNL     1      -2.370  11.669  17.685  0.00  0.00    +0.000 C 
ATOM     19  O   UNL     1      -1.534  12.395  18.584  0.00  0.00    +0.000 OA
ENDBRANCH  11  19
ENDBRANCH   7  17
ENDBRANCH   1   9
BRANCH   4  20
ATOM     20  O   UNL     1       4.169   6.518  18.207  0.00  0.00    +0.000 OA
BRANCH  20  21
ATOM     21  C   UNL     1       3.853   5.216  17.740  0.00  0.00    +0.000 C 
BRANCH  21  22
ATOM     22  C   UNL     1       4.169   4.148  18.792  0.00  0.00    +0.000 C 
ATOM     23  O   UNL     1       5.337   3.974  19.158  0.00  0.00    +0.000 OA
ATOM     24  N   UNL     1       3.120   3.455  19.367  0.00  0.00    +0.000 N 
ATOM     25  C   UNL     1       1.706   3.569  19.001  0.00  0.00    +0.000 C 
ATOM     26  C   UNL     1       0.853   3.808  20.254  0.00  0.00    +0.000 C 
ATOM     27  O   UNL     1       1.092   2.803  21.253  0.00  0.00    +0.000 OA
ATOM     28  C   UNL     1       2.480   2.772  21.631  0.00  0.00    +0.000 C 
ATOM     29  C   UNL     1       3.372   2.472  20.422  0.00  0.00    +0.000 C 
ENDBRANCH  21  22
ENDBRANCH  20  21
ENDBRANCH   4  20
TORSDOF 6
ENDMDL
MODEL 3
REMARK VINA RESULT:      -7.8      6.261      8.687
REMARK  Name = 
REMARK  7 active torsions:
REMARK  status: ('A' for Active; 'I' for Inactive)
REMARK    1  A    between atoms: C_1  and  O_2
REMARK    2  A    between atoms: O_2  and  C_3
REMARK    3  A    between atoms: C_9  and  C_10
REMARK    4  A    between atoms: N_12  and  C_13
REMARK    5  A    between atoms: C_16  and  O_17
REMARK    6  A    between atoms: O_17  and  C_18
REMARK    7  A    between atoms: C_18  and  C_19
REMARK                            x       y       z     vdW  Elec       q    Type
REMARK                         _______ _______ _______ _____ _____    ______ ____
ROOT
ATOM      1  C   UNL     1       2.586   7.986  18.478  0.00  0.00    +0.000 A 
ATOM      2  C   UNL     1       2.129   7.725  19.771  0.00  0.00    +0.000 A 
ATOM      3  C   UNL     1       1.067   8.441  20.317  0.00  0.00    +0.000 A 
ATOM      4  C   UNL     1       0.442   9.441  19.586  0.00  0.00    +0.000 A 
ATOM      5  C   UNL     1       0.862   9.696  18.279  0.00  0.00    +0.000 A 
ATOM      6  C   UNL     1       1.948   8.985  17.735  0.00  0.00    +0.000 A 
ENDROOT
BRANCH   1   9
ATOM      7  C   UNL     1       3.692   5.927  17.645  0.00  0.00    +0.000 C 
ATOM      8  O   UNL     1       2.738   5.164  17.820  0.00  0.00    +0.000 OA
ATOM      9  N   UNL     1       3.673   7.282  17.911  0.00  0.00    +0.000 N 
ATOM     10  H   UNL     1       4.483   7.818  17.619  0.00  0.00    +0.000 HD
BRANCH   7  17
ATOM     11  C   UNL     1       6.140   5.135  17.754  0.00  0.00    +0.000 A 
ATOM     12  C   UNL     1       7.211   4.513  17.090  0.00  0.00    +0.000 A 
ATOM     13  C   UNL     1       7.110   4.131  15.754  0.00  0.00    +0.000 A 
ATOM     14  C   UNL     1       5.929   4.346  15.064  0.00  0.00    +0.000 A 
ATOM     15 CL   UNL     1       5.802   3.884  13.415  0.00  0.00    +0.000 Cl
ATOM     16  C   UNL     1       4.844   4.931  15.710  0.00  0.00    +0.000 A 
ATOM     17  C   UNL     1       4.932   5.320  17.065  0.00  0.00    +0.000 A 
BRANCH  11  19
ATOM     18  C   UNL     1       7.563   5.761  19.535  0.00  0.00    +0.000 C 
ATOM     19  O   UNL     1       6.234   5.541  19.064  0.00  0.00    +0.000 OA
ENDBRANCH  11  19
ENDBRANCH   7  17
ENDBRANCH   1   9
BRANCH   4  20
ATOM     20  O   UNL     1      -0.564  10.086  20.249  0.00  0.00    +0.000 OA
BRANCH  20  21
ATOM     21  C   UNL     1      -0.354  10.288  21.638  0.00  0.00    +0.000 C 
BRANCH  21  22
ATOM     22  C   UNL     1      -0.139  11.768  21.966  0.00  0.00    +0.000 C 
ATOM     23  O   UNL     1       0.846  12.361  21.511  0.00  0.00    +0.000 OA
ATOM     24  N   UNL     1      -1.103  12.429  22.706  0.00  0.00    +0.000 N 
ATOM     25  C   UNL     1      -2.296  11.826  23.305  0.00  0.00    +0.000 C 
ATOM     26  C   UNL     1      -3.545  12.628  22.919  0.00  0.00    +0.000 C 
ATOM     27  O   UNL     1      -3.399  14.019  23.247  0.00  0.00    +0.000 OA
ATOM     28  C   UNL     1      -2.255  14.588  22.584  0.00  0.00    +0.000 C 
ATOM     29  C   UNL     1      -0.970  13.860  22.987  0.00  0.00    +0.000 C 
ENDBRANCH  21  22
ENDBRANCH  20  21
ENDBRANCH   4  20
TORSDOF 6
ENDMDL
MODEL 4
REMARK VINA RESULT:      -7.8      5.905      8.568
REMARK  Name = 
REMARK  7 active torsions:
REMARK  status: ('A' for Active; 'I' for Inactive)
REMARK    1  A    between atoms: C_1  and  O_2
REMARK    2  A    between atoms: O_2  and  C_3
REMARK    3  A    between atoms: C_9  and  C_10
REMARK    4  A    between atoms: N_12  and  C_13
REMARK    5  A    between atoms: C_16  and  O_17
REMARK    6  A    between atoms: O_17  and  C_18
REMARK    7  A    between atoms: C_18  and  C_19
REMARK                            x       y       z     vdW  Elec       q    Type
REMARK                         _______ _______ _______ _____ _____    ______ ____
ROOT
ATOM      1  C   UNL     1       2.279   7.708  18.427  0.00  0.00    +0.000 A 
ATOM      2  C   UNL     1       1.803   8.810  17.716  0.00  0.00    +0.000 A 
ATOM      3  C   UNL     1       1.070   9.812  18.346  0.00  0.00    +0.000 A 
ATOM      4  C   UNL     1       0.787   9.731  19.702  0.00  0.00    +0.000 A 
ATOM      5  C   UNL     1       1.281   8.653  20.439  0.00  0.00    +0.000 A 
ATOM      6  C   UNL     1       2.005   7.631  19.798  0.00  0.00    +0.000 A 
ENDROOT
BRANCH   1   9
ATOM      7  C   UNL     1       4.309   6.778  17.346  0.00  0.00    +0.000 C 
ATOM      8  O   UNL     1       5.018   7.781  17.472  0.00  0.00    +0.000 OA
ATOM      9  N   UNL     1       3.011   6.672  17.804  0.00  0.00    +0.000 N 
ATOM     10  H   UNL     1       2.575   5.758  17.739  0.00  0.00    +0.000 HD
BRANCH   7  17
ATOM     11  C   UNL     1       4.731   4.257  17.041  0.00  0.00    +0.000 A 
ATOM     12  C   UNL     1       5.365   3.246  16.298  0.00  0.00    +0.000 A 
ATOM     13  C   UNL     1       6.236   3.554  15.255  0.00  0.00    +0.000 A 
ATOM     14  C   UNL     1       6.473   4.877  14.923  0.00  0.00    +0.000 A 
ATOM     15 CL   UNL     1       7.551   5.262  13.643  0.00  0.00    +0.000 Cl
ATOM     16  C   UNL     1       5.831   5.894  15.624  0.00  0.00    +0.000 A 
ATOM     17  C   UNL     1       4.943   5.596  16.681  0.00  0.00    +0.000 A 
BRANCH  11  19
ATOM     18  C   UNL     1       4.542   3.640  19.315  0.00  0.00    +0.000 C 
ATOM     19  O   UNL     1       3.890   3.969  18.089  0.00  0.00    +0.000 OA
ENDBRANCH  11  19
ENDBRANCH   7  17
ENDBRANCH   1   9
BRANCH   4  20
ATOM     20  O   UNL     1       0.035  10.763  20.188  0.00  0.00    +0.000 OA
BRANCH  20  21
ATOM     21  C   UNL     1      -0.452  11.679  19.220  0.00  0.00    +0.000 C 
BRANCH  21  22
ATOM     22  C   UNL     1      -1.979  11.783  19.258  0.00  0.00    +0.000 C 
ATOM     23  O   UNL     1      -2.525  12.487  20.115  0.00  0.00    +0.000 OA
ATOM     24  N   UNL     1      -2.711  11.142  18.275  0.00  0.00    +0.000 N 
ATOM     25  C   UNL     1      -2.172  10.274  17.225  0.00  0.00    +0.000 C 
ATOM     26  C   UNL     1      -2.695  10.716  15.853  0.00  0.00    +0.000 C 
ATOM     27  O   UNL     1      -4.130  10.789  15.835  0.00  0.00    +0.000 OA
ATOM     28  C   UNL     1      -4.612  11.703  16.836  0.00  0.00    +0.000 C 
ATOM     29  C   UNL     1      -4.169  11.268  18.236  0.00  0.00    +0.000 C 
ENDBRANCH  21  22
ENDBRANCH  20  21
ENDBRANCH   4  20
TORSDOF 6
ENDMDL
MODEL 5
REMARK VINA RESULT:      -7.7      6.401      8.779
REMARK  Name = 
REMARK  7 active torsions:
REMARK  status: ('A' for Active; 'I' for Inactive)
REMARK    1  A    between atoms: C_1  and  O_2
REMARK    2  A    between atoms: O_2  and  C_3
REMARK    3  A    between atoms: C_9  and  C_10
REMARK    4  A    between atoms: N_12  and  C_13
REMARK    5  A    between atoms: C_16  and  O_17
REMARK    6  A    between atoms: O_17  and  C_18
REMARK    7  A    between atoms: C_18  and  C_19
REMARK                            x       y       z     vdW  Elec       q    Type
REMARK                         _______ _______ _______ _____ _____    ______ ____
ROOT
ATOM      1  C   UNL     1       2.512   8.045  18.414  0.00  0.00    +0.000 A 
ATOM      2  C   UNL     1       2.116   7.833  19.736  0.00  0.00    +0.000 A 
ATOM      3  C   UNL     1       1.080   8.569  20.304  0.00  0.00    +0.000 A 
ATOM      4  C   UNL     1       0.421   9.543  19.567  0.00  0.00    +0.000 A 
ATOM      5  C   UNL     1       0.780   9.749  18.233  0.00  0.00    +0.000 A 
ATOM      6  C   UNL     1       1.840   9.018  17.666  0.00  0.00    +0.000 A 
ENDROOT
BRANCH   1   9
ATOM      7  C   UNL     1       3.766   5.957  17.940  0.00  0.00    +0.000 C 
ATOM      8  O   UNL     1       3.005   5.188  18.535  0.00  0.00    +0.000 OA
ATOM      9  N   UNL     1       3.571   7.319  17.824  0.00  0.00    +0.000 N 
ATOM     10  H   UNL     1       4.208   7.822  17.214  0.00  0.00    +0.000 HD
BRANCH   7  17
ATOM     11  C   UNL     1       6.192   5.095  17.890  0.00  0.00    +0.000 A 
ATOM     12  C   UNL     1       7.207   4.465  17.150  0.00  0.00    +0.000 A 
ATOM     13  C   UNL     1       7.022   4.128  15.811  0.00  0.00    +0.000 A 
ATOM     14  C   UNL     1       5.812   4.398  15.194  0.00  0.00    +0.000 A 
ATOM     15 CL   UNL     1       5.582   3.991  13.541  0.00  0.00    +0.000 Cl
ATOM     16  C   UNL     1       4.781   4.991  15.916  0.00  0.00    +0.000 A 
ATOM     17  C   UNL     1       4.954   5.335  17.275  0.00  0.00    +0.000 A 
BRANCH  11  19
ATOM     18  C   UNL     1       7.709   5.783  19.567  0.00  0.00    +0.000 C 
ATOM     19  O   UNL     1       6.368   5.457  19.205  0.00  0.00    +0.000 OA
ENDBRANCH  11  19
ENDBRANCH   7  17
ENDBRANCH   1   9
BRANCH   4  20
ATOM     20  O   UNL     1      -0.552  10.213  20.252  0.00  0.00    +0.000 OA
BRANCH  20  21
ATOM     21  C   UNL     1      -0.094  11.160  21.205  0.00  0.00    +0.000 C 
BRANCH  21  22
ATOM     22  C   UNL     1      -1.023  11.233  22.420  0.00  0.00    +0.000 C 
ATOM     23  O   UNL     1      -0.717  10.642  23.462  0.00  0.00    +0.000 OA
ATOM     24  N   UNL     1      -2.151  12.029  22.344  0.00  0.00    +0.000 N 
ATOM     25  C   UNL     1      -2.616  12.757  21.161  0.00  0.00    +0.000 C 
ATOM     26  C   UNL     1      -2.889  14.224  21.516  0.00  0.00    +0.000 C 
ATOM     27  O   UNL     1      -3.789  14.337  22.631  0.00  0.00    +0.000 OA
ATOM     28  C   UNL     1      -3.262  13.666  23.789  0.00  0.00    +0.000 C 
ATOM     29  C   UNL     1      -3.032  12.179  23.504  0.00  0.00    +0.000 C 
ENDBRANCH  21  22
ENDBRANCH  20  21
ENDBRANCH   4  20
TORSDOF 6
ENDMDL
MODEL 6
REMARK VINA RESULT:      -7.6      1.738      2.324
REMARK  Name = 
REMARK  7 active torsions:
REMARK  status: ('A' for Active; 'I' for Inactive)
REMARK    1  A    between atoms: C_1  and  O_2
REMARK    2  A    between atoms: O_2  and  C_3
REMARK    3  A    between atoms: C_9  and  C_10
REMARK    4  A    between atoms: N_12  and  C_13
REMARK    5  A    between atoms: C_16  and  O_17
REMARK    6  A    between atoms: O_17  and  C_18
REMARK    7  A    between atoms: C_18  and  C_19
REMARK                            x       y       z     vdW  Elec       q    Type
REMARK                         _______ _______ _______ _____ _____    ______ ____
ROOT
ATOM      1  C   UNL     1       8.198   7.545  18.520  0.00  0.00    +0.000 A 
ATOM      2  C   UNL     1       8.107   6.305  19.154  0.00  0.00    +0.000 A 
ATOM      3  C   UNL     1       7.488   5.223  18.535  0.00  0.00    +0.000 A 
ATOM      4  C   UNL     1       6.937   5.357  17.268  0.00  0.00    +0.000 A 
ATOM      5  C   UNL     1       7.046   6.580  16.602  0.00  0.00    +0.000 A 
ATOM      6  C   UNL     1       7.654   7.678  17.237  0.00  0.00    +0.000 A 
ENDROOT
BRANCH   1   9
ATOM      7  C   UNL     1       8.766   9.956  18.663  0.00  0.00    +0.000 C 
ATOM      8  O   UNL     1       8.142  10.316  17.661  0.00  0.00    +0.000 OA
ATOM      9  N   UNL     1       8.808   8.660  19.138  0.00  0.00    +0.000 N 
ATOM     10  H   UNL     1       9.263   8.515  20.033  0.00  0.00    +0.000 HD
BRANCH   7  17
ATOM     11  C   UNL     1      10.569  11.775  18.929  0.00  0.00    +0.000 A 
ATOM     12  C   UNL     1      11.122  12.781  19.740  0.00  0.00    +0.000 A 
ATOM     13  C   UNL     1      10.650  13.009  21.031  0.00  0.00    +0.000 A 
ATOM     14  C   UNL     1       9.606  12.248  21.527  0.00  0.00    +0.000 A 
ATOM     15 CL   UNL     1       9.026  12.520  23.121  0.00  0.00    +0.000 Cl
ATOM     16  C   UNL     1       9.021  11.268  20.730  0.00  0.00    +0.000 A 
ATOM     17  C   UNL     1       9.486  11.029  19.418  0.00  0.00    +0.000 A 
BRANCH  11  19
ATOM     18  C   UNL     1      11.514  12.665  16.953  0.00  0.00    +0.000 C 
ATOM     19  O   UNL     1      11.040  11.521  17.663  0.00  0.00    +0.000 OA
ENDBRANCH  11  19
ENDBRANCH   7  17
ENDBRANCH   1   9
BRANCH   4  20
ATOM     20  O   UNL     1       6.333   4.229  16.789  0.00  0.00    +0.000 OA
BRANCH  20  21
ATOM     21  C   UNL     1       5.012   4.398  16.300  0.00  0.00    +0.000 C 
BRANCH  21  22
ATOM     22  C   UNL     1       4.071   4.923  17.388  0.00  0.00    +0.000 C 
ATOM     23  O   UNL     1       3.736   6.113  17.388  0.00  0.00    +0.000 OA
ATOM     24  N   UNL     1       3.553   4.026  18.304  0.00  0.00    +0.000 N 
ATOM     25  C   UNL     1       3.890   2.604  18.406  0.00  0.00    +0.000 C 
ATOM     26  C   UNL     1       2.611   1.758  18.436  0.00  0.00    +0.000 C 
ATOM     27  O   UNL     1       1.715   2.194  19.471  0.00  0.00    +0.000 OA
ATOM     28  C   UNL     1       1.357   3.576  19.294  0.00  0.00    +0.000 C 
ATOM     29  C   UNL     1       2.599   4.473  19.321  0.00  0.00    +0.000 C 
ENDBRANCH  21  22
ENDBRANCH  20  21
ENDBRANCH   4  20
TORSDOF 6
ENDMDL
MODEL 7
REMARK VINA RESULT:      -7.6      5.592      7.309
REMARK  Name = 
REMARK  7 active torsions:
REMARK  status: ('A' for Active; 'I' for Inactive)
REMARK    1  A    between atoms: C_1  and  O_2
REMARK    2  A    between atoms: O_2  and  C_3
REMARK    3  A    between atoms: C_9  and  C_10
REMARK    4  A    between atoms: N_12  and  C_13
REMARK    5  A    between atoms: C_16  and  O_17
REMARK    6  A    between atoms: O_17  and  C_18
REMARK    7  A    between atoms: C_18  and  C_19
REMARK                            x       y       z     vdW  Elec       q    Type
REMARK                         _______ _______ _______ _____ _____    ______ ____
ROOT
ATOM      1  C   UNL     1       2.425   7.967  17.856  0.00  0.00    +0.000 A 
ATOM      2  C   UNL     1       3.742   8.035  17.398  0.00  0.00    +0.000 A 
ATOM      3  C   UNL     1       4.487   6.880  17.174  0.00  0.00    +0.000 A 
ATOM      4  C   UNL     1       3.935   5.629  17.413  0.00  0.00    +0.000 A 
ATOM      5  C   UNL     1       2.609   5.538  17.840  0.00  0.00    +0.000 A 
ATOM      6  C   UNL     1       1.864   6.706  18.085  0.00  0.00    +0.000 A 
ENDROOT
BRANCH   1   9
ATOM      7  C   UNL     1       1.104   9.472  19.321  0.00  0.00    +0.000 C 
ATOM      8  O   UNL     1       1.255   8.833  20.366  0.00  0.00    +0.000 OA
ATOM      9  N   UNL     1       1.658   9.128  18.104  0.00  0.00    +0.000 N 
ATOM     10  H   UNL     1       1.552   9.796  17.347  0.00  0.00    +0.000 HD
BRANCH   7  17
ATOM     11  C   UNL     1      -0.836  11.021  18.638  0.00  0.00    +0.000 A 
ATOM     12  C   UNL     1      -1.526  12.223  18.870  0.00  0.00    +0.000 A 
ATOM     13  C   UNL     1      -1.078  13.142  19.817  0.00  0.00    +0.000 A 
ATOM     14  C   UNL     1       0.056  12.867  20.562  0.00  0.00    +0.000 A 
ATOM     15 CL   UNL     1       0.616  14.000  21.724  0.00  0.00    +0.000 Cl
ATOM     16  C   UNL     1       0.736  11.667  20.373  0.00  0.00    +0.000 A 
ATOM     17  C   UNL     1       0.291  10.725  19.419  0.00  0.00    +0.000 A 
BRANCH  11  19
ATOM     18  C   UNL     1      -2.294  10.576  16.831  0.00  0.00    +0.000 C 
ATOM     19  O   UNL     1      -1.251  10.116  17.690  0.00  0.00    +0.000 OA
ENDBRANCH  11  19
ENDBRANCH   7  17
ENDBRANCH   1   9
BRANCH   4  20
ATOM     20  O   UNL     1       4.782   4.582  17.184  0.00  0.00    +0.000 OA
BRANCH  20  21
ATOM     21  C   UNL     1       4.288   3.300  17.540  0.00  0.00    +0.000 C 
BRANCH  21  22
ATOM     22  C   UNL     1       4.386   3.057  19.049  0.00  0.00    +0.000 C 
ATOM     23  O   UNL     1       5.434   3.326  19.647  0.00  0.00    +0.000 OA
ATOM     24  N   UNL     1       3.262   2.613  19.722  0.00  0.00    +0.000 N 
ATOM     25  C   UNL     1       1.979   2.251  19.115  0.00  0.00    +0.000 C 
ATOM     26  C   UNL     1       0.832   2.975  19.831  0.00  0.00    +0.000 C 
ATOM     27  O   UNL     1       0.865   2.742  21.249  0.00  0.00    +0.000 OA
ATOM     28  C   UNL     1       2.115   3.174  21.813  0.00  0.00    +0.000 C 
ATOM     29  C   UNL     1       3.292   2.430  21.174  0.00  0.00    +0.000 C 
ENDBRANCH  21  22
ENDBRANCH  20  21
ENDBRANCH   4  20
TORSDOF 6
ENDMDL
MODEL 8
REMARK VINA RESULT:      -7.6      7.394      9.272
REMARK  Name = 
REMARK  7 active torsions:
REMARK  status: ('A' for Active; 'I' for Inactive)
REMARK    1  A    between atoms: C_1  and  O_2
REMARK    2  A    between atoms: O_2  and  C_3
REMARK    3  A    between atoms: C_9  and  C_10
REMARK    4  A    between atoms: N_12  and  C_13
REMARK    5  A    between atoms: C_16  and  O_17
REMARK    6  A    between atoms: O_17  and  C_18
REMARK    7  A    between atoms: C_18  and  C_19
REMARK                            x       y       z     vdW  Elec       q    Type
REMARK                         _______ _______ _______ _____ _____    ______ ____
ROOT
ATOM      1  C   UNL     1       0.297  10.359  20.354  0.00  0.00    +0.000 A 
ATOM      2  C   UNL     1       0.504  10.475  18.978  0.00  0.00    +0.000 A 
ATOM      3  C   UNL     1       1.262   9.536  18.283  0.00  0.00    +0.000 A 
ATOM      4  C   UNL     1       1.839   8.464  18.949  0.00  0.00    +0.000 A 
ATOM      5  C   UNL     1       1.617   8.312  20.319  0.00  0.00    +0.000 A 
ATOM      6  C   UNL     1       0.868   9.271  21.024  0.00  0.00    +0.000 A 
ENDROOT
BRANCH   1   9
ATOM      7  C   UNL     1      -0.637  11.303  22.450  0.00  0.00    +0.000 C 
ATOM      8  O   UNL     1      -0.118  10.493  23.222  0.00  0.00    +0.000 OA
ATOM      9  N   UNL     1      -0.455  11.309  21.081  0.00  0.00    +0.000 N 
ATOM     10  H   UNL     1      -0.846  12.095  20.570  0.00  0.00    +0.000 HD
BRANCH   7  17
ATOM     11  C   UNL     1      -1.109  13.708  23.239  0.00  0.00    +0.000 A 
ATOM     12  C   UNL     1      -2.029  14.606  23.807  0.00  0.00    +0.000 A 
ATOM     13  C   UNL     1      -3.277  14.176  24.254  0.00  0.00    +0.000 A 
ATOM     14  C   UNL     1      -3.634  12.845  24.123  0.00  0.00    +0.000 A 
ATOM     15 CL   UNL     1      -5.168  12.309  24.679  0.00  0.00    +0.000 Cl
ATOM     16  C   UNL     1      -2.753  11.944  23.534  0.00  0.00    +0.000 A 
ATOM     17  C   UNL     1      -1.486  12.367  23.073  0.00  0.00    +0.000 A 
BRANCH  11  19
ATOM     18  C   UNL     1       0.144  15.270  21.983  0.00  0.00    +0.000 C 
ATOM     19  O   UNL     1       0.135  14.112  22.817  0.00  0.00    +0.000 OA
ENDBRANCH  11  19
ENDBRANCH   7  17
ENDBRANCH   1   9
BRANCH   4  20
ATOM     20  O   UNL     1       2.582   7.636  18.155  0.00  0.00    +0.000 OA
BRANCH  20  21
ATOM     21  C   UNL     1       3.210   6.549  18.817  0.00  0.00    +0.000 C 
BRANCH  21  22
ATOM     22  C   UNL     1       3.320   5.322  17.907  0.00  0.00    +0.000 C 
ATOM     23  O   UNL     1       4.140   5.316  16.982  0.00  0.00    +0.000 OA
ATOM     24  N   UNL     1       2.547   4.212  18.195  0.00  0.00    +0.000 N 
ATOM     25  C   UNL     1       1.537   4.115  19.252  0.00  0.00    +0.000 C 
ATOM     26  C   UNL     1       1.779   2.861  20.101  0.00  0.00    +0.000 C 
ATOM     27  O   UNL     1       1.851   1.679  19.287  0.00  0.00    +0.000 OA
ATOM     28  C   UNL     1       2.899   1.791  18.308  0.00  0.00    +0.000 C 
ATOM     29  C   UNL     1       2.668   2.995  17.391  0.00  0.00    +0.000 C 
ENDBRANCH  21  22
ENDBRANCH  20  21
ENDBRANCH   4  20
TORSDOF 6
ENDMDL
MODEL 9
REMARK VINA RESULT:      -7.6      6.113      8.132
REMARK  Name = 
REMARK  7 active torsions:
REMARK  status: ('A' for Active; 'I' for Inactive)
REMARK    1  A    between atoms: C_1  and  O_2
REMARK    2  A    between atoms: O_2  and  C_3
REMARK    3  A    between atoms: C_9  and  C_10
REMARK    4  A    between atoms: N_12  and  C_13
REMARK    5  A    between atoms: C_16  and  O_17
REMARK    6  A    between atoms: O_17  and  C_18
REMARK    7  A    between atoms: C_18  and  C_19
REMARK                            x       y       z     vdW  Elec       q    Type
REMARK                         _______ _______ _______ _____ _____    ______ ____
ROOT
ATOM      1  C   UNL     1       1.578   8.736  19.583  0.00  0.00    +0.000 A 
ATOM      2  C   UNL     1       2.137   8.193  18.425  0.00  0.00    +0.000 A 
ATOM      3  C   UNL     1       2.487   6.847  18.358  0.00  0.00    +0.000 A 
ATOM      4  C   UNL     1       2.294   6.013  19.451  0.00  0.00    +0.000 A 
ATOM      5  C   UNL     1       1.706   6.529  20.607  0.00  0.00    +0.000 A 
ATOM      6  C   UNL     1       1.371   7.894  20.681  0.00  0.00    +0.000 A 
ENDROOT
BRANCH   1   9
ATOM      7  C   UNL     1       0.089  10.673  19.149  0.00  0.00    +0.000 C 
ATOM      8  O   UNL     1      -0.804  10.048  18.570  0.00  0.00    +0.000 OA
ATOM      9  N   UNL     1       1.231  10.103  19.677  0.00  0.00    +0.000 N 
ATOM     10  H   UNL     1       1.833  10.707  20.227  0.00  0.00    +0.000 HD
BRANCH   7  17
ATOM     11  C   UNL     1       0.743  13.146  18.847  0.00  0.00    +0.000 A 
ATOM     12  C   UNL     1       0.390  14.493  19.036  0.00  0.00    +0.000 A 
ATOM     13  C   UNL     1      -0.773  14.846  19.717  0.00  0.00    +0.000 A 
ATOM     14  C   UNL     1      -1.612  13.859  20.206  0.00  0.00    +0.000 A 
ATOM     15 CL   UNL     1      -3.042  14.290  21.053  0.00  0.00    +0.000 Cl
ATOM     16  C   UNL     1      -1.299  12.519  20.002  0.00  0.00    +0.000 A 
ATOM     17  C   UNL     1      -0.126  12.146  19.310  0.00  0.00    +0.000 A 
BRANCH  11  19
ATOM     18  C   UNL     1       2.974  13.714  18.309  0.00  0.00    +0.000 C 
ATOM     19  O   UNL     1       1.899  12.781  18.199  0.00  0.00    +0.000 OA
ENDBRANCH  11  19
ENDBRANCH   7  17
ENDBRANCH   1   9
BRANCH   4  20
ATOM     20  O   UNL     1       2.708   4.725  19.263  0.00  0.00    +0.000 OA
BRANCH  20  21
ATOM     21  C   UNL     1       4.106   4.546  19.095  0.00  0.00    +0.000 C 
BRANCH  21  22
ATOM     22  C   UNL     1       4.441   3.986  17.710  0.00  0.00    +0.000 C 
ATOM     23  O   UNL     1       3.595   3.328  17.093  0.00  0.00    +0.000 OA
ATOM     24  N   UNL     1       5.664   4.301  17.147  0.00  0.00    +0.000 N 
ATOM     25  C   UNL     1       6.742   5.057  17.790  0.00  0.00    +0.000 C 
ATOM     26  C   UNL     1       7.212   6.193  16.873  0.00  0.00    +0.000 C 
ATOM     27  O   UNL     1       7.573   5.703  15.571  0.00  0.00    +0.000 OA
ATOM     28  C   UNL     1       6.466   5.028  14.949  0.00  0.00    +0.000 C 
ATOM     29  C   UNL     1       5.999   3.841  15.798  0.00  0.00    +0.000 C 
ENDBRANCH  21  22
ENDBRANCH  20  21
ENDBRANCH   4  20
TORSDOF 6
ENDMDL
