MODEL 1
REMARK VINA RESULT:      -7.2      0.000      0.000
REMARK  Name = 
REMARK  5 active torsions:
REMARK  status: ('A' for Active; 'I' for Inactive)
REMARK    1  A    between atoms: C_1  and  N_2
REMARK    2  A    between atoms: C_6  and  N_7
REMARK    3  A    between atoms: C_8  and  C_10
REMARK    4  A    between atoms: C_10  and  C_11
REMARK    5  A    between atoms: C_11  and  N_12
REMARK                            x       y       z     vdW  Elec       q    Type
REMARK                         _______ _______ _______ _____ _____    ______ ____
ROOT
ATOM      1  N   UNL     1       5.227   5.570  18.724  0.00  0.00    +0.000 N 
ATOM      2  C   UNL     1       6.575   5.603  18.971  0.00  0.00    +0.000 C 
ATOM      3  O   UNL     1       7.068   5.225  20.033  0.00  0.00    +0.000 OA
ATOM      4  H   UNL     1       4.857   5.938  17.856  0.00  0.00    +0.000 HD
ENDROOT
BRANCH   1  10
ATOM      5  C   UNL     1       3.094   1.763  18.058  0.00  0.00    +0.000 C 
ATOM      6  N   UNL     1       3.193   3.173  18.395  0.00  0.00    +0.000 N 
ATOM      7  C   UNL     1       2.000   3.983  18.182  0.00  0.00    +0.000 C 
ATOM      8  C   UNL     1       2.230   5.477  18.351  0.00  0.00    +0.000 C 
ATOM      9  C   UNL     1       2.950   5.745  19.666  0.00  0.00    +0.000 C 
ATOM     10  C   UNL     1       4.282   5.004  19.690  0.00  0.00    +0.000 C 
ATOM     11  C   UNL     1       4.120   3.505  19.389  0.00  0.00    +0.000 C 
ATOM     12  O   UNL     1       4.889   2.671  19.871  0.00  0.00    +0.000 OA
ENDBRANCH   1  10
BRANCH   2  13
ATOM     13  C   UNL     1       7.405   6.198  17.857  0.00  0.00    +0.000 C 
BRANCH  13  14
ATOM     14  C   UNL     1       6.483   6.554  16.699  0.00  0.00    +0.000 C 
BRANCH  14  15
ATOM     15  N   UNL     1       6.481   5.567  15.637  0.00  0.00    +0.000 N 
ATOM     16  C   UNL     1       5.455   4.730  15.307  0.00  0.00    +0.000 A 
ATOM     17  C   UNL     1       5.842   4.086  14.157  0.00  0.00    +0.000 A 
ATOM     18  C   UNL     1       7.125   4.590  13.883  0.00  0.00    +0.000 A 
ATOM     19  N   UNL     1       7.526   5.484  14.791  0.00  0.00    +0.000 NA
ENDBRANCH  14  15
ENDBRANCH  13  14
ENDBRANCH   2  13
TORSDOF 4
ENDMDL
MODEL 2
REMARK VINA RESULT:      -7.0      2.045      2.431
REMARK  Name = 
REMARK  5 active torsions:
REMARK  status: ('A' for Active; 'I' for Inactive)
REMARK    1  A    between atoms: C_1  and  N_2
REMARK    2  A    between atoms: C_6  and  N_7
REMARK    3  A    between atoms: C_8  and  C_10
REMARK    4  A    between atoms: C_10  and  C_11
REMARK    5  A    between atoms: C_11  and  N_12
REMARK                            x       y       z     vdW  Elec       q    Type
REMARK                         _______ _______ _______ _____ _____    ______ ____
ROOT
ATOM      1  N   UNL     1       3.922   5.086  18.486  0.00  0.00    +0.000 N 
ATOM      2  C   UNL     1       4.567   6.155  17.920  0.00  0.00    +0.000 C 
ATOM      3  O   UNL     1       3.971   7.070  17.354  0.00  0.00    +0.000 OA
ATOM      4  H   UNL     1       4.452   4.328  18.898  0.00  0.00    +0.000 HD
ENDROOT
BRANCH   1  10
ATOM      5  C   UNL     1       1.713   2.814  21.560  0.00  0.00    +0.000 C 
ATOM      6  N   UNL     1       2.045   3.207  20.201  0.00  0.00    +0.000 N 
ATOM      7  C   UNL     1       1.760   2.238  19.150  0.00  0.00    +0.000 C 
ATOM      8  C   UNL     1       2.320   2.620  17.789  0.00  0.00    +0.000 C 
ATOM      9  C   UNL     1       1.930   4.052  17.452  0.00  0.00    +0.000 C 
ATOM     10  C   UNL     1       2.460   5.002  18.521  0.00  0.00    +0.000 C 
ATOM     11  C   UNL     1       2.031   4.581  19.937  0.00  0.00    +0.000 C 
ATOM     12  O   UNL     1       1.860   5.417  20.826  0.00  0.00    +0.000 OA
ENDBRANCH   1  10
BRANCH   2  13
ATOM     13  C   UNL     1       6.075   6.091  17.993  0.00  0.00    +0.000 C 
BRANCH  13  14
ATOM     14  C   UNL     1       6.524   4.695  17.583  0.00  0.00    +0.000 C 
BRANCH  14  15
ATOM     15  N   UNL     1       6.600   4.510  16.147  0.00  0.00    +0.000 N 
ATOM     16  C   UNL     1       5.836   3.665  15.394  0.00  0.00    +0.000 A 
ATOM     17  C   UNL     1       6.150   3.933  14.084  0.00  0.00    +0.000 A 
ATOM     18  C   UNL     1       7.125   4.942  14.152  0.00  0.00    +0.000 A 
ATOM     19  N   UNL     1       7.415   5.288  15.409  0.00  0.00    +0.000 NA
ENDBRANCH  14  15
ENDBRANCH  13  14
ENDBRANCH   2  13
TORSDOF 4
ENDMDL
MODEL 3
REMARK VINA RESULT:      -6.7      2.432      5.888
REMARK  Name = 
REMARK  5 active torsions:
REMARK  status: ('A' for Active; 'I' for Inactive)
REMARK    1  A    between atoms: C_1  and  N_2
REMARK    2  A    between atoms: C_6  and  N_7
REMARK    3  A    between atoms: C_8  and  C_10
REMARK    4  A    between atoms: C_10  and  C_11
REMARK    5  A    between atoms: C_11  and  N_12
REMARK                            x       y       z     vdW  Elec       q    Type
REMARK                         _______ _______ _______ _____ _____    ______ ____
ROOT
ATOM      1  N   UNL     1       3.765   5.164  17.402  0.00  0.00    +0.000 N 
ATOM      2  C   UNL     1       2.517   5.536  17.829  0.00  0.00    +0.000 C 
ATOM      3  O   UNL     1       2.278   6.645  18.306  0.00  0.00    +0.000 OA
ATOM      4  H   UNL     1       3.931   4.224  17.063  0.00  0.00    +0.000 HD
ENDROOT
BRANCH   1  10
ATOM      5  C   UNL     1       7.099   4.960  14.515  0.00  0.00    +0.000 C 
ATOM      6  N   UNL     1       6.512   5.043  15.842  0.00  0.00    +0.000 N 
ATOM      7  C   UNL     1       7.320   4.548  16.949  0.00  0.00    +0.000 C 
ATOM      8  C   UNL     1       6.574   4.467  18.272  0.00  0.00    +0.000 C 
ATOM      9  C   UNL     1       5.865   5.786  18.547  0.00  0.00    +0.000 C 
ATOM     10  C   UNL     1       4.892   6.100  17.416  0.00  0.00    +0.000 C 
ATOM     11  C   UNL     1       5.572   6.061  16.037  0.00  0.00    +0.000 C 
ATOM     12  O   UNL     1       5.178   6.774  15.112  0.00  0.00    +0.000 OA
ENDBRANCH   1  10
BRANCH   2  13
ATOM     13  C   UNL     1       1.467   4.454  17.724  0.00  0.00    +0.000 C 
BRANCH  13  14
ATOM     14  C   UNL     1       2.101   3.122  18.099  0.00  0.00    +0.000 C 
BRANCH  14  15
ATOM     15  N   UNL     1       2.105   2.864  19.525  0.00  0.00    +0.000 N 
ATOM     16  C   UNL     1       3.204   2.688  20.317  0.00  0.00    +0.000 A 
ATOM     17  C   UNL     1       2.738   2.623  21.607  0.00  0.00    +0.000 A 
ATOM     18  C   UNL     1       1.344   2.752  21.488  0.00  0.00    +0.000 A 
ATOM     19  N   UNL     1       0.950   2.884  20.218  0.00  0.00    +0.000 NA
ENDBRANCH  14  15
ENDBRANCH  13  14
ENDBRANCH   2  13
TORSDOF 4
ENDMDL
MODEL 4
REMARK VINA RESULT:      -6.7      0.887      1.194
REMARK  Name = 
REMARK  5 active torsions:
REMARK  status: ('A' for Active; 'I' for Inactive)
REMARK    1  A    between atoms: C_1  and  N_2
REMARK    2  A    between atoms: C_6  and  N_7
REMARK    3  A    between atoms: C_8  and  C_10
REMARK    4  A    between atoms: C_10  and  C_11
REMARK    5  A    between atoms: C_11  and  N_12
REMARK                            x       y       z     vdW  Elec       q    Type
REMARK                         _______ _______ _______ _____ _____    ______ ____
ROOT
ATOM      1  N   UNL     1       5.221   4.748  18.520  0.00  0.00    +0.000 N 
ATOM      2  C   UNL     1       6.536   5.004  18.812  0.00  0.00    +0.000 C 
ATOM      3  O   UNL     1       6.907   5.417  19.909  0.00  0.00    +0.000 OA
ATOM      4  H   UNL     1       4.950   4.458  17.588  0.00  0.00    +0.000 HD
ENDROOT
BRANCH   1  10
ATOM      5  C   UNL     1       1.773   2.002  18.779  0.00  0.00    +0.000 C 
ATOM      6  N   UNL     1       2.415   3.305  18.718  0.00  0.00    +0.000 N 
ATOM      7  C   UNL     1       1.614   4.407  18.202  0.00  0.00    +0.000 C 
ATOM      8  C   UNL     1       2.402   5.687  17.967  0.00  0.00    +0.000 C 
ATOM      9  C   UNL     1       3.220   6.026  19.206  0.00  0.00    +0.000 C 
ATOM     10  C   UNL     1       4.170   4.878  19.533  0.00  0.00    +0.000 C 
ATOM     11  C   UNL     1       3.437   3.531  19.647  0.00  0.00    +0.000 C 
ATOM     12  O   UNL     1       3.848   2.644  20.397  0.00  0.00    +0.000 OA
ENDBRANCH   1  10
BRANCH   2  13
ATOM     13  C   UNL     1       7.488   4.796  17.658  0.00  0.00    +0.000 C 
BRANCH  13  14
ATOM     14  C   UNL     1       7.124   5.768  16.543  0.00  0.00    +0.000 C 
BRANCH  14  15
ATOM     15  N   UNL     1       6.605   5.118  15.356  0.00  0.00    +0.000 N 
ATOM     16  C   UNL     1       7.278   4.898  14.189  0.00  0.00    +0.000 A 
ATOM     17  C   UNL     1       6.450   4.128  13.410  0.00  0.00    +0.000 A 
ATOM     18  C   UNL     1       5.294   3.951  14.188  0.00  0.00    +0.000 A 
ATOM     19  N   UNL     1       5.376   4.566  15.371  0.00  0.00    +0.000 NA
ENDBRANCH  14  15
ENDBRANCH  13  14
ENDBRANCH   2  13
TORSDOF 4
ENDMDL
MODEL 5
REMARK VINA RESULT:      -6.6      2.104      5.078
REMARK  Name = 
REMARK  5 active torsions:
REMARK  status: ('A' for Active; 'I' for Inactive)
REMARK    1  A    between atoms: C_1  and  N_2
REMARK    2  A    between atoms: C_6  and  N_7
REMARK    3  A    between atoms: C_8  and  C_10
REMARK    4  A    between atoms: C_10  and  C_11
REMARK    5  A    between atoms: C_11  and  N_12
REMARK                            x       y       z     vdW  Elec       q    Type
REMARK                         _______ _______ _______ _____ _____    ______ ____
ROOT
ATOM      1  N   UNL     1       4.660   6.048  18.094  0.00  0.00    +0.000 N 
ATOM      2  C   UNL     1       3.444   6.679  18.149  0.00  0.00    +0.000 C 
ATOM      3  O   UNL     1       3.250   7.795  17.669  0.00  0.00    +0.000 OA
ATOM      4  H   UNL     1       4.792   5.150  18.545  0.00  0.00    +0.000 HD
ENDROOT
BRANCH   1  10
ATOM      5  C   UNL     1       6.258   4.400  14.323  0.00  0.00    +0.000 C 
ATOM      6  N   UNL     1       6.353   4.896  15.685  0.00  0.00    +0.000 N 
ATOM      7  C   UNL     1       7.487   4.434  16.474  0.00  0.00    +0.000 C 
ATOM      8  C   UNL     1       7.416   4.817  17.944  0.00  0.00    +0.000 C 
ATOM      9  C   UNL     1       7.117   6.304  18.077  0.00  0.00    +0.000 C 
ATOM     10  C   UNL     1       5.799   6.635  17.385  0.00  0.00    +0.000 C 
ATOM     11  C   UNL     1       5.769   6.145  15.928  0.00  0.00    +0.000 C 
ATOM     12  O   UNL     1       5.114   6.739  15.069  0.00  0.00    +0.000 OA
ENDBRANCH   1  10
BRANCH   2  13
ATOM     13  C   UNL     1       2.374   5.921  18.900  0.00  0.00    +0.000 C 
BRANCH  13  14
ATOM     14  C   UNL     1       1.968   4.707  18.075  0.00  0.00    +0.000 C 
BRANCH  14  15
ATOM     15  N   UNL     1       2.637   3.485  18.475  0.00  0.00    +0.000 N 
ATOM     16  C   UNL     1       2.636   2.298  17.800  0.00  0.00    +0.000 A 
ATOM     17  C   UNL     1       3.513   1.479  18.466  0.00  0.00    +0.000 A 
ATOM     18  C   UNL     1       3.980   2.257  19.540  0.00  0.00    +0.000 A 
ATOM     19  N   UNL     1       3.437   3.477  19.559  0.00  0.00    +0.000 NA
ENDBRANCH  14  15
ENDBRANCH  13  14
ENDBRANCH   2  13
TORSDOF 4
ENDMDL
MODEL 6
REMARK VINA RESULT:      -6.6      1.274      1.448
REMARK  Name = 
REMARK  5 active torsions:
REMARK  status: ('A' for Active; 'I' for Inactive)
REMARK    1  A    between atoms: C_1  and  N_2
REMARK    2  A    between atoms: C_6  and  N_7
REMARK    3  A    between atoms: C_8  and  C_10
REMARK    4  A    between atoms: C_10  and  C_11
REMARK    5  A    between atoms: C_11  and  N_12
REMARK                            x       y       z     vdW  Elec       q    Type
REMARK                         _______ _______ _______ _____ _____    ______ ____
ROOT
ATOM      1  N   UNL     1       5.705   4.225  18.116  0.00  0.00    +0.000 N 
ATOM      2  C   UNL     1       6.938   4.792  17.915  0.00  0.00    +0.000 C 
ATOM      3  O   UNL     1       7.504   5.473  18.768  0.00  0.00    +0.000 OA
ATOM      4  H   UNL     1       5.250   3.713  17.369  0.00  0.00    +0.000 HD
ENDROOT
BRANCH   1  10
ATOM      5  C   UNL     1       2.173   1.788  19.152  0.00  0.00    +0.000 C 
ATOM      6  N   UNL     1       2.922   3.026  19.014  0.00  0.00    +0.000 N 
ATOM      7  C   UNL     1       2.144   4.248  18.852  0.00  0.00    +0.000 C 
ATOM      8  C   UNL     1       2.980   5.470  18.503  0.00  0.00    +0.000 C 
ATOM      9  C   UNL     1       4.151   5.589  19.468  0.00  0.00    +0.000 C 
ATOM     10  C   UNL     1       5.011   4.331  19.401  0.00  0.00    +0.000 C 
ATOM     11  C   UNL     1       4.186   3.051  19.614  0.00  0.00    +0.000 C 
ATOM     12  O   UNL     1       4.684   2.050  20.130  0.00  0.00    +0.000 OA
ENDBRANCH   1  10
BRANCH   2  13
ATOM     13  C   UNL     1       7.519   4.565  16.539  0.00  0.00    +0.000 C 
BRANCH  13  14
ATOM     14  C   UNL     1       6.608   5.221  15.510  0.00  0.00    +0.000 C 
BRANCH  14  15
ATOM     15  N   UNL     1       6.800   4.719  14.164  0.00  0.00    +0.000 N 
ATOM     16  C   UNL     1       6.103   3.709  13.565  0.00  0.00    +0.000 A 
ATOM     17  C   UNL     1       6.519   3.682  12.257  0.00  0.00    +0.000 A 
ATOM     18  C   UNL     1       7.480   4.703  12.169  0.00  0.00    +0.000 A 
ATOM     19  N   UNL     1       7.667   5.330  13.333  0.00  0.00    +0.000 NA
ENDBRANCH  14  15
ENDBRANCH  13  14
ENDBRANCH   2  13
TORSDOF 4
ENDMDL
MODEL 7
REMARK VINA RESULT:      -6.4      2.019      5.401
REMARK  Name = 
REMARK  5 active torsions:
REMARK  status: ('A' for Active; 'I' for Inactive)
REMARK    1  A    between atoms: C_1  and  N_2
REMARK    2  A    between atoms: C_6  and  N_7
REMARK    3  A    between atoms: C_8  and  C_10
REMARK    4  A    between atoms: C_10  and  C_11
REMARK    5  A    between atoms: C_11  and  N_12
REMARK                            x       y       z     vdW  Elec       q    Type
REMARK                         _______ _______ _______ _____ _____    ______ ____
ROOT
ATOM      1  N   UNL     1       4.849   3.311  17.755  0.00  0.00    +0.000 N 
ATOM      2  C   UNL     1       4.515   2.449  18.769  0.00  0.00    +0.000 C 
ATOM      3  O   UNL     1       4.998   2.528  19.897  0.00  0.00    +0.000 OA
ATOM      4  H   UNL     1       4.466   3.181  16.826  0.00  0.00    +0.000 HD
ENDROOT
BRANCH   1  10
ATOM      5  C   UNL     1       3.512   7.518  17.691  0.00  0.00    +0.000 C 
ATOM      6  N   UNL     1       4.366   6.404  17.316  0.00  0.00    +0.000 N 
ATOM      7  C   UNL     1       5.056   6.508  16.036  0.00  0.00    +0.000 C 
ATOM      8  C   UNL     1       5.760   5.230  15.607  0.00  0.00    +0.000 C 
ATOM      9  C   UNL     1       6.621   4.706  16.748  0.00  0.00    +0.000 C 
ATOM     10  C   UNL     1       5.755   4.440  17.975  0.00  0.00    +0.000 C 
ATOM     11  C   UNL     1       4.916   5.666  18.371  0.00  0.00    +0.000 C 
ATOM     12  O   UNL     1       4.606   5.874  19.545  0.00  0.00    +0.000 OA
ENDBRANCH   1  10
BRANCH   2  13
ATOM     13  C   UNL     1       3.550   1.357  18.373  0.00  0.00    +0.000 C 
BRANCH  13  14
ATOM     14  C   UNL     1       2.196   1.986  18.074  0.00  0.00    +0.000 C 
BRANCH  14  15
ATOM     15  N   UNL     1       1.738   2.894  19.107  0.00  0.00    +0.000 N 
ATOM     16  C   UNL     1       1.446   2.573  20.401  0.00  0.00    +0.000 A 
ATOM     17  C   UNL     1       1.202   3.762  21.044  0.00  0.00    +0.000 A 
ATOM     18  C   UNL     1       1.355   4.741  20.048  0.00  0.00    +0.000 A 
ATOM     19  N   UNL     1       1.667   4.217  18.860  0.00  0.00    +0.000 NA
ENDBRANCH  14  15
ENDBRANCH  13  14
ENDBRANCH   2  13
TORSDOF 4
ENDMDL
MODEL 8
REMARK VINA RESULT:      -6.4      1.448      1.756
REMARK  Name = 
REMARK  5 active torsions:
REMARK  status: ('A' for Active; 'I' for Inactive)
REMARK    1  A    between atoms: C_1  and  N_2
REMARK    2  A    between atoms: C_6  and  N_7
REMARK    3  A    between atoms: C_8  and  C_10
REMARK    4  A    between atoms: C_10  and  C_11
REMARK    5  A    between atoms: C_11  and  N_12
REMARK                            x       y       z     vdW  Elec       q    Type
REMARK                         _______ _______ _______ _____ _____    ______ ____
ROOT
ATOM      1  N   UNL     1       5.397   4.604  17.948  0.00  0.00    +0.000 N 
ATOM      2  C   UNL     1       6.756   4.622  17.765  0.00  0.00    +0.000 C 
ATOM      3  O   UNL     1       7.553   4.688  18.699  0.00  0.00    +0.000 OA
ATOM      4  H   UNL     1       4.773   4.600  17.150  0.00  0.00    +0.000 HD
ENDROOT
BRANCH   1  10
ATOM      5  C   UNL     1       2.195   1.800  19.121  0.00  0.00    +0.000 C 
ATOM      6  N   UNL     1       2.815   3.108  18.992  0.00  0.00    +0.000 N 
ATOM      7  C   UNL     1       1.920   4.257  18.956  0.00  0.00    +0.000 C 
ATOM      8  C   UNL     1       2.611   5.568  18.609  0.00  0.00    +0.000 C 
ATOM      9  C   UNL     1       3.841   5.752  19.486  0.00  0.00    +0.000 C 
ATOM     10  C   UNL     1       4.803   4.585  19.287  0.00  0.00    +0.000 C 
ATOM     11  C   UNL     1       4.116   3.224  19.494  0.00  0.00    +0.000 C 
ATOM     12  O   UNL     1       4.744   2.252  19.917  0.00  0.00    +0.000 OA
ENDBRANCH   1  10
BRANCH   2  13
ATOM     13  C   UNL     1       7.196   4.614  16.320  0.00  0.00    +0.000 C 
BRANCH  13  14
ATOM     14  C   UNL     1       5.959   4.601  15.433  0.00  0.00    +0.000 C 
BRANCH  14  15
ATOM     15  N   UNL     1       6.250   4.347  14.036  0.00  0.00    +0.000 N 
ATOM     16  C   UNL     1       7.336   4.790  13.338  0.00  0.00    +0.000 A 
ATOM     17  C   UNL     1       7.271   4.186  12.106  0.00  0.00    +0.000 A 
ATOM     18  C   UNL     1       6.100   3.410  12.153  0.00  0.00    +0.000 A 
ATOM     19  N   UNL     1       5.464   3.516  13.323  0.00  0.00    +0.000 NA
ENDBRANCH  14  15
ENDBRANCH  13  14
ENDBRANCH   2  13
TORSDOF 4
ENDMDL
MODEL 9
REMARK VINA RESULT:      -6.4      2.391      5.592
REMARK  Name = 
REMARK  5 active torsions:
REMARK  status: ('A' for Active; 'I' for Inactive)
REMARK    1  A    between atoms: C_1  and  N_2
REMARK    2  A    between atoms: C_6  and  N_7
REMARK    3  A    between atoms: C_8  and  C_10
REMARK    4  A    between atoms: C_10  and  C_11
REMARK    5  A    between atoms: C_11  and  N_12
REMARK                            x       y       z     vdW  Elec       q    Type
REMARK                         _______ _______ _______ _____ _____    ______ ____
ROOT
ATOM      1  N   UNL     1       4.503   6.105  17.944  0.00  0.00    +0.000 N 
ATOM      2  C   UNL     1       3.319   6.797  17.969  0.00  0.00    +0.000 C 
ATOM      3  O   UNL     1       3.209   7.944  17.540  0.00  0.00    +0.000 OA
ATOM      4  H   UNL     1       4.564   5.181  18.353  0.00  0.00    +0.000 HD
ENDROOT
BRANCH   1  10
ATOM      5  C   UNL     1       6.342   4.438  14.293  0.00  0.00    +0.000 C 
ATOM      6  N   UNL     1       6.345   4.924  15.663  0.00  0.00    +0.000 N 
ATOM      7  C   UNL     1       7.404   4.427  16.532  0.00  0.00    +0.000 C 
ATOM      8  C   UNL     1       7.229   4.804  17.995  0.00  0.00    +0.000 C 
ATOM      9  C   UNL     1       6.960   6.298  18.117  0.00  0.00    +0.000 C 
ATOM     10  C   UNL     1       5.708   6.667  17.328  0.00  0.00    +0.000 C 
ATOM     11  C   UNL     1       5.777   6.186  15.869  0.00  0.00    +0.000 C 
ATOM     12  O   UNL     1       5.205   6.801  14.968  0.00  0.00    +0.000 OA
ENDBRANCH   1  10
BRANCH   2  13
ATOM     13  C   UNL     1       2.173   6.059  18.620  0.00  0.00    +0.000 C 
BRANCH  13  14
ATOM     14  C   UNL     1       2.470   5.912  20.106  0.00  0.00    +0.000 C 
BRANCH  14  15
ATOM     15  N   UNL     1       2.699   4.541  20.518  0.00  0.00    +0.000 N 
ATOM     16  C   UNL     1       2.043   3.869  21.509  0.00  0.00    +0.000 A 
ATOM     17  C   UNL     1       2.481   2.569  21.443  0.00  0.00    +0.000 A 
ATOM     18  C   UNL     1       3.412   2.561  20.390  0.00  0.00    +0.000 A 
ATOM     19  N   UNL     1       3.560   3.765  19.831  0.00  0.00    +0.000 NA
ENDBRANCH  14  15
ENDBRANCH  13  14
ENDBRANCH   2  13
TORSDOF 4
ENDMDL
