MODEL 1
REMARK VINA RESULT:      -5.4      0.000      0.000
REMARK  Name = 
REMARK  21 active torsions:
REMARK  status: ('A' for Active; 'I' for Inactive)
REMARK    1  A    between atoms: C_1  and  C_2
REMARK    2  A    between atoms: C_2  and  C_3
REMARK    3  A    between atoms: C_2  and  N_4
REMARK    4  A    between atoms: N_4  and  C_5
REMARK    5  A    between atoms: C_5  and  C_6
REMARK    6  A    between atoms: C_6  and  C_7
REMARK    7  A    between atoms: C_7  and  C_8
REMARK    8  A    between atoms: C_8  and  N_9
REMARK    9  A    between atoms: N_9  and  C_10
REMARK   10  A    between atoms: C_10  and  C_11
REMARK   11  A    between atoms: C_11  and  C_12
REMARK   12  A    between atoms: C_12  and  C_13
REMARK   13  A    between atoms: C_13  and  N_14
REMARK   14  A    between atoms: N_14  and  C_15
REMARK   15  A    between atoms: C_15  and  C_16
REMARK   16  A    between atoms: C_16  and  C_17
REMARK   17  A    between atoms: C_17  and  C_18
REMARK   18  A    between atoms: C_18  and  N_19
REMARK   19  A    between atoms: N_19  and  C_20
REMARK   20  A    between atoms: C_20  and  C_21
REMARK   21  A    between atoms: C_20  and  C_22
REMARK                            x       y       z     vdW  Elec       q    Type
REMARK                         _______ _______ _______ _____ _____    ______ ____
ROOT
ATOM      1  C   UNL     1       1.535   3.023  20.842  0.00  0.00    +0.000 C 
ENDROOT
BRANCH   1   2
ATOM      2  C   UNL     1       1.077   3.016  19.390  0.00  0.00    +0.000 C 
BRANCH   2   3
ATOM      3  N   UNL     1       1.555   1.803  18.738  0.00  0.00    +0.000 NA
ATOM      4  H   UNL     1       1.720   1.072  19.429  0.00  0.00    +0.000 HD
BRANCH   3   5
ATOM      5  C   UNL     1       2.770   2.061  17.974  0.00  0.00    +0.000 C 
BRANCH   5   6
ATOM      6  C   UNL     1       2.671   3.419  17.288  0.00  0.00    +0.000 C 
BRANCH   6   7
ATOM      7  C   UNL     1       4.048   4.046  17.030  0.00  0.00    +0.000 C 
BRANCH   7   8
ATOM      8  C   UNL     1       4.168   5.475  17.562  0.00  0.00    +0.000 C 
BRANCH   8   9
ATOM      9  N   UNL     1       5.443   5.674  18.248  0.00  0.00    +0.000 NA
ATOM     10  H   UNL     1       5.416   6.544  18.773  0.00  0.00    +0.000 HD
BRANCH   9  12
ATOM     11  C   UNL     1       7.254   7.087  17.496  0.00  0.00    +0.000 C 
ATOM     12  C   UNL     1       6.600   5.711  17.348  0.00  0.00    +0.000 C 
ATOM     13  C   UNL     1       7.617   4.617  17.664  0.00  0.00    +0.000 C 
ENDBRANCH   9  12
ENDBRANCH   8   9
ENDBRANCH   7   8
ENDBRANCH   6   7
ENDBRANCH   5   6
ENDBRANCH   3   5
ENDBRANCH   2   3
ENDBRANCH   1   2
BRANCH   1  14
ATOM     14  C   UNL     1       2.192   4.359  21.179  0.00  0.00    +0.000 C 
BRANCH  14  15
ATOM     15  C   UNL     1       1.513   5.487  20.415  0.00  0.00    +0.000 C 
BRANCH  15  16
ATOM     16  N   UNL     1       2.310   6.704  20.534  0.00  0.00    +0.000 NA
ATOM     17  H   UNL     1       2.769   6.915  19.648  0.00  0.00    +0.000 HD
BRANCH  16  18
ATOM     18  C   UNL     1       1.458   7.829  20.910  0.00  0.00    +0.000 C 
BRANCH  18  19
ATOM     19  C   UNL     1       1.402   8.801  19.743  0.00  0.00    +0.000 C 
BRANCH  19  20
ATOM     20  C   UNL     1       0.267   9.803  19.931  0.00  0.00    +0.000 C 
BRANCH  20  21
ATOM     21  C   UNL     1       0.591  11.093  19.191  0.00  0.00    +0.000 C 
BRANCH  21  22
ATOM     22  N   UNL     1      -0.309  11.249  18.053  0.00  0.00    +0.000 NA
ATOM     23  H   UNL     1       0.113  10.819  17.229  0.00  0.00    +0.000 HD
BRANCH  22  24
ATOM     24  C   UNL     1      -1.627  10.650  18.285  0.00  0.00    +0.000 C 
ATOM     25  C   UNL     1      -2.696  11.696  18.611  0.00  0.00    +0.000 C 
ATOM     26  C   UNL     1      -2.024   9.885  17.023  0.00  0.00    +0.000 C 
ENDBRANCH  22  24
ENDBRANCH  21  22
ENDBRANCH  20  21
ENDBRANCH  19  20
ENDBRANCH  18  19
ENDBRANCH  16  18
ENDBRANCH  15  16
ENDBRANCH  14  15
ENDBRANCH   1  14
TORSDOF 17
ENDMDL
MODEL 2
REMARK VINA RESULT:      -5.3      3.290      6.609
REMARK  Name = 
REMARK  21 active torsions:
REMARK  status: ('A' for Active; 'I' for Inactive)
REMARK    1  A    between atoms: C_1  and  C_2
REMARK    2  A    between atoms: C_2  and  C_3
REMARK    3  A    between atoms: C_2  and  N_4
REMARK    4  A    between atoms: N_4  and  C_5
REMARK    5  A    between atoms: C_5  and  C_6
REMARK    6  A    between atoms: C_6  and  C_7
REMARK    7  A    between atoms: C_7  and  C_8
REMARK    8  A    between atoms: C_8  and  N_9
REMARK    9  A    between atoms: N_9  and  C_10
REMARK   10  A    between atoms: C_10  and  C_11
REMARK   11  A    between atoms: C_11  and  C_12
REMARK   12  A    between atoms: C_12  and  C_13
REMARK   13  A    between atoms: C_13  and  N_14
REMARK   14  A    between atoms: N_14  and  C_15
REMARK   15  A    between atoms: C_15  and  C_16
REMARK   16  A    between atoms: C_16  and  C_17
REMARK   17  A    between atoms: C_17  and  C_18
REMARK   18  A    between atoms: C_18  and  N_19
REMARK   19  A    between atoms: N_19  and  C_20
REMARK   20  A    between atoms: C_20  and  C_21
REMARK   21  A    between atoms: C_20  and  C_22
REMARK                            x       y       z     vdW  Elec       q    Type
REMARK                         _______ _______ _______ _____ _____    ______ ____
ROOT
ATOM      1  C   UNL     1       5.000   6.925  17.956  0.00  0.00    +0.000 C 
ENDROOT
BRANCH   1   2
ATOM      2  C   UNL     1       5.941   7.382  16.849  0.00  0.00    +0.000 C 
BRANCH   2   3
ATOM      3  N   UNL     1       7.270   6.833  17.088  0.00  0.00    +0.000 NA
ATOM      4  H   UNL     1       7.787   6.764  16.212  0.00  0.00    +0.000 HD
BRANCH   3   5
ATOM      5  C   UNL     1       7.190   5.526  17.732  0.00  0.00    +0.000 C 
BRANCH   5   6
ATOM      6  C   UNL     1       7.503   4.430  16.720  0.00  0.00    +0.000 C 
BRANCH   6   7
ATOM      7  C   UNL     1       6.273   4.027  15.897  0.00  0.00    +0.000 C 
BRANCH   7   8
ATOM      8  C   UNL     1       6.450   4.262  14.396  0.00  0.00    +0.000 C 
BRANCH   8   9
ATOM      9  N   UNL     1       5.867   3.168  13.621  0.00  0.00    +0.000 NA
ATOM     10  H   UNL     1       6.361   2.304  13.826  0.00  0.00    +0.000 HD
BRANCH   9  12
ATOM     11  C   UNL     1       6.844   2.345  11.569  0.00  0.00    +0.000 C 
ATOM     12  C   UNL     1       5.899   3.387  12.171  0.00  0.00    +0.000 C 
ATOM     13  C   UNL     1       4.516   3.263  11.535  0.00  0.00    +0.000 C 
ENDBRANCH   9  12
ENDBRANCH   8   9
ENDBRANCH   7   8
ENDBRANCH   6   7
ENDBRANCH   5   6
ENDBRANCH   3   5
ENDBRANCH   2   3
ENDBRANCH   1   2
BRANCH   1  14
ATOM     14  C   UNL     1       3.685   6.434  17.358  0.00  0.00    +0.000 C 
BRANCH  14  15
ATOM     15  C   UNL     1       2.558   6.577  18.371  0.00  0.00    +0.000 C 
BRANCH  15  16
ATOM     16  N   UNL     1       3.090   6.398  19.719  0.00  0.00    +0.000 NA
ATOM     17  H   UNL     1       2.618   7.023  20.372  0.00  0.00    +0.000 HD
BRANCH  16  18
ATOM     18  C   UNL     1       2.900   5.018  20.156  0.00  0.00    +0.000 C 
BRANCH  18  19
ATOM     19  C   UNL     1       1.503   4.886  20.738  0.00  0.00    +0.000 C 
BRANCH  19  20
ATOM     20  C   UNL     1       0.762   3.714  20.100  0.00  0.00    +0.000 C 
BRANCH  20  21
ATOM     21  C   UNL     1       1.648   2.476  20.115  0.00  0.00    +0.000 C 
BRANCH  21  22
ATOM     22  N   UNL     1       1.507   1.753  18.855  0.00  0.00    +0.000 NA
ATOM     23  H   UNL     1       0.711   2.129  18.339  0.00  0.00    +0.000 HD
BRANCH  22  24
ATOM     24  C   UNL     1       2.706   1.835  18.016  0.00  0.00    +0.000 C 
ATOM     25  C   UNL     1       2.697   3.061  17.100  0.00  0.00    +0.000 C 
ATOM     26  C   UNL     1       3.923   1.891  18.939  0.00  0.00    +0.000 C 
ENDBRANCH  22  24
ENDBRANCH  21  22
ENDBRANCH  20  21
ENDBRANCH  19  20
ENDBRANCH  18  19
ENDBRANCH  16  18
ENDBRANCH  15  16
ENDBRANCH  14  15
ENDBRANCH   1  14
TORSDOF 17
ENDMDL
MODEL 3
REMARK VINA RESULT:      -5.2      1.275      7.233
REMARK  Name = 
REMARK  21 active torsions:
REMARK  status: ('A' for Active; 'I' for Inactive)
REMARK    1  A    between atoms: C_1  and  C_2
REMARK    2  A    between atoms: C_2  and  C_3
REMARK    3  A    between atoms: C_2  and  N_4
REMARK    4  A    between atoms: N_4  and  C_5
REMARK    5  A    between atoms: C_5  and  C_6
REMARK    6  A    between atoms: C_6  and  C_7
REMARK    7  A    between atoms: C_7  and  C_8
REMARK    8  A    between atoms: C_8  and  N_9
REMARK    9  A    between atoms: N_9  and  C_10
REMARK   10  A    between atoms: C_10  and  C_11
REMARK   11  A    between atoms: C_11  and  C_12
REMARK   12  A    between atoms: C_12  and  C_13
REMARK   13  A    between atoms: C_13  and  N_14
REMARK   14  A    between atoms: N_14  and  C_15
REMARK   15  A    between atoms: C_15  and  C_16
REMARK   16  A    between atoms: C_16  and  C_17
REMARK   17  A    between atoms: C_17  and  C_18
REMARK   18  A    between atoms: C_18  and  N_19
REMARK   19  A    between atoms: N_19  and  C_20
REMARK   20  A    between atoms: C_20  and  C_21
REMARK   21  A    between atoms: C_20  and  C_22
REMARK                            x       y       z     vdW  Elec       q    Type
REMARK                         _______ _______ _______ _____ _____    ______ ____
ROOT
ATOM      1  C   UNL     1       1.238   4.294  20.336  0.00  0.00    +0.000 C 
ENDROOT
BRANCH   1   2
ATOM      2  C   UNL     1       2.183   5.477  20.166  0.00  0.00    +0.000 C 
BRANCH   2   3
ATOM      3  N   UNL     1       1.660   6.622  20.899  0.00  0.00    +0.000 NA
ATOM      4  H   UNL     1       0.647   6.555  20.984  0.00  0.00    +0.000 HD
BRANCH   3   5
ATOM      5  C   UNL     1       2.032   7.875  20.250  0.00  0.00    +0.000 C 
BRANCH   5   6
ATOM      6  C   UNL     1       2.262   7.639  18.762  0.00  0.00    +0.000 C 
BRANCH   6   7
ATOM      7  C   UNL     1       1.629   8.731  17.891  0.00  0.00    +0.000 C 
BRANCH   7   8
ATOM      8  C   UNL     1       1.475  10.068  18.618  0.00  0.00    +0.000 C 
BRANCH   8   9
ATOM      9  N   UNL     1       0.448  10.894  17.986  0.00  0.00    +0.000 NA
ATOM     10  H   UNL     1       0.804  11.837  17.853  0.00  0.00    +0.000 HD
BRANCH   9  12
ATOM     11  C   UNL     1      -1.825  10.077  18.050  0.00  0.00    +0.000 C 
ATOM     12  C   UNL     1      -0.801  10.973  18.750  0.00  0.00    +0.000 C 
ATOM     13  C   UNL     1      -0.624  10.525  20.199  0.00  0.00    +0.000 C 
ENDBRANCH   9  12
ENDBRANCH   8   9
ENDBRANCH   7   8
ENDBRANCH   6   7
ENDBRANCH   5   6
ENDBRANCH   3   5
ENDBRANCH   2   3
ENDBRANCH   1   2
BRANCH   1  14
ATOM     14  C   UNL     1       2.033   3.025  20.628  0.00  0.00    +0.000 C 
BRANCH  14  15
ATOM     15  C   UNL     1       2.264   2.240  19.344  0.00  0.00    +0.000 C 
BRANCH  15  16
ATOM     16  N   UNL     1       3.586   2.555  18.813  0.00  0.00    +0.000 NA
ATOM     17  H   UNL     1       4.130   1.701  18.685  0.00  0.00    +0.000 HD
BRANCH  16  18
ATOM     18  C   UNL     1       3.462   3.238  17.527  0.00  0.00    +0.000 C 
BRANCH  18  19
ATOM     19  C   UNL     1       4.559   4.285  17.431  0.00  0.00    +0.000 C 
BRANCH  19  20
ATOM     20  C   UNL     1       5.076   4.393  16.000  0.00  0.00    +0.000 C 
BRANCH  20  21
ATOM     21  C   UNL     1       6.332   5.253  15.971  0.00  0.00    +0.000 C 
BRANCH  21  22
ATOM     22  N   UNL     1       6.247   6.286  16.998  0.00  0.00    +0.000 NA
ATOM     23  H   UNL     1       5.681   5.942  17.776  0.00  0.00    +0.000 HD
BRANCH  22  24
ATOM     24  C   UNL     1       7.561   6.694  17.505  0.00  0.00    +0.000 C 
ATOM     25  C   UNL     1       7.694   8.213  17.631  0.00  0.00    +0.000 C 
ATOM     26  C   UNL     1       7.758   6.044  18.875  0.00  0.00    +0.000 C 
ENDBRANCH  22  24
ENDBRANCH  21  22
ENDBRANCH  20  21
ENDBRANCH  19  20
ENDBRANCH  18  19
ENDBRANCH  16  18
ENDBRANCH  15  16
ENDBRANCH  14  15
ENDBRANCH   1  14
TORSDOF 17
ENDMDL
MODEL 4
REMARK VINA RESULT:      -5.2      1.305      7.567
REMARK  Name = 
REMARK  21 active torsions:
REMARK  status: ('A' for Active; 'I' for Inactive)
REMARK    1  A    between atoms: C_1  and  C_2
REMARK    2  A    between atoms: C_2  and  C_3
REMARK    3  A    between atoms: C_2  and  N_4
REMARK    4  A    between atoms: N_4  and  C_5
REMARK    5  A    between atoms: C_5  and  C_6
REMARK    6  A    between atoms: C_6  and  C_7
REMARK    7  A    between atoms: C_7  and  C_8
REMARK    8  A    between atoms: C_8  and  N_9
REMARK    9  A    between atoms: N_9  and  C_10
REMARK   10  A    between atoms: C_10  and  C_11
REMARK   11  A    between atoms: C_11  and  C_12
REMARK   12  A    between atoms: C_12  and  C_13
REMARK   13  A    between atoms: C_13  and  N_14
REMARK   14  A    between atoms: N_14  and  C_15
REMARK   15  A    between atoms: C_15  and  C_16
REMARK   16  A    between atoms: C_16  and  C_17
REMARK   17  A    between atoms: C_17  and  C_18
REMARK   18  A    between atoms: C_18  and  N_19
REMARK   19  A    between atoms: N_19  and  C_20
REMARK   20  A    between atoms: C_20  and  C_21
REMARK   21  A    between atoms: C_20  and  C_22
REMARK                            x       y       z     vdW  Elec       q    Type
REMARK                         _______ _______ _______ _____ _____    ______ ____
ROOT
ATOM      1  C   UNL     1       1.647   5.985  20.485  0.00  0.00    +0.000 C 
ENDROOT
BRANCH   1   2
ATOM      2  C   UNL     1       2.925   6.146  19.671  0.00  0.00    +0.000 C 
BRANCH   2   3
ATOM      3  N   UNL     1       2.584   6.491  18.298  0.00  0.00    +0.000 NA
ATOM      4  H   UNL     1       3.125   5.926  17.645  0.00  0.00    +0.000 HD
BRANCH   3   5
ATOM      5  C   UNL     1       2.806   7.911  18.042  0.00  0.00    +0.000 C 
BRANCH   5   6
ATOM      6  C   UNL     1       1.471   8.610  17.811  0.00  0.00    +0.000 C 
BRANCH   6   7
ATOM      7  C   UNL     1       1.310   9.864  18.679  0.00  0.00    +0.000 C 
BRANCH   7   8
ATOM      8  C   UNL     1      -0.144  10.322  18.812  0.00  0.00    +0.000 C 
BRANCH   8   9
ATOM      9  N   UNL     1      -0.787  10.413  17.503  0.00  0.00    +0.000 NA
ATOM     10  H   UNL     1      -0.246  11.026  16.899  0.00  0.00    +0.000 HD
BRANCH   9  12
ATOM     11  C   UNL     1      -3.094   9.692  17.557  0.00  0.00    +0.000 C 
ATOM     12  C   UNL     1      -2.166  10.910  17.554  0.00  0.00    +0.000 C 
ATOM     13  C   UNL     1      -2.429  11.766  18.790  0.00  0.00    +0.000 C 
ENDBRANCH   9  12
ENDBRANCH   8   9
ENDBRANCH   7   8
ENDBRANCH   6   7
ENDBRANCH   5   6
ENDBRANCH   3   5
ENDBRANCH   2   3
ENDBRANCH   1   2
BRANCH   1  14
ATOM     14  C   UNL     1       1.111   4.563  20.345  0.00  0.00    +0.000 C 
BRANCH  14  15
ATOM     15  C   UNL     1       2.044   3.577  21.033  0.00  0.00    +0.000 C 
BRANCH  15  16
ATOM     16  N   UNL     1       2.142   2.360  20.234  0.00  0.00    +0.000 NA
ATOM     17  H   UNL     1       1.515   1.644  20.601  0.00  0.00    +0.000 HD
BRANCH  16  18
ATOM     18  C   UNL     1       1.785   2.640  18.845  0.00  0.00    +0.000 C 
BRANCH  18  19
ATOM     19  C   UNL     1       2.944   2.222  17.957  0.00  0.00    +0.000 C 
BRANCH  19  20
ATOM     20  C   UNL     1       4.103   3.205  18.085  0.00  0.00    +0.000 C 
BRANCH  20  21
ATOM     21  C   UNL     1       4.538   3.671  16.702  0.00  0.00    +0.000 C 
BRANCH  21  22
ATOM     22  N   UNL     1       4.878   5.089  16.743  0.00  0.00    +0.000 NA
ATOM     23  H   UNL     1       4.086   5.615  17.117  0.00  0.00    +0.000 HD
BRANCH  22  24
ATOM     24  C   UNL     1       6.065   5.366  17.557  0.00  0.00    +0.000 C 
ATOM     25  C   UNL     1       7.280   4.546  17.118  0.00  0.00    +0.000 C 
ATOM     26  C   UNL     1       6.380   6.857  17.438  0.00  0.00    +0.000 C 
ENDBRANCH  22  24
ENDBRANCH  21  22
ENDBRANCH  20  21
ENDBRANCH  19  20
ENDBRANCH  18  19
ENDBRANCH  16  18
ENDBRANCH  15  16
ENDBRANCH  14  15
ENDBRANCH   1  14
TORSDOF 17
ENDMDL
MODEL 5
REMARK VINA RESULT:      -5.1      1.282      1.722
REMARK  Name = 
REMARK  21 active torsions:
REMARK  status: ('A' for Active; 'I' for Inactive)
REMARK    1  A    between atoms: C_1  and  C_2
REMARK    2  A    between atoms: C_2  and  C_3
REMARK    3  A    between atoms: C_2  and  N_4
REMARK    4  A    between atoms: N_4  and  C_5
REMARK    5  A    between atoms: C_5  and  C_6
REMARK    6  A    between atoms: C_6  and  C_7
REMARK    7  A    between atoms: C_7  and  C_8
REMARK    8  A    between atoms: C_8  and  N_9
REMARK    9  A    between atoms: N_9  and  C_10
REMARK   10  A    between atoms: C_10  and  C_11
REMARK   11  A    between atoms: C_11  and  C_12
REMARK   12  A    between atoms: C_12  and  C_13
REMARK   13  A    between atoms: C_13  and  N_14
REMARK   14  A    between atoms: N_14  and  C_15
REMARK   15  A    between atoms: C_15  and  C_16
REMARK   16  A    between atoms: C_16  and  C_17
REMARK   17  A    between atoms: C_17  and  C_18
REMARK   18  A    between atoms: C_18  and  N_19
REMARK   19  A    between atoms: N_19  and  C_20
REMARK   20  A    between atoms: C_20  and  C_21
REMARK   21  A    between atoms: C_20  and  C_22
REMARK                            x       y       z     vdW  Elec       q    Type
REMARK                         _______ _______ _______ _____ _____    ______ ____
ROOT
ATOM      1  C   UNL     1       1.641   3.978  20.714  0.00  0.00    +0.000 C 
ENDROOT
BRANCH   1   2
ATOM      2  C   UNL     1       1.177   2.830  19.826  0.00  0.00    +0.000 C 
BRANCH   2   3
ATOM      3  N   UNL     1       1.369   3.192  18.428  0.00  0.00    +0.000 NA
ATOM      4  H   UNL     1       0.480   3.171  17.932  0.00  0.00    +0.000 HD
BRANCH   3   5
ATOM      5  C   UNL     1       2.329   2.303  17.783  0.00  0.00    +0.000 C 
BRANCH   5   6
ATOM      6  C   UNL     1       3.747   2.690  18.188  0.00  0.00    +0.000 C 
BRANCH   6   7
ATOM      7  C   UNL     1       4.122   4.104  17.727  0.00  0.00    +0.000 C 
BRANCH   7   8
ATOM      8  C   UNL     1       5.177   4.767  18.614  0.00  0.00    +0.000 C 
BRANCH   8   9
ATOM      9  N   UNL     1       6.463   4.081  18.503  0.00  0.00    +0.000 NA
ATOM     10  H   UNL     1       6.821   3.877  19.432  0.00  0.00    +0.000 HD
BRANCH   9  12
ATOM     11  C   UNL     1       7.259   4.582  16.277  0.00  0.00    +0.000 C 
ATOM     12  C   UNL     1       7.478   4.842  17.770  0.00  0.00    +0.000 C 
ATOM     13  C   UNL     1       7.398   6.340  18.053  0.00  0.00    +0.000 C 
ENDBRANCH   9  12
ENDBRANCH   8   9
ENDBRANCH   7   8
ENDBRANCH   6   7
ENDBRANCH   5   6
ENDBRANCH   3   5
ENDBRANCH   2   3
ENDBRANCH   1   2
BRANCH   1  14
ATOM     14  C   UNL     1       1.546   5.299  19.955  0.00  0.00    +0.000 C 
BRANCH  14  15
ATOM     15  C   UNL     1       1.583   6.469  20.928  0.00  0.00    +0.000 C 
BRANCH  15  16
ATOM     16  N   UNL     1       2.014   7.673  20.224  0.00  0.00    +0.000 NA
ATOM     17  H   UNL     1       2.775   8.127  20.729  0.00  0.00    +0.000 HD
BRANCH  16  18
ATOM     18  C   UNL     1       2.470   7.334  18.878  0.00  0.00    +0.000 C 
BRANCH  18  19
ATOM     19  C   UNL     1       1.792   8.267  17.890  0.00  0.00    +0.000 C 
BRANCH  19  20
ATOM     20  C   UNL     1       2.390   9.668  17.976  0.00  0.00    +0.000 C 
BRANCH  20  21
ATOM     21  C   UNL     1       1.356  10.635  18.537  0.00  0.00    +0.000 C 
BRANCH  21  22
ATOM     22  N   UNL     1       0.074   9.954  18.687  0.00  0.00    +0.000 NA
ATOM     23  H   UNL     1      -0.051   9.683  19.664  0.00  0.00    +0.000 HD
BRANCH  22  24
ATOM     24  C   UNL     1      -1.062  10.782  18.271  0.00  0.00    +0.000 C 
ATOM     25  C   UNL     1      -2.207   9.953  17.684  0.00  0.00    +0.000 C 
ATOM     26  C   UNL     1      -1.558  11.550  19.496  0.00  0.00    +0.000 C 
ENDBRANCH  22  24
ENDBRANCH  21  22
ENDBRANCH  20  21
ENDBRANCH  19  20
ENDBRANCH  18  19
ENDBRANCH  16  18
ENDBRANCH  15  16
ENDBRANCH  14  15
ENDBRANCH   1  14
TORSDOF 17
ENDMDL
MODEL 6
REMARK VINA RESULT:      -5.1      3.915      7.802
REMARK  Name = 
REMARK  21 active torsions:
REMARK  status: ('A' for Active; 'I' for Inactive)
REMARK    1  A    between atoms: C_1  and  C_2
REMARK    2  A    between atoms: C_2  and  C_3
REMARK    3  A    between atoms: C_2  and  N_4
REMARK    4  A    between atoms: N_4  and  C_5
REMARK    5  A    between atoms: C_5  and  C_6
REMARK    6  A    between atoms: C_6  and  C_7
REMARK    7  A    between atoms: C_7  and  C_8
REMARK    8  A    between atoms: C_8  and  N_9
REMARK    9  A    between atoms: N_9  and  C_10
REMARK   10  A    between atoms: C_10  and  C_11
REMARK   11  A    between atoms: C_11  and  C_12
REMARK   12  A    between atoms: C_12  and  C_13
REMARK   13  A    between atoms: C_13  and  N_14
REMARK   14  A    between atoms: N_14  and  C_15
REMARK   15  A    between atoms: C_15  and  C_16
REMARK   16  A    between atoms: C_16  and  C_17
REMARK   17  A    between atoms: C_17  and  C_18
REMARK   18  A    between atoms: C_18  and  N_19
REMARK   19  A    between atoms: N_19  and  C_20
REMARK   20  A    between atoms: C_20  and  C_21
REMARK   21  A    between atoms: C_20  and  C_22
REMARK                            x       y       z     vdW  Elec       q    Type
REMARK                         _______ _______ _______ _____ _____    ______ ____
ROOT
ATOM      1  C   UNL     1       4.131   7.135  17.553  0.00  0.00    +0.000 C 
ENDROOT
BRANCH   1   2
ATOM      2  C   UNL     1       3.431   5.845  17.961  0.00  0.00    +0.000 C 
BRANCH   2   3
ATOM      3  N   UNL     1       4.297   5.086  18.853  0.00  0.00    +0.000 NA
ATOM      4  H   UNL     1       5.162   5.596  19.026  0.00  0.00    +0.000 HD
BRANCH   3   5
ATOM      5  C   UNL     1       4.589   3.766  18.304  0.00  0.00    +0.000 C 
BRANCH   5   6
ATOM      6  C   UNL     1       3.715   3.510  17.082  0.00  0.00    +0.000 C 
BRANCH   6   7
ATOM      7  C   UNL     1       2.642   2.445  17.343  0.00  0.00    +0.000 C 
BRANCH   7   8
ATOM      8  C   UNL     1       2.790   1.761  18.703  0.00  0.00    +0.000 C 
BRANCH   8   9
ATOM      9  N   UNL     1       1.624   2.013  19.547  0.00  0.00    +0.000 NA
ATOM     10  H   UNL     1       0.840   2.301  18.969  0.00  0.00    +0.000 HD
BRANCH   9  12
ATOM     11  C   UNL     1       0.914   4.210  20.260  0.00  0.00    +0.000 C 
ATOM     12  C   UNL     1       1.846   3.037  20.573  0.00  0.00    +0.000 C 
ATOM     13  C   UNL     1       1.572   2.517  21.982  0.00  0.00    +0.000 C 
ENDBRANCH   9  12
ENDBRANCH   8   9
ENDBRANCH   7   8
ENDBRANCH   6   7
ENDBRANCH   5   6
ENDBRANCH   3   5
ENDBRANCH   2   3
ENDBRANCH   1   2
BRANCH   1  14
ATOM     14  C   UNL     1       5.246   6.834  16.556  0.00  0.00    +0.000 C 
BRANCH  14  15
ATOM     15  C   UNL     1       6.601   6.890  17.247  0.00  0.00    +0.000 C 
BRANCH  15  16
ATOM     16  N   UNL     1       7.167   8.228  17.100  0.00  0.00    +0.000 NA
ATOM     17  H   UNL     1       6.451   8.936  17.262  0.00  0.00    +0.000 HD
BRANCH  16  18
ATOM     18  C   UNL     1       8.255   8.422  18.056  0.00  0.00    +0.000 C 
BRANCH  18  19
ATOM     19  C   UNL     1       8.517   9.912  18.190  0.00  0.00    +0.000 C 
BRANCH  19  20
ATOM     20  C   UNL     1       9.337  10.203  19.444  0.00  0.00    +0.000 C 
BRANCH  20  21
ATOM     21  C   UNL     1       9.907  11.613  19.369  0.00  0.00    +0.000 C 
BRANCH  21  22
ATOM     22  N   UNL     1      10.080  12.002  17.974  0.00  0.00    +0.000 NA
ATOM     23  H   UNL     1       9.181  11.942  17.493  0.00  0.00    +0.000 HD
BRANCH  22  24
ATOM     24  C   UNL     1      10.614  13.360  17.824  0.00  0.00    +0.000 C 
ATOM     25  C   UNL     1      11.357  13.838  19.074  0.00  0.00    +0.000 C 
ATOM     26  C   UNL     1      11.565  13.361  16.627  0.00  0.00    +0.000 C 
ENDBRANCH  22  24
ENDBRANCH  21  22
ENDBRANCH  20  21
ENDBRANCH  19  20
ENDBRANCH  18  19
ENDBRANCH  16  18
ENDBRANCH  15  16
ENDBRANCH  14  15
ENDBRANCH   1  14
TORSDOF 17
ENDMDL
MODEL 7
REMARK VINA RESULT:      -5.1      4.278      7.849
REMARK  Name = 
REMARK  21 active torsions:
REMARK  status: ('A' for Active; 'I' for Inactive)
REMARK    1  A    between atoms: C_1  and  C_2
REMARK    2  A    between atoms: C_2  and  C_3
REMARK    3  A    between atoms: C_2  and  N_4
REMARK    4  A    between atoms: N_4  and  C_5
REMARK    5  A    between atoms: C_5  and  C_6
REMARK    6  A    between atoms: C_6  and  C_7
REMARK    7  A    between atoms: C_7  and  C_8
REMARK    8  A    between atoms: C_8  and  N_9
REMARK    9  A    between atoms: N_9  and  C_10
REMARK   10  A    between atoms: C_10  and  C_11
REMARK   11  A    between atoms: C_11  and  C_12
REMARK   12  A    between atoms: C_12  and  C_13
REMARK   13  A    between atoms: C_13  and  N_14
REMARK   14  A    between atoms: N_14  and  C_15
REMARK   15  A    between atoms: C_15  and  C_16
REMARK   16  A    between atoms: C_16  and  C_17
REMARK   17  A    between atoms: C_17  and  C_18
REMARK   18  A    between atoms: C_18  and  N_19
REMARK   19  A    between atoms: N_19  and  C_20
REMARK   20  A    between atoms: C_20  and  C_21
REMARK   21  A    between atoms: C_20  and  C_22
REMARK                            x       y       z     vdW  Elec       q    Type
REMARK                         _______ _______ _______ _____ _____    ______ ____
ROOT
ATOM      1  C   UNL     1       7.157   4.843  18.744  0.00  0.00    +0.000 C 
ENDROOT
BRANCH   1   2
ATOM      2  C   UNL     1       5.637   4.852  18.648  0.00  0.00    +0.000 C 
BRANCH   2   3
ATOM      3  N   UNL     1       5.168   3.520  18.288  0.00  0.00    +0.000 NA
ATOM      4  H   UNL     1       5.945   2.947  17.965  0.00  0.00    +0.000 HD
BRANCH   3   5
ATOM      5  C   UNL     1       4.129   3.588  17.265  0.00  0.00    +0.000 C 
BRANCH   5   6
ATOM      6  C   UNL     1       3.039   4.561  17.699  0.00  0.00    +0.000 C 
BRANCH   6   7
ATOM      7  C   UNL     1       1.646   3.920  17.691  0.00  0.00    +0.000 C 
BRANCH   7   8
ATOM      8  C   UNL     1       1.449   2.892  18.806  0.00  0.00    +0.000 C 
BRANCH   8   9
ATOM      9  N   UNL     1       0.735   3.476  19.940  0.00  0.00    +0.000 NA
ATOM     10  H   UNL     1       0.340   4.372  19.668  0.00  0.00    +0.000 HD
BRANCH   9  12
ATOM     11  C   UNL     1       2.644   2.584  21.125  0.00  0.00    +0.000 C 
ATOM     12  C   UNL     1       1.573   3.678  21.126  0.00  0.00    +0.000 C 
ATOM     13  C   UNL     1       2.235   5.053  21.143  0.00  0.00    +0.000 C 
ENDBRANCH   9  12
ENDBRANCH   8   9
ENDBRANCH   7   8
ENDBRANCH   6   7
ENDBRANCH   5   6
ENDBRANCH   3   5
ENDBRANCH   2   3
ENDBRANCH   1   2
BRANCH   1  14
ATOM     14  C   UNL     1       7.700   6.263  18.608  0.00  0.00    +0.000 C 
BRANCH  14  15
ATOM     15  C   UNL     1       7.020   6.979  17.450  0.00  0.00    +0.000 C 
BRANCH  15  16
ATOM     16  N   UNL     1       7.715   8.232  17.176  0.00  0.00    +0.000 NA
ATOM     17  H   UNL     1       7.045   8.968  16.950  0.00  0.00    +0.000 HD
BRANCH  16  18
ATOM     18  C   UNL     1       8.496   8.640  18.342  0.00  0.00    +0.000 C 
BRANCH  18  19
ATOM     19  C   UNL     1       8.718  10.141  18.272  0.00  0.00    +0.000 C 
BRANCH  19  20
ATOM     20  C   UNL     1       9.607  10.607  19.422  0.00  0.00    +0.000 C 
BRANCH  20  21
ATOM     21  C   UNL     1       9.523  12.122  19.554  0.00  0.00    +0.000 C 
BRANCH  21  22
ATOM     22  N   UNL     1      10.746  12.730  19.039  0.00  0.00    +0.000 NA
ATOM     23  H   UNL     1      10.686  12.799  18.022  0.00  0.00    +0.000 HD
BRANCH  22  24
ATOM     24  C   UNL     1      10.997  14.063  19.597  0.00  0.00    +0.000 C 
ATOM     25  C   UNL     1      10.396  15.178  18.738  0.00  0.00    +0.000 C 
ATOM     26  C   UNL     1      10.388  14.107  20.998  0.00  0.00    +0.000 C 
ENDBRANCH  22  24
ENDBRANCH  21  22
ENDBRANCH  20  21
ENDBRANCH  19  20
ENDBRANCH  18  19
ENDBRANCH  16  18
ENDBRANCH  15  16
ENDBRANCH  14  15
ENDBRANCH   1  14
TORSDOF 17
ENDMDL
MODEL 8
REMARK VINA RESULT:      -5.1      1.667      7.228
REMARK  Name = 
REMARK  21 active torsions:
REMARK  status: ('A' for Active; 'I' for Inactive)
REMARK    1  A    between atoms: C_1  and  C_2
REMARK    2  A    between atoms: C_2  and  C_3
REMARK    3  A    between atoms: C_2  and  N_4
REMARK    4  A    between atoms: N_4  and  C_5
REMARK    5  A    between atoms: C_5  and  C_6
REMARK    6  A    between atoms: C_6  and  C_7
REMARK    7  A    between atoms: C_7  and  C_8
REMARK    8  A    between atoms: C_8  and  N_9
REMARK    9  A    between atoms: N_9  and  C_10
REMARK   10  A    between atoms: C_10  and  C_11
REMARK   11  A    between atoms: C_11  and  C_12
REMARK   12  A    between atoms: C_12  and  C_13
REMARK   13  A    between atoms: C_13  and  N_14
REMARK   14  A    between atoms: N_14  and  C_15
REMARK   15  A    between atoms: C_15  and  C_16
REMARK   16  A    between atoms: C_16  and  C_17
REMARK   17  A    between atoms: C_17  and  C_18
REMARK   18  A    between atoms: C_18  and  N_19
REMARK   19  A    between atoms: N_19  and  C_20
REMARK   20  A    between atoms: C_20  and  C_21
REMARK   21  A    between atoms: C_20  and  C_22
REMARK                            x       y       z     vdW  Elec       q    Type
REMARK                         _______ _______ _______ _____ _____    ______ ____
ROOT
ATOM      1  C   UNL     1       2.580   3.693  20.594  0.00  0.00    +0.000 C 
ENDROOT
BRANCH   1   2
ATOM      2  C   UNL     1       1.986   5.093  20.672  0.00  0.00    +0.000 C 
BRANCH   2   3
ATOM      3  N   UNL     1       2.942   6.054  20.137  0.00  0.00    +0.000 NA
ATOM      4  H   UNL     1       3.647   6.279  20.838  0.00  0.00    +0.000 HD
BRANCH   3   5
ATOM      5  C   UNL     1       2.270   7.269  19.688  0.00  0.00    +0.000 C 
BRANCH   5   6
ATOM      6  C   UNL     1       2.822   7.694  18.332  0.00  0.00    +0.000 C 
BRANCH   6   7
ATOM      7  C   UNL     1       1.850   8.597  17.562  0.00  0.00    +0.000 C 
BRANCH   7   8
ATOM      8  C   UNL     1       1.513   9.890  18.305  0.00  0.00    +0.000 C 
BRANCH   8   9
ATOM      9  N   UNL     1       0.154  10.333  17.998  0.00  0.00    +0.000 NA
ATOM     10  H   UNL     1       0.188  11.112  17.347  0.00  0.00    +0.000 HD
BRANCH   9  12
ATOM     11  C   UNL     1       0.291  11.643  20.025  0.00  0.00    +0.000 C 
ATOM     12  C   UNL     1      -0.614  10.746  19.177  0.00  0.00    +0.000 C 
ATOM     13  C   UNL     1      -1.889  11.499  18.804  0.00  0.00    +0.000 C 
ENDBRANCH   9  12
ENDBRANCH   8   9
ENDBRANCH   7   8
ENDBRANCH   6   7
ENDBRANCH   5   6
ENDBRANCH   3   5
ENDBRANCH   2   3
ENDBRANCH   1   2
BRANCH   1  14
ATOM     14  C   UNL     1       3.870   3.714  19.780  0.00  0.00    +0.000 C 
BRANCH  14  15
ATOM     15  C   UNL     1       4.147   2.337  19.195  0.00  0.00    +0.000 C 
BRANCH  15  16
ATOM     16  N   UNL     1       4.141   2.417  17.738  0.00  0.00    +0.000 NA
ATOM     17  H   UNL     1       3.205   2.232  17.377  0.00  0.00    +0.000 HD
BRANCH  16  18
ATOM     18  C   UNL     1       4.564   3.747  17.305  0.00  0.00    +0.000 C 
BRANCH  18  19
ATOM     19  C   UNL     1       5.310   3.609  15.988  0.00  0.00    +0.000 C 
BRANCH  19  20
ATOM     20  C   UNL     1       5.551   4.979  15.361  0.00  0.00    +0.000 C 
BRANCH  20  21
ATOM     21  C   UNL     1       5.295   6.069  16.393  0.00  0.00    +0.000 C 
BRANCH  21  22
ATOM     22  N   UNL     1       6.438   6.975  16.448  0.00  0.00    +0.000 NA
ATOM     23  H   UNL     1       6.167   7.883  16.066  0.00  0.00    +0.000 HD
BRANCH  22  24
ATOM     24  C   UNL     1       6.952   7.161  17.808  0.00  0.00    +0.000 C 
ATOM     25  C   UNL     1       7.583   5.887  18.375  0.00  0.00    +0.000 C 
ATOM     26  C   UNL     1       7.995   8.278  17.768  0.00  0.00    +0.000 C 
ENDBRANCH  22  24
ENDBRANCH  21  22
ENDBRANCH  20  21
ENDBRANCH  19  20
ENDBRANCH  18  19
ENDBRANCH  16  18
ENDBRANCH  15  16
ENDBRANCH  14  15
ENDBRANCH   1  14
TORSDOF 17
ENDMDL
MODEL 9
REMARK VINA RESULT:      -5.0      1.086      7.217
REMARK  Name = 
REMARK  21 active torsions:
REMARK  status: ('A' for Active; 'I' for Inactive)
REMARK    1  A    between atoms: C_1  and  C_2
REMARK    2  A    between atoms: C_2  and  C_3
REMARK    3  A    between atoms: C_2  and  N_4
REMARK    4  A    between atoms: N_4  and  C_5
REMARK    5  A    between atoms: C_5  and  C_6
REMARK    6  A    between atoms: C_6  and  C_7
REMARK    7  A    between atoms: C_7  and  C_8
REMARK    8  A    between atoms: C_8  and  N_9
REMARK    9  A    between atoms: N_9  and  C_10
REMARK   10  A    between atoms: C_10  and  C_11
REMARK   11  A    between atoms: C_11  and  C_12
REMARK   12  A    between atoms: C_12  and  C_13
REMARK   13  A    between atoms: C_13  and  N_14
REMARK   14  A    between atoms: N_14  and  C_15
REMARK   15  A    between atoms: C_15  and  C_16
REMARK   16  A    between atoms: C_16  and  C_17
REMARK   17  A    between atoms: C_17  and  C_18
REMARK   18  A    between atoms: C_18  and  N_19
REMARK   19  A    between atoms: N_19  and  C_20
REMARK   20  A    between atoms: C_20  and  C_21
REMARK   21  A    between atoms: C_20  and  C_22
REMARK                            x       y       z     vdW  Elec       q    Type
REMARK                         _______ _______ _______ _____ _____    ______ ____
ROOT
ATOM      1  C   UNL     1       2.692   3.000  20.985  0.00  0.00    +0.000 C 
ENDROOT
BRANCH   1   2
ATOM      2  C   UNL     1       2.201   4.421  21.228  0.00  0.00    +0.000 C 
BRANCH   2   3
ATOM      3  N   UNL     1       2.965   5.345  20.399  0.00  0.00    +0.000 NA
ATOM      4  H   UNL     1       3.525   5.964  20.983  0.00  0.00    +0.000 HD
BRANCH   3   5
ATOM      5  C   UNL     1       2.086   6.124  19.533  0.00  0.00    +0.000 C 
BRANCH   5   6
ATOM      6  C   UNL     1       2.236   7.608  19.845  0.00  0.00    +0.000 C 
BRANCH   6   7
ATOM      7  C   UNL     1       1.261   8.080  20.931  0.00  0.00    +0.000 C 
BRANCH   7   8
ATOM      8  C   UNL     1       0.776   9.516  20.723  0.00  0.00    +0.000 C 
BRANCH   8   9
ATOM      9  N   UNL     1       0.216   9.692  19.384  0.00  0.00    +0.000 NA
ATOM     10  H   UNL     1       0.943   9.547  18.689  0.00  0.00    +0.000 HD
BRANCH   9  12
ATOM     11  C   UNL     1      -1.509  10.839  18.138  0.00  0.00    +0.000 C 
ATOM     12  C   UNL     1      -0.384  11.011  19.163  0.00  0.00    +0.000 C 
ATOM     13  C   UNL     1      -0.941  11.619  20.447  0.00  0.00    +0.000 C 
ENDBRANCH   9  12
ENDBRANCH   8   9
ENDBRANCH   7   8
ENDBRANCH   6   7
ENDBRANCH   5   6
ENDBRANCH   3   5
ENDBRANCH   2   3
ENDBRANCH   1   2
BRANCH   1  14
ATOM     14  C   UNL     1       1.851   2.332  19.902  0.00  0.00    +0.000 C 
BRANCH  14  15
ATOM     15  C   UNL     1       2.752   1.681  18.861  0.00  0.00    +0.000 C 
BRANCH  15  16
ATOM     16  N   UNL     1       2.289   2.039  17.524  0.00  0.00    +0.000 NA
ATOM     17  H   UNL     1       1.278   1.927  17.457  0.00  0.00    +0.000 HD
BRANCH  16  18
ATOM     18  C   UNL     1       2.636   3.427  17.228  0.00  0.00    +0.000 C 
BRANCH  18  19
ATOM     19  C   UNL     1       4.148   3.565  17.268  0.00  0.00    +0.000 C 
BRANCH  19  20
ATOM     20  C   UNL     1       4.611   4.689  16.346  0.00  0.00    +0.000 C 
BRANCH  20  21
ATOM     21  C   UNL     1       4.874   5.948  17.161  0.00  0.00    +0.000 C 
BRANCH  21  22
ATOM     22  N   UNL     1       5.512   5.593  18.424  0.00  0.00    +0.000 NA
ATOM     23  H   UNL     1       5.353   4.603  18.615  0.00  0.00    +0.000 HD
BRANCH  22  24
ATOM     24  C   UNL     1       6.954   5.858  18.427  0.00  0.00    +0.000 C 
ATOM     25  C   UNL     1       7.772   4.641  17.987  0.00  0.00    +0.000 C 
ATOM     26  C   UNL     1       7.219   7.026  17.477  0.00  0.00    +0.000 C 
ENDBRANCH  22  24
ENDBRANCH  21  22
ENDBRANCH  20  21
ENDBRANCH  19  20
ENDBRANCH  18  19
ENDBRANCH  16  18
ENDBRANCH  15  16
ENDBRANCH  14  15
ENDBRANCH   1  14
TORSDOF 17
ENDMDL
