MODEL 1
REMARK VINA RESULT:      -7.1      0.000      0.000
REMARK  Name = 
REMARK  10 active torsions:
REMARK  status: ('A' for Active; 'I' for Inactive)
REMARK    1  A    between atoms: C_1  and  N_2
REMARK    2  A    between atoms: N_2  and  C_3
REMARK    3  A    between atoms: N_2  and  C_10
REMARK    4  A    between atoms: C_3  and  C_4
REMARK    5  A    between atoms: C_10  and  C_11
REMARK    6  A    between atoms: C_14  and  C_15
REMARK    7  A    between atoms: C_15  and  N_16
REMARK    8  A    between atoms: N_16  and  C_17
REMARK    9  A    between atoms: N_16  and  C_18
REMARK   10  A    between atoms: C_18  and  C_19
REMARK                            x       y       z     vdW  Elec       q    Type
REMARK                         _______ _______ _______ _____ _____    ______ ____
ROOT
ATOM      1  C   UNL     1       2.298   5.259  18.588  0.00  0.00    +0.000 A 
ATOM      2  C   UNL     1       1.934   5.122  19.934  0.00  0.00    +0.000 A 
ATOM      3  C   UNL     1       1.731   6.247  20.731  0.00  0.00    +0.000 A 
ATOM      4  C   UNL     1       1.897   7.535  20.200  0.00  0.00    +0.000 A 
ATOM      5  C   UNL     1       2.321   7.671  18.872  0.00  0.00    +0.000 A 
ATOM      6  C   UNL     1       2.525   6.543  18.075  0.00  0.00    +0.000 A 
ENDROOT
BRANCH   1   7
ATOM      7  C   UNL     1       2.353   4.049  17.677  0.00  0.00    +0.000 C 
BRANCH   7   9
ATOM      8  C   UNL     1       3.169   1.935  18.565  0.00  0.00    +0.000 C 
ATOM      9  N   UNL     1       3.540   3.200  17.913  0.00  0.00    +0.000 NA
BRANCH   9  10
ATOM     10  C   UNL     1       4.231   2.950  16.635  0.00  0.00    +0.000 C 
BRANCH  10  11
ATOM     11  C   UNL     1       5.351   3.929  16.354  0.00  0.00    +0.000 A 
ATOM     12  C   UNL     1       5.873   4.733  17.373  0.00  0.00    +0.000 A 
ATOM     13  C   UNL     1       6.878   5.635  17.057  0.00  0.00    +0.000 A 
ATOM     14  N   UNL     1       7.395   5.785  15.820  0.00  0.00    +0.000 NA
ATOM     15  C   UNL     1       6.878   4.998  14.851  0.00  0.00    +0.000 A 
ATOM     16  C   UNL     1       5.875   4.067  15.065  0.00  0.00    +0.000 A 
ENDBRANCH  10  11
ENDBRANCH   9  10
ENDBRANCH   7   9
ENDBRANCH   1   7
BRANCH   4  17
ATOM     17  C   UNL     1       1.530   8.762  21.008  0.00  0.00    +0.000 C 
BRANCH  17  18
ATOM     18  N   UNL     1       0.167   9.268  20.765  0.00  0.00    +0.000 NA
ATOM     19  C   UNL     1      -0.548   9.472  22.029  0.00  0.00    +0.000 C 
BRANCH  18  20
ATOM     20  C   UNL     1       0.210  10.543  20.019  0.00  0.00    +0.000 C 
BRANCH  20  21
ATOM     21  C   UNL     1      -0.904  10.675  19.004  0.00  0.00    +0.000 A 
ATOM     22  C   UNL     1      -1.959  11.566  19.220  0.00  0.00    +0.000 A 
ATOM     23  C   UNL     1      -2.993  11.605  18.300  0.00  0.00    +0.000 A 
ATOM     24  N   UNL     1      -3.045  10.834  17.192  0.00  0.00    +0.000 NA
ATOM     25  C   UNL     1      -2.012   9.988  16.997  0.00  0.00    +0.000 A 
ATOM     26  C   UNL     1      -0.931   9.876  17.859  0.00  0.00    +0.000 A 
ENDBRANCH  20  21
ENDBRANCH  18  20
ENDBRANCH  17  18
ENDBRANCH   4  17
TORSDOF 8
ENDMDL
MODEL 2
REMARK VINA RESULT:      -7.0      0.710      8.751
REMARK  Name = 
REMARK  10 active torsions:
REMARK  status: ('A' for Active; 'I' for Inactive)
REMARK    1  A    between atoms: C_1  and  N_2
REMARK    2  A    between atoms: N_2  and  C_3
REMARK    3  A    between atoms: N_2  and  C_10
REMARK    4  A    between atoms: C_3  and  C_4
REMARK    5  A    between atoms: C_10  and  C_11
REMARK    6  A    between atoms: C_14  and  C_15
REMARK    7  A    between atoms: C_15  and  N_16
REMARK    8  A    between atoms: N_16  and  C_17
REMARK    9  A    between atoms: N_16  and  C_18
REMARK   10  A    between atoms: C_18  and  C_19
REMARK                            x       y       z     vdW  Elec       q    Type
REMARK                         _______ _______ _______ _____ _____    ______ ____
ROOT
ATOM      1  C   UNL     1       1.850   7.861  19.944  0.00  0.00    +0.000 A 
ATOM      2  C   UNL     1       2.367   7.516  18.688  0.00  0.00    +0.000 A 
ATOM      3  C   UNL     1       2.476   6.179  18.310  0.00  0.00    +0.000 A 
ATOM      4  C   UNL     1       2.079   5.157  19.186  0.00  0.00    +0.000 A 
ATOM      5  C   UNL     1       1.622   5.500  20.464  0.00  0.00    +0.000 A 
ATOM      6  C   UNL     1       1.513   6.840  20.842  0.00  0.00    +0.000 A 
ENDROOT
BRANCH   1   7
ATOM      7  C   UNL     1       1.571   9.310  20.291  0.00  0.00    +0.000 C 
BRANCH   7   9
ATOM      8  C   UNL     1      -0.428   9.982  21.505  0.00  0.00    +0.000 C 
ATOM      9  N   UNL     1       0.139   9.665  20.187  0.00  0.00    +0.000 NA
BRANCH   9  10
ATOM     10  C   UNL     1      -0.022  10.800  19.258  0.00  0.00    +0.000 C 
BRANCH  10  11
ATOM     11  C   UNL     1      -1.321  10.762  18.482  0.00  0.00    +0.000 A 
ATOM     12  C   UNL     1      -2.389  11.596  18.828  0.00  0.00    +0.000 A 
ATOM     13  C   UNL     1      -3.568  11.501  18.104  0.00  0.00    +0.000 A 
ATOM     14  N   UNL     1      -3.752  10.651  17.071  0.00  0.00    +0.000 NA
ATOM     15  C   UNL     1      -2.708   9.856  16.751  0.00  0.00    +0.000 A 
ATOM     16  C   UNL     1      -1.490   9.877  17.412  0.00  0.00    +0.000 A 
ENDBRANCH  10  11
ENDBRANCH   9  10
ENDBRANCH   7   9
ENDBRANCH   1   7
BRANCH   4  17
ATOM     17  C   UNL     1       2.047   3.713  18.731  0.00  0.00    +0.000 C 
BRANCH  17  18
ATOM     18  N   UNL     1       3.354   3.176  18.309  0.00  0.00    +0.000 NA
ATOM     19  C   UNL     1       3.393   1.718  18.454  0.00  0.00    +0.000 C 
BRANCH  18  20
ATOM     20  C   UNL     1       3.633   3.533  16.903  0.00  0.00    +0.000 C 
BRANCH  20  21
ATOM     21  C   UNL     1       5.052   4.009  16.681  0.00  0.00    +0.000 A 
ATOM     22  C   UNL     1       5.588   4.067  15.391  0.00  0.00    +0.000 A 
ATOM     23  C   UNL     1       6.912   4.441  15.240  0.00  0.00    +0.000 A 
ATOM     24  N   UNL     1       7.727   4.764  16.268  0.00  0.00    +0.000 NA
ATOM     25  C   UNL     1       7.187   4.712  17.504  0.00  0.00    +0.000 A 
ATOM     26  C   UNL     1       5.872   4.350  17.759  0.00  0.00    +0.000 A 
ENDBRANCH  20  21
ENDBRANCH  18  20
ENDBRANCH  17  18
ENDBRANCH   4  17
TORSDOF 8
ENDMDL
MODEL 3
REMARK VINA RESULT:      -6.9      1.139      1.628
REMARK  Name = 
REMARK  10 active torsions:
REMARK  status: ('A' for Active; 'I' for Inactive)
REMARK    1  A    between atoms: C_1  and  N_2
REMARK    2  A    between atoms: N_2  and  C_3
REMARK    3  A    between atoms: N_2  and  C_10
REMARK    4  A    between atoms: C_3  and  C_4
REMARK    5  A    between atoms: C_10  and  C_11
REMARK    6  A    between atoms: C_14  and  C_15
REMARK    7  A    between atoms: C_15  and  N_16
REMARK    8  A    between atoms: N_16  and  C_17
REMARK    9  A    between atoms: N_16  and  C_18
REMARK   10  A    between atoms: C_18  and  C_19
REMARK                            x       y       z     vdW  Elec       q    Type
REMARK                         _______ _______ _______ _____ _____    ______ ____
ROOT
ATOM      1  C   UNL     1       2.193   6.026  19.192  0.00  0.00    +0.000 A 
ATOM      2  C   UNL     1       1.785   6.422  20.473  0.00  0.00    +0.000 A 
ATOM      3  C   UNL     1       1.478   7.755  20.738  0.00  0.00    +0.000 A 
ATOM      4  C   UNL     1       1.583   8.724  19.728  0.00  0.00    +0.000 A 
ATOM      5  C   UNL     1       2.051   8.339  18.466  0.00  0.00    +0.000 A 
ATOM      6  C   UNL     1       2.359   7.003  18.202  0.00  0.00    +0.000 A 
ENDROOT
BRANCH   1   7
ATOM      7  C   UNL     1       2.362   4.558  18.856  0.00  0.00    +0.000 C 
BRANCH   7   9
ATOM      8  C   UNL     1       3.184   2.878  20.413  0.00  0.00    +0.000 C 
ATOM      9  N   UNL     1       3.557   3.954  19.483  0.00  0.00    +0.000 NA
BRANCH   9  10
ATOM     10  C   UNL     1       4.465   3.452  18.434  0.00  0.00    +0.000 C 
BRANCH  10  11
ATOM     11  C   UNL     1       5.112   4.552  17.621  0.00  0.00    +0.000 A 
ATOM     12  C   UNL     1       5.840   5.572  18.243  0.00  0.00    +0.000 A 
ATOM     13  C   UNL     1       6.388   6.573  17.455  0.00  0.00    +0.000 A 
ATOM     14  N   UNL     1       6.268   6.625  16.112  0.00  0.00    +0.000 NA
ATOM     15  C   UNL     1       5.563   5.630  15.530  0.00  0.00    +0.000 A 
ATOM     16  C   UNL     1       4.979   4.586  16.229  0.00  0.00    +0.000 A 
ENDBRANCH  10  11
ENDBRANCH   9  10
ENDBRANCH   7   9
ENDBRANCH   1   7
BRANCH   4  17
ATOM     17  C   UNL     1       1.106  10.143  19.960  0.00  0.00    +0.000 C 
BRANCH  17  18
ATOM     18  N   UNL     1      -0.331  10.262  20.268  0.00  0.00    +0.000 NA
ATOM     19  C   UNL     1      -0.547  10.404  21.711  0.00  0.00    +0.000 C 
BRANCH  18  20
ATOM     20  C   UNL     1      -0.917  11.425  19.572  0.00  0.00    +0.000 C 
BRANCH  20  21
ATOM     21  C   UNL     1      -1.896  11.036  18.486  0.00  0.00    +0.000 A 
ATOM     22  C   UNL     1      -1.539  10.104  17.507  0.00  0.00    +0.000 A 
ATOM     23  C   UNL     1      -2.439   9.830  16.492  0.00  0.00    +0.000 A 
ATOM     24  N   UNL     1      -3.657  10.406  16.389  0.00  0.00    +0.000 NA
ATOM     25  C   UNL     1      -3.986  11.295  17.349  0.00  0.00    +0.000 A 
ATOM     26  C   UNL     1      -3.155  11.637  18.406  0.00  0.00    +0.000 A 
ENDBRANCH  20  21
ENDBRANCH  18  20
ENDBRANCH  17  18
ENDBRANCH   4  17
TORSDOF 8
ENDMDL
MODEL 4
REMARK VINA RESULT:      -6.9      1.063      1.605
REMARK  Name = 
REMARK  10 active torsions:
REMARK  status: ('A' for Active; 'I' for Inactive)
REMARK    1  A    between atoms: C_1  and  N_2
REMARK    2  A    between atoms: N_2  and  C_3
REMARK    3  A    between atoms: N_2  and  C_10
REMARK    4  A    between atoms: C_3  and  C_4
REMARK    5  A    between atoms: C_10  and  C_11
REMARK    6  A    between atoms: C_14  and  C_15
REMARK    7  A    between atoms: C_15  and  N_16
REMARK    8  A    between atoms: N_16  and  C_17
REMARK    9  A    between atoms: N_16  and  C_18
REMARK   10  A    between atoms: C_18  and  C_19
REMARK                            x       y       z     vdW  Elec       q    Type
REMARK                         _______ _______ _______ _____ _____    ______ ____
ROOT
ATOM      1  C   UNL     1       2.239   5.280  18.474  0.00  0.00    +0.000 A 
ATOM      2  C   UNL     1       2.417   6.630  18.143  0.00  0.00    +0.000 A 
ATOM      3  C   UNL     1       2.185   7.627  19.089  0.00  0.00    +0.000 A 
ATOM      4  C   UNL     1       1.759   7.295  20.384  0.00  0.00    +0.000 A 
ATOM      5  C   UNL     1       1.520   5.950  20.694  0.00  0.00    +0.000 A 
ATOM      6  C   UNL     1       1.753   4.952  19.746  0.00  0.00    +0.000 A 
ENDROOT
BRANCH   1   7
ATOM      7  C   UNL     1       2.652   4.188  17.507  0.00  0.00    +0.000 C 
BRANCH   7   9
ATOM      8  C   UNL     1       3.814   2.104  17.985  0.00  0.00    +0.000 C 
ATOM      9  N   UNL     1       3.945   3.563  17.858  0.00  0.00    +0.000 NA
BRANCH   9  10
ATOM     10  C   UNL     1       4.956   3.914  16.842  0.00  0.00    +0.000 C 
BRANCH  10  11
ATOM     11  C   UNL     1       5.923   4.985  17.301  0.00  0.00    +0.000 A 
ATOM     12  C   UNL     1       6.891   4.710  18.273  0.00  0.00    +0.000 A 
ATOM     13  C   UNL     1       7.733   5.734  18.680  0.00  0.00    +0.000 A 
ATOM     14  N   UNL     1       7.683   6.990  18.190  0.00  0.00    +0.000 NA
ATOM     15  C   UNL     1       6.743   7.234  17.251  0.00  0.00    +0.000 A 
ATOM     16  C   UNL     1       5.857   6.280  16.778  0.00  0.00    +0.000 A 
ENDBRANCH  10  11
ENDBRANCH   9  10
ENDBRANCH   7   9
ENDBRANCH   1   7
BRANCH   4  17
ATOM     17  C   UNL     1       1.653   8.353  21.462  0.00  0.00    +0.000 C 
BRANCH  17  18
ATOM     18  N   UNL     1       0.425   9.167  21.401  0.00  0.00    +0.000 NA
ATOM     19  C   UNL     1      -0.062   9.483  22.747  0.00  0.00    +0.000 C 
BRANCH  18  20
ATOM     20  C   UNL     1       0.671  10.424  20.665  0.00  0.00    +0.000 C 
BRANCH  20  21
ATOM     21  C   UNL     1      -0.434  10.769  19.691  0.00  0.00    +0.000 A 
ATOM     22  C   UNL     1      -1.451  11.656  20.055  0.00  0.00    +0.000 A 
ATOM     23  C   UNL     1      -2.480  11.888  19.158  0.00  0.00    +0.000 A 
ATOM     24  N   UNL     1      -2.562  11.312  17.939  0.00  0.00    +0.000 NA
ATOM     25  C   UNL     1      -1.565  10.467  17.603  0.00  0.00    +0.000 A 
ATOM     26  C   UNL     1      -0.492  10.169  18.430  0.00  0.00    +0.000 A 
ENDBRANCH  20  21
ENDBRANCH  18  20
ENDBRANCH  17  18
ENDBRANCH   4  17
TORSDOF 8
ENDMDL
MODEL 5
REMARK VINA RESULT:      -6.8      1.025      1.802
REMARK  Name = 
REMARK  10 active torsions:
REMARK  status: ('A' for Active; 'I' for Inactive)
REMARK    1  A    between atoms: C_1  and  N_2
REMARK    2  A    between atoms: N_2  and  C_3
REMARK    3  A    between atoms: N_2  and  C_10
REMARK    4  A    between atoms: C_3  and  C_4
REMARK    5  A    between atoms: C_10  and  C_11
REMARK    6  A    between atoms: C_14  and  C_15
REMARK    7  A    between atoms: C_15  and  N_16
REMARK    8  A    between atoms: N_16  and  C_17
REMARK    9  A    between atoms: N_16  and  C_18
REMARK   10  A    between atoms: C_18  and  C_19
REMARK                            x       y       z     vdW  Elec       q    Type
REMARK                         _______ _______ _______ _____ _____    ______ ____
ROOT
ATOM      1  C   UNL     1       2.554   6.571  18.513  0.00  0.00    +0.000 A 
ATOM      2  C   UNL     1       2.330   7.790  17.860  0.00  0.00    +0.000 A 
ATOM      3  C   UNL     1       1.820   8.885  18.557  0.00  0.00    +0.000 A 
ATOM      4  C   UNL     1       1.512   8.779  19.921  0.00  0.00    +0.000 A 
ATOM      5  C   UNL     1       1.676   7.542  20.559  0.00  0.00    +0.000 A 
ATOM      6  C   UNL     1       2.187   6.447  19.860  0.00  0.00    +0.000 A 
ENDROOT
BRANCH   1   7
ATOM      7  C   UNL     1       3.264   5.435  17.805  0.00  0.00    +0.000 C 
BRANCH   7   9
ATOM      8  C   UNL     1       2.815   3.060  18.080  0.00  0.00    +0.000 C 
ATOM      9  N   UNL     1       3.456   4.247  18.664  0.00  0.00    +0.000 NA
BRANCH   9  10
ATOM     10  C   UNL     1       4.897   4.017  18.875  0.00  0.00    +0.000 C 
BRANCH  10  11
ATOM     11  C   UNL     1       5.773   4.716  17.857  0.00  0.00    +0.000 A 
ATOM     12  C   UNL     1       5.968   4.172  16.583  0.00  0.00    +0.000 A 
ATOM     13  C   UNL     1       6.803   4.836  15.698  0.00  0.00    +0.000 A 
ATOM     14  N   UNL     1       7.444   5.989  15.987  0.00  0.00    +0.000 NA
ATOM     15  C   UNL     1       7.242   6.498  17.221  0.00  0.00    +0.000 A 
ATOM     16  C   UNL     1       6.426   5.911  18.175  0.00  0.00    +0.000 A 
ENDBRANCH  10  11
ENDBRANCH   9  10
ENDBRANCH   7   9
ENDBRANCH   1   7
BRANCH   4  17
ATOM     17  C   UNL     1       1.106   9.997  20.723  0.00  0.00    +0.000 C 
BRANCH  17  18
ATOM     18  N   UNL     1      -0.336  10.304  20.680  0.00  0.00    +0.000 NA
ATOM     19  C   UNL     1      -0.843  10.628  22.017  0.00  0.00    +0.000 C 
BRANCH  18  20
ATOM     20  C   UNL     1      -0.600  11.438  19.771  0.00  0.00    +0.000 C 
BRANCH  20  21
ATOM     21  C   UNL     1      -1.674  11.143  18.747  0.00  0.00    +0.000 A 
ATOM     22  C   UNL     1      -2.912  11.789  18.810  0.00  0.00    +0.000 A 
ATOM     23  C   UNL     1      -3.890  11.437  17.896  0.00  0.00    +0.000 A 
ATOM     24  N   UNL     1      -3.721  10.505  16.933  0.00  0.00    +0.000 NA
ATOM     25  C   UNL     1      -2.515   9.901  16.883  0.00  0.00    +0.000 A 
ATOM     26  C   UNL     1      -1.472  10.183  17.752  0.00  0.00    +0.000 A 
ENDBRANCH  20  21
ENDBRANCH  18  20
ENDBRANCH  17  18
ENDBRANCH   4  17
TORSDOF 8
ENDMDL
MODEL 6
REMARK VINA RESULT:      -6.8      1.061      8.714
REMARK  Name = 
REMARK  10 active torsions:
REMARK  status: ('A' for Active; 'I' for Inactive)
REMARK    1  A    between atoms: C_1  and  N_2
REMARK    2  A    between atoms: N_2  and  C_3
REMARK    3  A    between atoms: N_2  and  C_10
REMARK    4  A    between atoms: C_3  and  C_4
REMARK    5  A    between atoms: C_10  and  C_11
REMARK    6  A    between atoms: C_14  and  C_15
REMARK    7  A    between atoms: C_15  and  N_16
REMARK    8  A    between atoms: N_16  and  C_17
REMARK    9  A    between atoms: N_16  and  C_18
REMARK   10  A    between atoms: C_18  and  C_19
REMARK                            x       y       z     vdW  Elec       q    Type
REMARK                         _______ _______ _______ _____ _____    ______ ____
ROOT
ATOM      1  C   UNL     1       1.540   8.970  19.681  0.00  0.00    +0.000 A 
ATOM      2  C   UNL     1       1.722   7.778  20.394  0.00  0.00    +0.000 A 
ATOM      3  C   UNL     1       2.258   6.653  19.768  0.00  0.00    +0.000 A 
ATOM      4  C   UNL     1       2.613   6.694  18.412  0.00  0.00    +0.000 A 
ATOM      5  C   UNL     1       2.372   7.866  17.684  0.00  0.00    +0.000 A 
ATOM      6  C   UNL     1       1.835   8.992  18.311  0.00  0.00    +0.000 A 
ENDROOT
BRANCH   1   7
ATOM      7  C   UNL     1       1.120  10.239  20.394  0.00  0.00    +0.000 C 
BRANCH   7   9
ATOM      8  C   UNL     1      -0.767  10.563  21.896  0.00  0.00    +0.000 C 
ATOM      9  N   UNL     1      -0.348  10.387  20.498  0.00  0.00    +0.000 NA
BRANCH   9  10
ATOM     10  C   UNL     1      -0.790  11.523  19.669  0.00  0.00    +0.000 C 
BRANCH  10  11
ATOM     11  C   UNL     1      -1.834  11.146  18.640  0.00  0.00    +0.000 A 
ATOM     12  C   UNL     1      -1.558  10.194  17.652  0.00  0.00    +0.000 A 
ATOM     13  C   UNL     1      -2.539   9.906  16.715  0.00  0.00    +0.000 A 
ATOM     14  N   UNL     1      -3.757  10.486  16.696  0.00  0.00    +0.000 NA
ATOM     15  C   UNL     1      -4.004  11.401  17.658  0.00  0.00    +0.000 A 
ATOM     16  C   UNL     1      -3.092  11.756  18.639  0.00  0.00    +0.000 A 
ENDBRANCH  10  11
ENDBRANCH   9  10
ENDBRANCH   7   9
ENDBRANCH   1   7
BRANCH   4  17
ATOM     17  C   UNL     1       3.336   5.533  17.762  0.00  0.00    +0.000 C 
BRANCH  17  18
ATOM     18  N   UNL     1       3.476   4.343  18.621  0.00  0.00    +0.000 NA
ATOM     19  C   UNL     1       2.845   3.174  18.004  0.00  0.00    +0.000 C 
BRANCH  18  20
ATOM     20  C   UNL     1       4.902   4.049  18.874  0.00  0.00    +0.000 C 
BRANCH  20  21
ATOM     21  C   UNL     1       5.830   4.701  17.872  0.00  0.00    +0.000 A 
ATOM     22  C   UNL     1       6.486   5.896  18.185  0.00  0.00    +0.000 A 
ATOM     23  C   UNL     1       7.270   6.495  17.214  0.00  0.00    +0.000 A 
ATOM     24  N   UNL     1       7.450   5.991  15.974  0.00  0.00    +0.000 NA
ATOM     25  C   UNL     1       6.817   4.832  15.696  0.00  0.00    +0.000 A 
ATOM     26  C   UNL     1       6.011   4.155  16.599  0.00  0.00    +0.000 A 
ENDBRANCH  20  21
ENDBRANCH  18  20
ENDBRANCH  17  18
ENDBRANCH   4  17
TORSDOF 8
ENDMDL
MODEL 7
REMARK VINA RESULT:      -6.8      0.724      1.408
REMARK  Name = 
REMARK  10 active torsions:
REMARK  status: ('A' for Active; 'I' for Inactive)
REMARK    1  A    between atoms: C_1  and  N_2
REMARK    2  A    between atoms: N_2  and  C_3
REMARK    3  A    between atoms: N_2  and  C_10
REMARK    4  A    between atoms: C_3  and  C_4
REMARK    5  A    between atoms: C_10  and  C_11
REMARK    6  A    between atoms: C_14  and  C_15
REMARK    7  A    between atoms: C_15  and  N_16
REMARK    8  A    between atoms: N_16  and  C_17
REMARK    9  A    between atoms: N_16  and  C_18
REMARK   10  A    between atoms: C_18  and  C_19
REMARK                            x       y       z     vdW  Elec       q    Type
REMARK                         _______ _______ _______ _____ _____    ______ ____
ROOT
ATOM      1  C   UNL     1       2.119   5.156  18.749  0.00  0.00    +0.000 A 
ATOM      2  C   UNL     1       1.754   4.912  20.080  0.00  0.00    +0.000 A 
ATOM      3  C   UNL     1       1.614   5.966  20.981  0.00  0.00    +0.000 A 
ATOM      4  C   UNL     1       1.847   7.288  20.572  0.00  0.00    +0.000 A 
ATOM      5  C   UNL     1       2.273   7.525  19.259  0.00  0.00    +0.000 A 
ATOM      6  C   UNL     1       2.413   6.469  18.358  0.00  0.00    +0.000 A 
ENDROOT
BRANCH   1   7
ATOM      7  C   UNL     1       2.106   4.036  17.728  0.00  0.00    +0.000 C 
BRANCH   7   9
ATOM      8  C   UNL     1       3.358   1.971  18.026  0.00  0.00    +0.000 C 
ATOM      9  N   UNL     1       3.419   3.371  17.581  0.00  0.00    +0.000 NA
BRANCH   9  10
ATOM     10  C   UNL     1       3.862   3.458  16.177  0.00  0.00    +0.000 C 
BRANCH  10  11
ATOM     11  C   UNL     1       5.135   4.259  15.997  0.00  0.00    +0.000 A 
ATOM     12  C   UNL     1       5.929   4.098  14.857  0.00  0.00    +0.000 A 
ATOM     13  C   UNL     1       7.100   4.833  14.754  0.00  0.00    +0.000 A 
ATOM     14  N   UNL     1       7.525   5.708  15.689  0.00  0.00    +0.000 NA
ATOM     15  C   UNL     1       6.743   5.850  16.782  0.00  0.00    +0.000 A 
ATOM     16  C   UNL     1       5.556   5.163  16.977  0.00  0.00    +0.000 A 
ENDBRANCH  10  11
ENDBRANCH   9  10
ENDBRANCH   7   9
ENDBRANCH   1   7
BRANCH   4  17
ATOM     17  C   UNL     1       1.549   8.451  21.495  0.00  0.00    +0.000 C 
BRANCH  17  18
ATOM     18  N   UNL     1       0.269   9.130  21.228  0.00  0.00    +0.000 NA
ATOM     19  C   UNL     1      -0.557   9.188  22.438  0.00  0.00    +0.000 C 
BRANCH  18  20
ATOM     20  C   UNL     1       0.502  10.503  20.733  0.00  0.00    +0.000 C 
BRANCH  20  21
ATOM     21  C   UNL     1      -0.404  10.882  19.582  0.00  0.00    +0.000 A 
ATOM     22  C   UNL     1      -0.968   9.896  18.767  0.00  0.00    +0.000 A 
ATOM     23  C   UNL     1      -1.733  10.290  17.683  0.00  0.00    +0.000 A 
ATOM     24  N   UNL     1      -1.978  11.579  17.362  0.00  0.00    +0.000 NA
ATOM     25  C   UNL     1      -1.433  12.515  18.166  0.00  0.00    +0.000 A 
ATOM     26  C   UNL     1      -0.653  12.222  19.275  0.00  0.00    +0.000 A 
ENDBRANCH  20  21
ENDBRANCH  18  20
ENDBRANCH  17  18
ENDBRANCH   4  17
TORSDOF 8
ENDMDL
MODEL 8
REMARK VINA RESULT:      -6.8      1.267      2.026
REMARK  Name = 
REMARK  10 active torsions:
REMARK  status: ('A' for Active; 'I' for Inactive)
REMARK    1  A    between atoms: C_1  and  N_2
REMARK    2  A    between atoms: N_2  and  C_3
REMARK    3  A    between atoms: N_2  and  C_10
REMARK    4  A    between atoms: C_3  and  C_4
REMARK    5  A    between atoms: C_10  and  C_11
REMARK    6  A    between atoms: C_14  and  C_15
REMARK    7  A    between atoms: C_15  and  N_16
REMARK    8  A    between atoms: N_16  and  C_17
REMARK    9  A    between atoms: N_16  and  C_18
REMARK   10  A    between atoms: C_18  and  C_19
REMARK                            x       y       z     vdW  Elec       q    Type
REMARK                         _______ _______ _______ _____ _____    ______ ____
ROOT
ATOM      1  C   UNL     1       2.398   6.530  18.913  0.00  0.00    +0.000 A 
ATOM      2  C   UNL     1       2.290   7.639  18.063  0.00  0.00    +0.000 A 
ATOM      3  C   UNL     1       1.806   8.855  18.543  0.00  0.00    +0.000 A 
ATOM      4  C   UNL     1       1.409   8.984  19.883  0.00  0.00    +0.000 A 
ATOM      5  C   UNL     1       1.457   7.859  20.715  0.00  0.00    +0.000 A 
ATOM      6  C   UNL     1       1.942   6.642  20.233  0.00  0.00    +0.000 A 
ENDROOT
BRANCH   1   7
ATOM      7  C   UNL     1       3.080   5.262  18.442  0.00  0.00    +0.000 C 
BRANCH   7   9
ATOM      8  C   UNL     1       2.887   3.628  20.235  0.00  0.00    +0.000 C 
ATOM      9  N   UNL     1       3.788   4.548  19.526  0.00  0.00    +0.000 NA
BRANCH   9  10
ATOM     10  C   UNL     1       4.946   3.825  18.968  0.00  0.00    +0.000 C 
BRANCH  10  11
ATOM     11  C   UNL     1       5.860   4.702  18.138  0.00  0.00    +0.000 A 
ATOM     12  C   UNL     1       6.587   5.742  18.726  0.00  0.00    +0.000 A 
ATOM     13  C   UNL     1       7.386   6.534  17.916  0.00  0.00    +0.000 A 
ATOM     14  N   UNL     1       7.514   6.362  16.584  0.00  0.00    +0.000 NA
ATOM     15  C   UNL     1       6.805   5.352  16.035  0.00  0.00    +0.000 A 
ATOM     16  C   UNL     1       5.981   4.505  16.758  0.00  0.00    +0.000 A 
ENDBRANCH  10  11
ENDBRANCH   9  10
ENDBRANCH   7   9
ENDBRANCH   1   7
BRANCH   4  17
ATOM     17  C   UNL     1       1.029  10.334  20.454  0.00  0.00    +0.000 C 
BRANCH  17  18
ATOM     18  N   UNL     1      -0.423  10.581  20.526  0.00  0.00    +0.000 NA
ATOM     19  C   UNL     1      -0.821  10.980  21.879  0.00  0.00    +0.000 C 
BRANCH  18  20
ATOM     20  C   UNL     1      -0.819  11.637  19.572  0.00  0.00    +0.000 C 
BRANCH  20  21
ATOM     21  C   UNL     1      -1.833  11.167  18.552  0.00  0.00    +0.000 A 
ATOM     22  C   UNL     1      -1.486  10.212  17.592  0.00  0.00    +0.000 A 
ATOM     23  C   UNL     1      -2.423   9.863  16.635  0.00  0.00    +0.000 A 
ATOM     24  N   UNL     1      -3.667  10.386  16.572  0.00  0.00    +0.000 NA
ATOM     25  C   UNL     1      -3.986  11.298  17.514  0.00  0.00    +0.000 A 
ATOM     26  C   UNL     1      -3.119  11.713  18.514  0.00  0.00    +0.000 A 
ENDBRANCH  20  21
ENDBRANCH  18  20
ENDBRANCH  17  18
ENDBRANCH   4  17
TORSDOF 8
ENDMDL
MODEL 9
REMARK VINA RESULT:      -6.7      1.705      2.822
REMARK  Name = 
REMARK  10 active torsions:
REMARK  status: ('A' for Active; 'I' for Inactive)
REMARK    1  A    between atoms: C_1  and  N_2
REMARK    2  A    between atoms: N_2  and  C_3
REMARK    3  A    between atoms: N_2  and  C_10
REMARK    4  A    between atoms: C_3  and  C_4
REMARK    5  A    between atoms: C_10  and  C_11
REMARK    6  A    between atoms: C_14  and  C_15
REMARK    7  A    between atoms: C_15  and  N_16
REMARK    8  A    between atoms: N_16  and  C_17
REMARK    9  A    between atoms: N_16  and  C_18
REMARK   10  A    between atoms: C_18  and  C_19
REMARK                            x       y       z     vdW  Elec       q    Type
REMARK                         _______ _______ _______ _____ _____    ______ ____
ROOT
ATOM      1  C   UNL     1       2.455   5.805  19.029  0.00  0.00    +0.000 A 
ATOM      2  C   UNL     1       2.138   6.703  20.057  0.00  0.00    +0.000 A 
ATOM      3  C   UNL     1       1.935   8.054  19.779  0.00  0.00    +0.000 A 
ATOM      4  C   UNL     1       2.056   8.537  18.468  0.00  0.00    +0.000 A 
ATOM      5  C   UNL     1       2.435   7.651  17.452  0.00  0.00    +0.000 A 
ATOM      6  C   UNL     1       2.638   6.298  17.730  0.00  0.00    +0.000 A 
ENDROOT
BRANCH   1   7
ATOM      7  C   UNL     1       2.508   4.314  19.297  0.00  0.00    +0.000 C 
BRANCH   7   9
ATOM      8  C   UNL     1       4.030   2.642  20.195  0.00  0.00    +0.000 C 
ATOM      9  N   UNL     1       3.881   3.768  19.262  0.00  0.00    +0.000 NA
BRANCH   9  10
ATOM     10  C   UNL     1       4.215   3.357  17.885  0.00  0.00    +0.000 C 
BRANCH  10  11
ATOM     11  C   UNL     1       5.301   4.202  17.252  0.00  0.00    +0.000 A 
ATOM     12  C   UNL     1       5.370   4.359  15.864  0.00  0.00    +0.000 A 
ATOM     13  C   UNL     1       6.401   5.119  15.332  0.00  0.00    +0.000 A 
ATOM     14  N   UNL     1       7.350   5.726  16.075  0.00  0.00    +0.000 NA
ATOM     15  C   UNL     1       7.264   5.563  17.413  0.00  0.00    +0.000 A 
ATOM     16  C   UNL     1       6.272   4.826  18.040  0.00  0.00    +0.000 A 
ENDBRANCH  10  11
ENDBRANCH   9  10
ENDBRANCH   7   9
ENDBRANCH   1   7
BRANCH   4  17
ATOM     17  C   UNL     1       1.688   9.967  18.129  0.00  0.00    +0.000 C 
BRANCH  17  18
ATOM     18  N   UNL     1       1.224  10.766  19.278  0.00  0.00    +0.000 NA
ATOM     19  C   UNL     1       1.642  12.165  19.145  0.00  0.00    +0.000 C 
BRANCH  18  20
ATOM     20  C   UNL     1      -0.247  10.707  19.393  0.00  0.00    +0.000 C 
BRANCH  20  21
ATOM     21  C   UNL     1      -0.744  10.946  20.802  0.00  0.00    +0.000 A 
ATOM     22  C   UNL     1      -1.544  12.054  21.095  0.00  0.00    +0.000 A 
ATOM     23  C   UNL     1      -1.917  12.274  22.410  0.00  0.00    +0.000 A 
ATOM     24  N   UNL     1      -1.561  11.473  23.438  0.00  0.00    +0.000 NA
ATOM     25  C   UNL     1      -0.798  10.403  23.132  0.00  0.00    +0.000 A 
ATOM     26  C   UNL     1      -0.373  10.097  21.848  0.00  0.00    +0.000 A 
ENDBRANCH  20  21
ENDBRANCH  18  20
ENDBRANCH  17  18
ENDBRANCH   4  17
TORSDOF 8
ENDMDL
