MODEL 1
REMARK VINA RESULT:      -7.1      0.000      0.000
REMARK  Name = 
REMARK  12 active torsions:
REMARK  status: ('A' for Active; 'I' for Inactive)
REMARK    1  A    between atoms: C_1  and  O_2
REMARK    2  A    between atoms: O_2  and  C_3
REMARK    3  A    between atoms: C_3  and  C_4
REMARK    4  A    between atoms: C_4  and  C_5
REMARK    5  A    between atoms: C_5  and  N_6
REMARK    6  A    between atoms: N_6  and  C_7
REMARK    7  A    between atoms: C_7  and  C_8
REMARK    8  A    between atoms: C_8  and  C_9
REMARK    9  A    between atoms: N_18  and  C_19
REMARK   10  A    between atoms: C_19  and  C_20
REMARK   11  A    between atoms: C_20  and  C_21
REMARK   12  A    between atoms: C_21  and  C_22
REMARK                            x       y       z     vdW  Elec       q    Type
REMARK                         _______ _______ _______ _____ _____    ______ ____
ROOT
ATOM      1  N   UNL     1       4.411   4.813  17.298  0.00  0.00    +0.000 N 
ATOM      2  C   UNL     1       4.167   6.165  17.547  0.00  0.00    +0.000 C 
ATOM      3  O   UNL     1       5.031   7.039  17.464  0.00  0.00    +0.000 OA
ATOM      4  N   UNL     1       2.870   6.488  17.857  0.00  0.00    +0.000 N 
ATOM      5  H   UNL     1       2.468   5.881  18.554  0.00  0.00    +0.000 HD
ENDROOT
BRANCH   1   6
ATOM      6  C   UNL     1       5.766   4.458  16.800  0.00  0.00    +0.000 C 
BRANCH   6   7
ATOM      7  C   UNL     1       5.817   4.064  15.309  0.00  0.00    +0.000 C 
BRANCH   7   8
ATOM      8  C   UNL     1       6.777   4.900  14.471  0.00  0.00    +0.000 C 
BRANCH   8  10
ATOM      9  C   UNL     1       5.846   3.506  12.829  0.00  0.00    +0.000 C 
ATOM     10  O   UNL     1       6.969   4.306  13.191  0.00  0.00    +0.000 OA
ENDBRANCH   8  10
ENDBRANCH   7   8
ENDBRANCH   6   7
ENDBRANCH   1   6
BRANCH   1  11
ATOM     11  C   UNL     1       3.357   3.769  17.223  0.00  0.00    +0.000 C 
BRANCH  11  12
ATOM     12  C   UNL     1       3.531   2.583  18.195  0.00  0.00    +0.000 C 
BRANCH  12  13
ATOM     13  C   UNL     1       2.289   2.348  19.090  0.00  0.00    +0.000 C 
ATOM     14  C   UNL     1       1.153   3.367  18.823  0.00  0.00    +0.000 C 
ATOM     15  C   UNL     1       0.916   4.005  20.201  0.00  0.00    +0.000 C 
ATOM     16  C   UNL     1       2.146   4.855  20.576  0.00  0.00    +0.000 C 
ATOM     17  C   UNL     1       3.186   3.802  20.985  0.00  0.00    +0.000 C 
ATOM     18  C   UNL     1       2.486   2.483  20.627  0.00  0.00    +0.000 C 
ATOM     19  C   UNL     1       1.064   2.792  21.116  0.00  0.00    +0.000 C 
ENDBRANCH  12  13
ENDBRANCH  11  12
ENDBRANCH   1  11
BRANCH   4  20
ATOM     20  C   UNL     1       2.445   7.880  17.914  0.00  0.00    +0.000 C 
BRANCH  20  21
ATOM     21  C   UNL     1       2.032   8.295  19.332  0.00  0.00    +0.000 C 
BRANCH  21  22
ATOM     22  C   UNL     1       0.888   9.318  19.292  0.00  0.00    +0.000 C 
BRANCH  22  23
ATOM     23  C   UNL     1       0.445   9.815  20.649  0.00  0.00    +0.000 A 
ATOM     24  C   UNL     1       0.125  11.161  20.850  0.00  0.00    +0.000 A 
ATOM     25  C   UNL     1      -0.324  11.570  22.102  0.00  0.00    +0.000 A 
ATOM     26  N   UNL     1      -0.481  10.738  23.152  0.00  0.00    +0.000 NA
ATOM     27  C   UNL     1      -0.168   9.441  22.941  0.00  0.00    +0.000 A 
ATOM     28  C   UNL     1       0.291   8.939  21.727  0.00  0.00    +0.000 A 
ENDBRANCH  22  23
ENDBRANCH  21  22
ENDBRANCH  20  21
ENDBRANCH   4  20
TORSDOF 11
ENDMDL
MODEL 2
REMARK VINA RESULT:      -7.0      4.763      5.581
REMARK  Name = 
REMARK  12 active torsions:
REMARK  status: ('A' for Active; 'I' for Inactive)
REMARK    1  A    between atoms: C_1  and  O_2
REMARK    2  A    between atoms: O_2  and  C_3
REMARK    3  A    between atoms: C_3  and  C_4
REMARK    4  A    between atoms: C_4  and  C_5
REMARK    5  A    between atoms: C_5  and  N_6
REMARK    6  A    between atoms: N_6  and  C_7
REMARK    7  A    between atoms: C_7  and  C_8
REMARK    8  A    between atoms: C_8  and  C_9
REMARK    9  A    between atoms: N_18  and  C_19
REMARK   10  A    between atoms: C_19  and  C_20
REMARK   11  A    between atoms: C_20  and  C_21
REMARK   12  A    between atoms: C_21  and  C_22
REMARK                            x       y       z     vdW  Elec       q    Type
REMARK                         _______ _______ _______ _____ _____    ______ ____
ROOT
ATOM      1  N   UNL     1       6.424   5.185  17.430  0.00  0.00    +0.000 N 
ATOM      2  C   UNL     1       7.196   6.291  17.067  0.00  0.00    +0.000 C 
ATOM      3  O   UNL     1       7.823   6.365  16.008  0.00  0.00    +0.000 OA
ATOM      4  N   UNL     1       7.190   7.338  17.953  0.00  0.00    +0.000 N 
ATOM      5  H   UNL     1       7.341   7.049  18.906  0.00  0.00    +0.000 HD
ENDROOT
BRANCH   1   6
ATOM      6  C   UNL     1       6.280   4.107  16.417  0.00  0.00    +0.000 C 
BRANCH   6   7
ATOM      7  C   UNL     1       5.451   4.500  15.177  0.00  0.00    +0.000 C 
BRANCH   7   8
ATOM      8  C   UNL     1       6.207   4.392  13.856  0.00  0.00    +0.000 C 
BRANCH   8  10
ATOM      9  C   UNL     1       5.318   3.304  11.977  0.00  0.00    +0.000 C 
ATOM     10  O   UNL     1       5.955   3.133  13.240  0.00  0.00    +0.000 OA
ENDBRANCH   8  10
ENDBRANCH   7   8
ENDBRANCH   6   7
ENDBRANCH   1   6
BRANCH   1  11
ATOM     11  C   UNL     1       5.527   5.140  18.613  0.00  0.00    +0.000 C 
BRANCH  11  12
ATOM     12  C   UNL     1       4.502   3.986  18.621  0.00  0.00    +0.000 C 
BRANCH  12  13
ATOM     13  C   UNL     1       3.400   4.166  19.694  0.00  0.00    +0.000 C 
ATOM     14  C   UNL     1       2.971   2.828  20.348  0.00  0.00    +0.000 C 
ATOM     15  C   UNL     1       1.458   2.772  20.087  0.00  0.00    +0.000 C 
ATOM     16  C   UNL     1       1.219   2.583  18.575  0.00  0.00    +0.000 C 
ATOM     17  C   UNL     1       1.501   3.979  18.000  0.00  0.00    +0.000 C 
ATOM     18  C   UNL     1       2.035   4.742  19.220  0.00  0.00    +0.000 C 
ATOM     19  C   UNL     1       1.069   4.233  20.300  0.00  0.00    +0.000 C 
ENDBRANCH  12  13
ENDBRANCH  11  12
ENDBRANCH   1  11
BRANCH   4  20
ATOM     20  C   UNL     1       7.765   8.624  17.585  0.00  0.00    +0.000 C 
BRANCH  20  21
ATOM     21  C   UNL     1       8.646   9.197  18.704  0.00  0.00    +0.000 C 
BRANCH  21  22
ATOM     22  C   UNL     1       9.395  10.448  18.224  0.00  0.00    +0.000 C 
BRANCH  22  23
ATOM     23  C   UNL     1       9.424  11.582  19.224  0.00  0.00    +0.000 A 
ATOM     24  C   UNL     1       8.934  12.847  18.887  0.00  0.00    +0.000 A 
ATOM     25  C   UNL     1       8.935  13.851  19.850  0.00  0.00    +0.000 A 
ATOM     26  N   UNL     1       9.379  13.680  21.113  0.00  0.00    +0.000 NA
ATOM     27  C   UNL     1       9.848  12.452  21.421  0.00  0.00    +0.000 A 
ATOM     28  C   UNL     1       9.891  11.388  20.526  0.00  0.00    +0.000 A 
ENDBRANCH  22  23
ENDBRANCH  21  22
ENDBRANCH  20  21
ENDBRANCH   4  20
TORSDOF 11
ENDMDL
MODEL 3
REMARK VINA RESULT:      -7.0      4.749      6.004
REMARK  Name = 
REMARK  12 active torsions:
REMARK  status: ('A' for Active; 'I' for Inactive)
REMARK    1  A    between atoms: C_1  and  O_2
REMARK    2  A    between atoms: O_2  and  C_3
REMARK    3  A    between atoms: C_3  and  C_4
REMARK    4  A    between atoms: C_4  and  C_5
REMARK    5  A    between atoms: C_5  and  N_6
REMARK    6  A    between atoms: N_6  and  C_7
REMARK    7  A    between atoms: C_7  and  C_8
REMARK    8  A    between atoms: C_8  and  C_9
REMARK    9  A    between atoms: N_18  and  C_19
REMARK   10  A    between atoms: C_19  and  C_20
REMARK   11  A    between atoms: C_20  and  C_21
REMARK   12  A    between atoms: C_21  and  C_22
REMARK                            x       y       z     vdW  Elec       q    Type
REMARK                         _______ _______ _______ _____ _____    ______ ____
ROOT
ATOM      1  N   UNL     1       5.493   5.389  17.084  0.00  0.00    +0.000 N 
ATOM      2  C   UNL     1       6.783   5.924  17.083  0.00  0.00    +0.000 C 
ATOM      3  O   UNL     1       7.747   5.374  16.547  0.00  0.00    +0.000 OA
ATOM      4  N   UNL     1       6.921   7.146  17.689  0.00  0.00    +0.000 N 
ATOM      5  H   UNL     1       6.478   7.191  18.593  0.00  0.00    +0.000 HD
ENDROOT
BRANCH   1   6
ATOM      6  C   UNL     1       5.281   4.149  16.293  0.00  0.00    +0.000 C 
BRANCH   6   7
ATOM      7  C   UNL     1       5.032   4.383  14.789  0.00  0.00    +0.000 C 
BRANCH   7   8
ATOM      8  C   UNL     1       6.135   3.852  13.879  0.00  0.00    +0.000 C 
BRANCH   8  10
ATOM      9  C   UNL     1       6.439   2.694  11.861  0.00  0.00    +0.000 C 
ATOM     10  O   UNL     1       5.636   3.639  12.563  0.00  0.00    +0.000 OA
ENDBRANCH   8  10
ENDBRANCH   7   8
ENDBRANCH   6   7
ENDBRANCH   1   6
BRANCH   1  11
ATOM     11  C   UNL     1       4.286   6.108  17.569  0.00  0.00    +0.000 C 
BRANCH  11  12
ATOM     12  C   UNL     1       3.038   5.229  17.793  0.00  0.00    +0.000 C 
BRANCH  12  13
ATOM     13  C   UNL     1       2.813   4.868  19.282  0.00  0.00    +0.000 C 
ATOM     14  C   UNL     1       3.755   3.741  19.778  0.00  0.00    +0.000 C 
ATOM     15  C   UNL     1       2.785   2.669  20.296  0.00  0.00    +0.000 C 
ATOM     16  C   UNL     1       2.022   2.065  19.100  0.00  0.00    +0.000 C 
ATOM     17  C   UNL     1       0.997   3.156  18.754  0.00  0.00    +0.000 C 
ATOM     18  C   UNL     1       1.414   4.312  19.674  0.00  0.00    +0.000 C 
ATOM     19  C   UNL     1       1.719   3.534  20.963  0.00  0.00    +0.000 C 
ENDBRANCH  12  13
ENDBRANCH  11  12
ENDBRANCH   1  11
BRANCH   4  20
ATOM     20  C   UNL     1       8.156   7.906  17.556  0.00  0.00    +0.000 C 
BRANCH  20  21
ATOM     21  C   UNL     1       7.979   9.367  17.991  0.00  0.00    +0.000 C 
BRANCH  21  22
ATOM     22  C   UNL     1       9.046   9.763  19.022  0.00  0.00    +0.000 C 
BRANCH  22  23
ATOM     23  C   UNL     1       9.590  11.164  18.852  0.00  0.00    +0.000 A 
ATOM     24  C   UNL     1       9.379  12.138  19.832  0.00  0.00    +0.000 A 
ATOM     25  C   UNL     1       9.937  13.401  19.660  0.00  0.00    +0.000 A 
ATOM     26  N   UNL     1      10.687  13.752  18.595  0.00  0.00    +0.000 NA
ATOM     27  C   UNL     1      10.882  12.799  17.659  0.00  0.00    +0.000 A 
ATOM     28  C   UNL     1      10.363  11.510  17.741  0.00  0.00    +0.000 A 
ENDBRANCH  22  23
ENDBRANCH  21  22
ENDBRANCH  20  21
ENDBRANCH   4  20
TORSDOF 11
ENDMDL
MODEL 4
REMARK VINA RESULT:      -6.9      4.774      5.911
REMARK  Name = 
REMARK  12 active torsions:
REMARK  status: ('A' for Active; 'I' for Inactive)
REMARK    1  A    between atoms: C_1  and  O_2
REMARK    2  A    between atoms: O_2  and  C_3
REMARK    3  A    between atoms: C_3  and  C_4
REMARK    4  A    between atoms: C_4  and  C_5
REMARK    5  A    between atoms: C_5  and  N_6
REMARK    6  A    between atoms: N_6  and  C_7
REMARK    7  A    between atoms: C_7  and  C_8
REMARK    8  A    between atoms: C_8  and  C_9
REMARK    9  A    between atoms: N_18  and  C_19
REMARK   10  A    between atoms: C_19  and  C_20
REMARK   11  A    between atoms: C_20  and  C_21
REMARK   12  A    between atoms: C_21  and  C_22
REMARK                            x       y       z     vdW  Elec       q    Type
REMARK                         _______ _______ _______ _____ _____    ______ ____
ROOT
ATOM      1  N   UNL     1       5.984   5.120  17.216  0.00  0.00    +0.000 N 
ATOM      2  C   UNL     1       6.986   6.016  16.836  0.00  0.00    +0.000 C 
ATOM      3  O   UNL     1       7.713   5.849  15.855  0.00  0.00    +0.000 OA
ATOM      4  N   UNL     1       7.097   7.145  17.607  0.00  0.00    +0.000 N 
ATOM      5  H   UNL     1       7.099   6.950  18.595  0.00  0.00    +0.000 HD
ENDROOT
BRANCH   1   6
ATOM      6  C   UNL     1       5.732   3.973  16.305  0.00  0.00    +0.000 C 
BRANCH   6   7
ATOM      7  C   UNL     1       5.169   4.363  14.923  0.00  0.00    +0.000 C 
BRANCH   7   8
ATOM      8  C   UNL     1       5.985   3.846  13.744  0.00  0.00    +0.000 C 
BRANCH   8  10
ATOM      9  C   UNL     1       5.611   2.618  11.779  0.00  0.00    +0.000 C 
ATOM     10  O   UNL     1       5.158   3.696  12.594  0.00  0.00    +0.000 OA
ENDBRANCH   8  10
ENDBRANCH   7   8
ENDBRANCH   6   7
ENDBRANCH   1   6
BRANCH   1  11
ATOM     11  C   UNL     1       4.987   5.380  18.285  0.00  0.00    +0.000 C 
BRANCH  11  12
ATOM     12  C   UNL     1       4.736   4.206  19.255  0.00  0.00    +0.000 C 
BRANCH  12  13
ATOM     13  C   UNL     1       3.531   3.327  18.841  0.00  0.00    +0.000 C 
ATOM     14  C   UNL     1       2.386   4.142  18.189  0.00  0.00    +0.000 C 
ATOM     15  C   UNL     1       1.172   3.822  19.074  0.00  0.00    +0.000 C 
ATOM     16  C   UNL     1       1.386   4.457  20.463  0.00  0.00    +0.000 C 
ATOM     17  C   UNL     1       2.406   3.518  21.123  0.00  0.00    +0.000 C 
ATOM     18  C   UNL     1       2.781   2.570  19.974  0.00  0.00    +0.000 C 
ATOM     19  C   UNL     1       1.395   2.338  19.354  0.00  0.00    +0.000 C 
ENDBRANCH  12  13
ENDBRANCH  11  12
ENDBRANCH   1  11
BRANCH   4  20
ATOM     20  C   UNL     1       7.942   8.253  17.182  0.00  0.00    +0.000 C 
BRANCH  20  21
ATOM     21  C   UNL     1       7.839   9.450  18.138  0.00  0.00    +0.000 C 
BRANCH  21  22
ATOM     22  C   UNL     1       9.050   9.504  19.080  0.00  0.00    +0.000 C 
BRANCH  22  23
ATOM     23  C   UNL     1       9.770  10.833  19.098  0.00  0.00    +0.000 A 
ATOM     24  C   UNL     1      10.241  11.408  17.915  0.00  0.00    +0.000 A 
ATOM     25  C   UNL     1      10.857  12.655  17.968  0.00  0.00    +0.000 A 
ATOM     26  N   UNL     1      11.026  13.362  19.105  0.00  0.00    +0.000 NA
ATOM     27  C   UNL     1      10.563  12.792  20.238  0.00  0.00    +0.000 A 
ATOM     28  C   UNL     1       9.937  11.550  20.286  0.00  0.00    +0.000 A 
ENDBRANCH  22  23
ENDBRANCH  21  22
ENDBRANCH  20  21
ENDBRANCH   4  20
TORSDOF 11
ENDMDL
MODEL 5
REMARK VINA RESULT:      -6.9      4.828      6.255
REMARK  Name = 
REMARK  12 active torsions:
REMARK  status: ('A' for Active; 'I' for Inactive)
REMARK    1  A    between atoms: C_1  and  O_2
REMARK    2  A    between atoms: O_2  and  C_3
REMARK    3  A    between atoms: C_3  and  C_4
REMARK    4  A    between atoms: C_4  and  C_5
REMARK    5  A    between atoms: C_5  and  N_6
REMARK    6  A    between atoms: N_6  and  C_7
REMARK    7  A    between atoms: C_7  and  C_8
REMARK    8  A    between atoms: C_8  and  C_9
REMARK    9  A    between atoms: N_18  and  C_19
REMARK   10  A    between atoms: C_19  and  C_20
REMARK   11  A    between atoms: C_20  and  C_21
REMARK   12  A    between atoms: C_21  and  C_22
REMARK                            x       y       z     vdW  Elec       q    Type
REMARK                         _______ _______ _______ _____ _____    ______ ____
ROOT
ATOM      1  N   UNL     1       5.632   5.757  16.831  0.00  0.00    +0.000 N 
ATOM      2  C   UNL     1       6.928   6.265  16.946  0.00  0.00    +0.000 C 
ATOM      3  O   UNL     1       7.767   6.199  16.047  0.00  0.00    +0.000 OA
ATOM      4  N   UNL     1       7.216   6.896  18.129  0.00  0.00    +0.000 N 
ATOM      5  H   UNL     1       6.927   6.371  18.938  0.00  0.00    +0.000 HD
ENDROOT
BRANCH   1   6
ATOM      6  C   UNL     1       5.240   5.215  15.503  0.00  0.00    +0.000 C 
BRANCH   6   7
ATOM      7  C   UNL     1       5.900   3.869  15.141  0.00  0.00    +0.000 C 
BRANCH   7   8
ATOM      8  C   UNL     1       6.227   3.707  13.661  0.00  0.00    +0.000 C 
BRANCH   8  10
ATOM      9  C   UNL     1       5.156   3.042  11.681  0.00  0.00    +0.000 C 
ATOM     10  O   UNL     1       5.044   3.814  12.874  0.00  0.00    +0.000 OA
ENDBRANCH   8  10
ENDBRANCH   7   8
ENDBRANCH   6   7
ENDBRANCH   1   6
BRANCH   1  11
ATOM     11  C   UNL     1       4.553   5.974  17.829  0.00  0.00    +0.000 C 
BRANCH  11  12
ATOM     12  C   UNL     1       3.204   5.298  17.502  0.00  0.00    +0.000 C 
BRANCH  12  13
ATOM     13  C   UNL     1       2.249   5.238  18.720  0.00  0.00    +0.000 C 
ATOM     14  C   UNL     1       2.992   5.350  20.075  0.00  0.00    +0.000 C 
ATOM     15  C   UNL     1       2.576   4.070  20.816  0.00  0.00    +0.000 C 
ATOM     16  C   UNL     1       3.205   2.855  20.106  0.00  0.00    +0.000 C 
ATOM     17  C   UNL     1       2.331   2.691  18.854  0.00  0.00    +0.000 C 
ATOM     18  C   UNL     1       1.427   3.931  18.912  0.00  0.00    +0.000 C 
ATOM     19  C   UNL     1       1.107   3.961  20.413  0.00  0.00    +0.000 C 
ENDBRANCH  12  13
ENDBRANCH  11  12
ENDBRANCH   1  11
BRANCH   4  20
ATOM     20  C   UNL     1       8.446   7.661  18.282  0.00  0.00    +0.000 C 
BRANCH  20  21
ATOM     21  C   UNL     1       8.196   9.172  18.183  0.00  0.00    +0.000 C 
BRANCH  21  22
ATOM     22  C   UNL     1       8.778   9.904  19.401  0.00  0.00    +0.000 C 
BRANCH  22  23
ATOM     23  C   UNL     1       9.901  10.863  19.077  0.00  0.00    +0.000 A 
ATOM     24  C   UNL     1      10.113  11.300  17.766  0.00  0.00    +0.000 A 
ATOM     25  C   UNL     1      11.127  12.221  17.517  0.00  0.00    +0.000 A 
ATOM     26  N   UNL     1      11.928  12.734  18.474  0.00  0.00    +0.000 NA
ATOM     27  C   UNL     1      11.708  12.302  19.734  0.00  0.00    +0.000 A 
ATOM     28  C   UNL     1      10.722  11.383  20.081  0.00  0.00    +0.000 A 
ENDBRANCH  22  23
ENDBRANCH  21  22
ENDBRANCH  20  21
ENDBRANCH   4  20
TORSDOF 11
ENDMDL
MODEL 6
REMARK VINA RESULT:      -6.9      4.522      6.007
REMARK  Name = 
REMARK  12 active torsions:
REMARK  status: ('A' for Active; 'I' for Inactive)
REMARK    1  A    between atoms: C_1  and  O_2
REMARK    2  A    between atoms: O_2  and  C_3
REMARK    3  A    between atoms: C_3  and  C_4
REMARK    4  A    between atoms: C_4  and  C_5
REMARK    5  A    between atoms: C_5  and  N_6
REMARK    6  A    between atoms: N_6  and  C_7
REMARK    7  A    between atoms: C_7  and  C_8
REMARK    8  A    between atoms: C_8  and  C_9
REMARK    9  A    between atoms: N_18  and  C_19
REMARK   10  A    between atoms: C_19  and  C_20
REMARK   11  A    between atoms: C_20  and  C_21
REMARK   12  A    between atoms: C_21  and  C_22
REMARK                            x       y       z     vdW  Elec       q    Type
REMARK                         _______ _______ _______ _____ _____    ______ ____
ROOT
ATOM      1  N   UNL     1       5.548   5.025  16.850  0.00  0.00    +0.000 N 
ATOM      2  C   UNL     1       6.820   5.483  17.201  0.00  0.00    +0.000 C 
ATOM      3  O   UNL     1       7.863   4.919  16.865  0.00  0.00    +0.000 OA
ATOM      4  N   UNL     1       6.855   6.647  17.925  0.00  0.00    +0.000 N 
ATOM      5  H   UNL     1       6.209   6.651  18.698  0.00  0.00    +0.000 HD
ENDROOT
BRANCH   1   6
ATOM      6  C   UNL     1       5.486   3.861  15.929  0.00  0.00    +0.000 C 
BRANCH   6   7
ATOM      7  C   UNL     1       6.216   4.067  14.586  0.00  0.00    +0.000 C 
BRANCH   7   8
ATOM      8  C   UNL     1       5.383   3.715  13.358  0.00  0.00    +0.000 C 
BRANCH   8  10
ATOM      9  C   UNL     1       7.259   4.491  12.181  0.00  0.00    +0.000 C 
ATOM     10  O   UNL     1       6.224   3.513  12.227  0.00  0.00    +0.000 OA
ENDBRANCH   8  10
ENDBRANCH   7   8
ENDBRANCH   6   7
ENDBRANCH   1   6
BRANCH   1  11
ATOM     11  C   UNL     1       4.289   5.776  17.095  0.00  0.00    +0.000 C 
BRANCH  11  12
ATOM     12  C   UNL     1       3.553   5.422  18.404  0.00  0.00    +0.000 C 
BRANCH  12  13
ATOM     13  C   UNL     1       2.392   4.419  18.192  0.00  0.00    +0.000 C 
ATOM     14  C   UNL     1       1.302   4.518  19.289  0.00  0.00    +0.000 C 
ATOM     15  C   UNL     1       1.241   3.094  19.860  0.00  0.00    +0.000 C 
ATOM     16  C   UNL     1       2.554   2.802  20.615  0.00  0.00    +0.000 C 
ATOM     17  C   UNL     1       3.560   2.553  19.482  0.00  0.00    +0.000 C 
ATOM     18  C   UNL     1       2.746   2.905  18.228  0.00  0.00    +0.000 C 
ATOM     19  C   UNL     1       1.400   2.261  18.591  0.00  0.00    +0.000 C 
ENDBRANCH  12  13
ENDBRANCH  11  12
ENDBRANCH   1  11
BRANCH   4  20
ATOM     20  C   UNL     1       8.115   7.342  18.154  0.00  0.00    +0.000 C 
BRANCH  20  21
ATOM     21  C   UNL     1       7.968   8.861  17.987  0.00  0.00    +0.000 C 
BRANCH  21  22
ATOM     22  C   UNL     1       8.931   9.609  18.921  0.00  0.00    +0.000 C 
BRANCH  22  23
ATOM     23  C   UNL     1       9.457  10.912  18.363  0.00  0.00    +0.000 A 
ATOM     24  C   UNL     1      10.829  11.112  18.183  0.00  0.00    +0.000 A 
ATOM     25  C   UNL     1      11.270  12.307  17.622  0.00  0.00    +0.000 A 
ATOM     26  N   UNL     1      10.446  13.300  17.228  0.00  0.00    +0.000 NA
ATOM     27  C   UNL     1       9.124  13.089  17.408  0.00  0.00    +0.000 A 
ATOM     28  C   UNL     1       8.589  11.931  17.962  0.00  0.00    +0.000 A 
ENDBRANCH  22  23
ENDBRANCH  21  22
ENDBRANCH  20  21
ENDBRANCH   4  20
TORSDOF 11
ENDMDL
MODEL 7
REMARK VINA RESULT:      -6.9      1.715      2.066
REMARK  Name = 
REMARK  12 active torsions:
REMARK  status: ('A' for Active; 'I' for Inactive)
REMARK    1  A    between atoms: C_1  and  O_2
REMARK    2  A    between atoms: O_2  and  C_3
REMARK    3  A    between atoms: C_3  and  C_4
REMARK    4  A    between atoms: C_4  and  C_5
REMARK    5  A    between atoms: C_5  and  N_6
REMARK    6  A    between atoms: N_6  and  C_7
REMARK    7  A    between atoms: C_7  and  C_8
REMARK    8  A    between atoms: C_8  and  C_9
REMARK    9  A    between atoms: N_18  and  C_19
REMARK   10  A    between atoms: C_19  and  C_20
REMARK   11  A    between atoms: C_20  and  C_21
REMARK   12  A    between atoms: C_21  and  C_22
REMARK                            x       y       z     vdW  Elec       q    Type
REMARK                         _______ _______ _______ _____ _____    ______ ____
ROOT
ATOM      1  N   UNL     1       4.411   4.969  17.260  0.00  0.00    +0.000 N 
ATOM      2  C   UNL     1       4.313   6.358  17.368  0.00  0.00    +0.000 C 
ATOM      3  O   UNL     1       5.216   7.131  17.042  0.00  0.00    +0.000 OA
ATOM      4  N   UNL     1       3.114   6.835  17.830  0.00  0.00    +0.000 N 
ATOM      5  H   UNL     1       2.786   6.353  18.652  0.00  0.00    +0.000 HD
ENDROOT
BRANCH   1   6
ATOM      6  C   UNL     1       5.634   4.432  16.609  0.00  0.00    +0.000 C 
BRANCH   6   7
ATOM      7  C   UNL     1       5.590   4.427  15.067  0.00  0.00    +0.000 C 
BRANCH   7   8
ATOM      8  C   UNL     1       6.958   4.519  14.399  0.00  0.00    +0.000 C 
BRANCH   8  10
ATOM      9  C   UNL     1       6.043   3.373  12.567  0.00  0.00    +0.000 C 
ATOM     10  O   UNL     1       6.823   4.491  12.981  0.00  0.00    +0.000 OA
ENDBRANCH   8  10
ENDBRANCH   7   8
ENDBRANCH   6   7
ENDBRANCH   1   6
BRANCH   1  11
ATOM     11  C   UNL     1       3.283   4.028  17.482  0.00  0.00    +0.000 C 
BRANCH  11  12
ATOM     12  C   UNL     1       3.622   2.774  18.315  0.00  0.00    +0.000 C 
BRANCH  12  13
ATOM     13  C   UNL     1       2.484   2.366  19.283  0.00  0.00    +0.000 C 
ATOM     14  C   UNL     1       1.125   3.017  18.924  0.00  0.00    +0.000 C 
ATOM     15  C   UNL     1       0.738   3.766  20.209  0.00  0.00    +0.000 C 
ATOM     16  C   UNL     1       1.713   4.943  20.413  0.00  0.00    +0.000 C 
ATOM     17  C   UNL     1       2.989   4.256  20.922  0.00  0.00    +0.000 C 
ATOM     18  C   UNL     1       2.646   2.766  20.778  0.00  0.00    +0.000 C 
ATOM     19  C   UNL     1       1.194   2.774  21.276  0.00  0.00    +0.000 C 
ENDBRANCH  12  13
ENDBRANCH  11  12
ENDBRANCH   1  11
BRANCH   4  20
ATOM     20  C   UNL     1       2.809   8.259  17.772  0.00  0.00    +0.000 C 
BRANCH  20  21
ATOM     21  C   UNL     1       1.573   8.614  18.610  0.00  0.00    +0.000 C 
BRANCH  21  22
ATOM     22  C   UNL     1       1.327  10.129  18.605  0.00  0.00    +0.000 C 
BRANCH  22  23
ATOM     23  C   UNL     1      -0.128  10.526  18.502  0.00  0.00    +0.000 A 
ATOM     24  C   UNL     1      -1.001   9.834  17.657  0.00  0.00    +0.000 A 
ATOM     25  C   UNL     1      -2.343  10.200  17.625  0.00  0.00    +0.000 A 
ATOM     26  N   UNL     1      -2.870  11.191  18.375  0.00  0.00    +0.000 NA
ATOM     27  C   UNL     1      -2.013  11.847  19.186  0.00  0.00    +0.000 A 
ATOM     28  C   UNL     1      -0.656  11.557  19.284  0.00  0.00    +0.000 A 
ENDBRANCH  22  23
ENDBRANCH  21  22
ENDBRANCH  20  21
ENDBRANCH   4  20
TORSDOF 11
ENDMDL
MODEL 8
REMARK VINA RESULT:      -6.9      1.810      2.935
REMARK  Name = 
REMARK  12 active torsions:
REMARK  status: ('A' for Active; 'I' for Inactive)
REMARK    1  A    between atoms: C_1  and  O_2
REMARK    2  A    between atoms: O_2  and  C_3
REMARK    3  A    between atoms: C_3  and  C_4
REMARK    4  A    between atoms: C_4  and  C_5
REMARK    5  A    between atoms: C_5  and  N_6
REMARK    6  A    between atoms: N_6  and  C_7
REMARK    7  A    between atoms: C_7  and  C_8
REMARK    8  A    between atoms: C_8  and  C_9
REMARK    9  A    between atoms: N_18  and  C_19
REMARK   10  A    between atoms: C_19  and  C_20
REMARK   11  A    between atoms: C_20  and  C_21
REMARK   12  A    between atoms: C_21  and  C_22
REMARK                            x       y       z     vdW  Elec       q    Type
REMARK                         _______ _______ _______ _____ _____    ______ ____
ROOT
ATOM      1  N   UNL     1       4.884   5.874  18.147  0.00  0.00    +0.000 N 
ATOM      2  C   UNL     1       4.108   6.820  17.472  0.00  0.00    +0.000 C 
ATOM      3  O   UNL     1       4.245   7.084  16.277  0.00  0.00    +0.000 OA
ATOM      4  N   UNL     1       3.131   7.428  18.217  0.00  0.00    +0.000 N 
ATOM      5  H   UNL     1       3.462   7.756  19.110  0.00  0.00    +0.000 HD
ENDROOT
BRANCH   1   6
ATOM      6  C   UNL     1       5.838   5.082  17.327  0.00  0.00    +0.000 C 
BRANCH   6   7
ATOM      7  C   UNL     1       7.123   5.838  16.931  0.00  0.00    +0.000 C 
BRANCH   7   8
ATOM      8  C   UNL     1       7.541   6.925  17.915  0.00  0.00    +0.000 C 
BRANCH   8  10
ATOM      9  C   UNL     1       8.294   9.142  18.062  0.00  0.00    +0.000 C 
ATOM     10  O   UNL     1       7.590   8.192  17.267  0.00  0.00    +0.000 OA
ENDBRANCH   8  10
ENDBRANCH   7   8
ENDBRANCH   6   7
ENDBRANCH   1   6
BRANCH   1  11
ATOM     11  C   UNL     1       4.627   5.415  19.536  0.00  0.00    +0.000 C 
BRANCH  11  12
ATOM     12  C   UNL     1       3.145   5.405  19.966  0.00  0.00    +0.000 C 
BRANCH  12  13
ATOM     13  C   UNL     1       2.543   3.980  20.026  0.00  0.00    +0.000 C 
ATOM     14  C   UNL     1       3.525   2.890  19.529  0.00  0.00    +0.000 C 
ATOM     15  C   UNL     1       2.750   2.202  18.394  0.00  0.00    +0.000 C 
ATOM     16  C   UNL     1       2.607   3.189  17.218  0.00  0.00    +0.000 C 
ATOM     17  C   UNL     1       1.509   4.149  17.699  0.00  0.00    +0.000 C 
ATOM     18  C   UNL     1       1.286   3.702  19.151  0.00  0.00    +0.000 C 
ATOM     19  C   UNL     1       1.339   2.178  18.975  0.00  0.00    +0.000 C 
ENDBRANCH  12  13
ENDBRANCH  11  12
ENDBRANCH   1  11
BRANCH   4  20
ATOM     20  C   UNL     1       2.118   8.257  17.578  0.00  0.00    +0.000 C 
BRANCH  20  21
ATOM     21  C   UNL     1       1.991   9.629  18.254  0.00  0.00    +0.000 C 
BRANCH  21  22
ATOM     22  C   UNL     1       0.556   9.866  18.746  0.00  0.00    +0.000 C 
BRANCH  22  23
ATOM     23  C   UNL     1       0.408   9.901  20.251  0.00  0.00    +0.000 A 
ATOM     24  C   UNL     1       1.135   9.024  21.062  0.00  0.00    +0.000 A 
ATOM     25  C   UNL     1       1.006   9.120  22.445  0.00  0.00    +0.000 A 
ATOM     26  N   UNL     1       0.219  10.023  23.065  0.00  0.00    +0.000 NA
ATOM     27  C   UNL     1      -0.474  10.862  22.266  0.00  0.00    +0.000 A 
ATOM     28  C   UNL     1      -0.414  10.841  20.876  0.00  0.00    +0.000 A 
ENDBRANCH  22  23
ENDBRANCH  21  22
ENDBRANCH  20  21
ENDBRANCH   4  20
TORSDOF 11
ENDMDL
MODEL 9
REMARK VINA RESULT:      -6.8      1.031      1.348
REMARK  Name = 
REMARK  12 active torsions:
REMARK  status: ('A' for Active; 'I' for Inactive)
REMARK    1  A    between atoms: C_1  and  O_2
REMARK    2  A    between atoms: O_2  and  C_3
REMARK    3  A    between atoms: C_3  and  C_4
REMARK    4  A    between atoms: C_4  and  C_5
REMARK    5  A    between atoms: C_5  and  N_6
REMARK    6  A    between atoms: N_6  and  C_7
REMARK    7  A    between atoms: C_7  and  C_8
REMARK    8  A    between atoms: C_8  and  C_9
REMARK    9  A    between atoms: N_18  and  C_19
REMARK   10  A    between atoms: C_19  and  C_20
REMARK   11  A    between atoms: C_20  and  C_21
REMARK   12  A    between atoms: C_21  and  C_22
REMARK                            x       y       z     vdW  Elec       q    Type
REMARK                         _______ _______ _______ _____ _____    ______ ____
ROOT
ATOM      1  N   UNL     1       3.721   4.697  17.526  0.00  0.00    +0.000 N 
ATOM      2  C   UNL     1       3.616   6.063  17.797  0.00  0.00    +0.000 C 
ATOM      3  O   UNL     1       4.589   6.807  17.929  0.00  0.00    +0.000 OA
ATOM      4  N   UNL     1       2.339   6.559  17.870  0.00  0.00    +0.000 N 
ATOM      5  H   UNL     1       1.730   5.998  18.443  0.00  0.00    +0.000 HD
ENDROOT
BRANCH   1   6
ATOM      6  C   UNL     1       5.086   4.166  17.278  0.00  0.00    +0.000 C 
BRANCH   6   7
ATOM      7  C   UNL     1       5.533   4.213  15.803  0.00  0.00    +0.000 C 
BRANCH   7   8
ATOM      8  C   UNL     1       6.924   4.799  15.586  0.00  0.00    +0.000 C 
BRANCH   8  10
ATOM      9  C   UNL     1       7.522   6.533  17.049  0.00  0.00    +0.000 C 
ATOM     10  O   UNL     1       6.911   6.206  15.803  0.00  0.00    +0.000 OA
ENDBRANCH   8  10
ENDBRANCH   7   8
ENDBRANCH   6   7
ENDBRANCH   1   6
BRANCH   1  11
ATOM     11  C   UNL     1       2.571   3.817  17.194  0.00  0.00    +0.000 C 
BRANCH  11  12
ATOM     12  C   UNL     1       2.594   2.422  17.854  0.00  0.00    +0.000 C 
BRANCH  12  13
ATOM     13  C   UNL     1       1.638   2.312  19.068  0.00  0.00    +0.000 C 
ATOM     14  C   UNL     1       0.801   3.597  19.294  0.00  0.00    +0.000 C 
ATOM     15  C   UNL     1       1.145   3.997  20.737  0.00  0.00    +0.000 C 
ATOM     16  C   UNL     1       2.617   4.454  20.790  0.00  0.00    +0.000 C 
ATOM     17  C   UNL     1       3.396   3.132  20.725  0.00  0.00    +0.000 C 
ATOM     18  C   UNL     1       2.287   2.102  20.466  0.00  0.00    +0.000 C 
ATOM     19  C   UNL     1       1.201   2.631  21.415  0.00  0.00    +0.000 C 
ENDBRANCH  12  13
ENDBRANCH  11  12
ENDBRANCH   1  11
BRANCH   4  20
ATOM     20  C   UNL     1       2.102   7.996  17.920  0.00  0.00    +0.000 C 
BRANCH  20  21
ATOM     21  C   UNL     1       1.816   8.480  19.348  0.00  0.00    +0.000 C 
BRANCH  21  22
ATOM     22  C   UNL     1       0.701   9.535  19.355  0.00  0.00    +0.000 C 
BRANCH  22  23
ATOM     23  C   UNL     1       0.283   9.994  20.733  0.00  0.00    +0.000 A 
ATOM     24  C   UNL     1      -0.069  11.327  20.968  0.00  0.00    +0.000 A 
ATOM     25  C   UNL     1      -0.494  11.699  22.240  0.00  0.00    +0.000 A 
ATOM     26  N   UNL     1      -0.599  10.843  23.278  0.00  0.00    +0.000 NA
ATOM     27  C   UNL     1      -0.257   9.559  23.032  0.00  0.00    +0.000 A 
ATOM     28  C   UNL     1       0.182   9.093  21.797  0.00  0.00    +0.000 A 
ENDBRANCH  22  23
ENDBRANCH  21  22
ENDBRANCH  20  21
ENDBRANCH   4  20
TORSDOF 11
ENDMDL
