MODEL 1
REMARK VINA RESULT:      -8.1      0.000      0.000
REMARK  Name = 
REMARK  6 active torsions:
REMARK  status: ('A' for Active; 'I' for Inactive)
REMARK    1  A    between atoms: C_1  and  O_2
REMARK    2  A    between atoms: O_2  and  C_3
REMARK    3  A    between atoms: C_6  and  C_7
REMARK    4  A    between atoms: C_8  and  C_9
REMARK    5  A    between atoms: C_9  and  C_11
REMARK    6  A    between atoms: C_12  and  C_13
REMARK                            x       y       z     vdW  Elec       q    Type
REMARK                         _______ _______ _______ _____ _____    ______ ____
ROOT
ATOM      1  C   UNL     1       5.723   5.535  17.160  0.00  0.00    +0.000 A 
ATOM      2  C   UNL     1       5.057   4.611  16.409  0.00  0.00    +0.000 A 
ATOM      3  C   UNL     1       5.492   4.407  14.993  0.00  0.00    +0.000 A 
ATOM      4  C   UNL     1       4.651   3.883  14.003  0.00  0.00    +0.000 A 
ATOM      5  C   UNL     1       5.156   3.579  12.736  0.00  0.00    +0.000 A 
ATOM      6  C   UNL     1       6.509   3.769  12.456  0.00  0.00    +0.000 A 
ATOM      7  C   UNL     1       7.346   4.329  13.419  0.00  0.00    +0.000 A 
ATOM      8  C   UNL     1       6.816   4.689  14.656  0.00  0.00    +0.000 A 
ATOM      9  N   UNL     1       7.571   5.455  15.539  0.00  0.00    +0.000 N 
ATOM     10  C   UNL     1       6.975   6.138  16.569  0.00  0.00    +0.000 A 
ATOM     11  O   UNL     1       7.522   7.139  16.987  0.00  0.00    +0.000 OA
ATOM     12  H   UNL     1       8.473   5.803  15.251  0.00  0.00    +0.000 HD
ENDROOT
BRANCH   2  13
ATOM     13  C   UNL     1       4.032   3.702  16.997  0.00  0.00    +0.000 A 
ATOM     14  C   UNL     1       4.431   2.472  17.530  0.00  0.00    +0.000 A 
ATOM     15  C   UNL     1       3.509   1.611  18.121  0.00  0.00    +0.000 A 
ATOM     16  C   UNL     1       2.180   1.994  18.242  0.00  0.00    +0.000 A 
ATOM     17  C   UNL     1       1.759   3.225  17.725  0.00  0.00    +0.000 A 
ATOM     18  C   UNL     1       2.679   4.076  17.096  0.00  0.00    +0.000 A 
ENDBRANCH   2  13
BRANCH   1  19
ATOM     19  C   UNL     1       5.349   5.868  18.594  0.00  0.00    +0.000 C 
ATOM     20  O   UNL     1       5.784   5.234  19.560  0.00  0.00    +0.000 OA
BRANCH  19  22
ATOM     21  C   UNL     1       3.132   6.969  18.569  0.00  0.00    +0.000 C 
ATOM     22  C   UNL     1       4.444   7.033  18.848  0.00  0.00    +0.000 C 
BRANCH  21  26
ATOM     23  C   UNL     1       0.167   9.998  19.339  0.00  0.00    +0.000 A 
ATOM     24  C   UNL     1       0.647   9.777  18.049  0.00  0.00    +0.000 A 
ATOM     25  C   UNL     1       1.613   8.788  17.810  0.00  0.00    +0.000 A 
ATOM     26  C   UNL     1       2.141   8.025  18.861  0.00  0.00    +0.000 A 
ATOM     27  C   UNL     1       1.634   8.245  20.150  0.00  0.00    +0.000 A 
ATOM     28  C   UNL     1       0.662   9.226  20.386  0.00  0.00    +0.000 A 
BRANCH  23  30
ATOM     29  C   UNL     1      -1.529  11.244  18.285  0.00  0.00    +0.000 C 
ATOM     30  O   UNL     1      -0.790  10.969  19.471  0.00  0.00    +0.000 OA
ENDBRANCH  23  30
ENDBRANCH  21  26
ENDBRANCH  19  22
ENDBRANCH   1  19
TORSDOF 5
ENDMDL
MODEL 2
REMARK VINA RESULT:      -7.8      0.344      1.310
REMARK  Name = 
REMARK  6 active torsions:
REMARK  status: ('A' for Active; 'I' for Inactive)
REMARK    1  A    between atoms: C_1  and  O_2
REMARK    2  A    between atoms: O_2  and  C_3
REMARK    3  A    between atoms: C_6  and  C_7
REMARK    4  A    between atoms: C_8  and  C_9
REMARK    5  A    between atoms: C_9  and  C_11
REMARK    6  A    between atoms: C_12  and  C_13
REMARK                            x       y       z     vdW  Elec       q    Type
REMARK                         _______ _______ _______ _____ _____    ______ ____
ROOT
ATOM      1  C   UNL     1       5.815   5.420  17.323  0.00  0.00    +0.000 A 
ATOM      2  C   UNL     1       5.112   4.521  16.574  0.00  0.00    +0.000 A 
ATOM      3  C   UNL     1       5.470   4.374  15.130  0.00  0.00    +0.000 A 
ATOM      4  C   UNL     1       4.578   3.883  14.168  0.00  0.00    +0.000 A 
ATOM      5  C   UNL     1       5.014   3.631  12.864  0.00  0.00    +0.000 A 
ATOM      6  C   UNL     1       6.348   3.840  12.518  0.00  0.00    +0.000 A 
ATOM      7  C   UNL     1       7.235   4.367  13.455  0.00  0.00    +0.000 A 
ATOM      8  C   UNL     1       6.772   4.677  14.732  0.00  0.00    +0.000 A 
ATOM      9  N   UNL     1       7.572   5.413  15.601  0.00  0.00    +0.000 N 
ATOM     10  C   UNL     1       7.031   6.052  16.687  0.00  0.00    +0.000 A 
ATOM     11  O   UNL     1       7.596   7.040  17.114  0.00  0.00    +0.000 OA
ATOM     12  H   UNL     1       8.455   5.777  15.278  0.00  0.00    +0.000 HD
ENDROOT
BRANCH   2  13
ATOM     13  C   UNL     1       4.126   3.584  17.182  0.00  0.00    +0.000 A 
ATOM     14  C   UNL     1       2.773   3.936  17.212  0.00  0.00    +0.000 A 
ATOM     15  C   UNL     1       1.816   3.072  17.739  0.00  0.00    +0.000 A 
ATOM     16  C   UNL     1       2.190   1.813  18.191  0.00  0.00    +0.000 A 
ATOM     17  C   UNL     1       3.537   1.434  18.160  0.00  0.00    +0.000 A 
ATOM     18  C   UNL     1       4.507   2.317  17.666  0.00  0.00    +0.000 A 
ENDBRANCH   2  13
BRANCH   1  19
ATOM     19  C   UNL     1       5.520   5.695  18.787  0.00  0.00    +0.000 C 
ATOM     20  O   UNL     1       6.095   5.104  19.705  0.00  0.00    +0.000 OA
BRANCH  19  22
ATOM     21  C   UNL     1       3.440   6.967  18.353  0.00  0.00    +0.000 C 
ATOM     22  C   UNL     1       4.514   6.750  19.130  0.00  0.00    +0.000 C 
BRANCH  21  26
ATOM     23  C   UNL     1       0.327   9.791  19.298  0.00  0.00    +0.000 A 
ATOM     24  C   UNL     1       0.861   8.959  20.281  0.00  0.00    +0.000 A 
ATOM     25  C   UNL     1       1.875   8.042  19.961  0.00  0.00    +0.000 A 
ATOM     26  C   UNL     1       2.349   7.918  18.647  0.00  0.00    +0.000 A 
ATOM     27  C   UNL     1       1.815   8.775  17.675  0.00  0.00    +0.000 A 
ATOM     28  C   UNL     1       0.811   9.697  17.996  0.00  0.00    +0.000 A 
BRANCH  23  30
ATOM     29  C   UNL     1      -0.673  11.899  18.996  0.00  0.00    +0.000 C 
ATOM     30  O   UNL     1      -0.642  10.667  19.709  0.00  0.00    +0.000 OA
ENDBRANCH  23  30
ENDBRANCH  21  26
ENDBRANCH  19  22
ENDBRANCH   1  19
TORSDOF 5
ENDMDL
MODEL 3
REMARK VINA RESULT:      -7.8      0.513      1.045
REMARK  Name = 
REMARK  6 active torsions:
REMARK  status: ('A' for Active; 'I' for Inactive)
REMARK    1  A    between atoms: C_1  and  O_2
REMARK    2  A    between atoms: O_2  and  C_3
REMARK    3  A    between atoms: C_6  and  C_7
REMARK    4  A    between atoms: C_8  and  C_9
REMARK    5  A    between atoms: C_9  and  C_11
REMARK    6  A    between atoms: C_12  and  C_13
REMARK                            x       y       z     vdW  Elec       q    Type
REMARK                         _______ _______ _______ _____ _____    ______ ____
ROOT
ATOM      1  C   UNL     1       5.843   5.490  16.994  0.00  0.00    +0.000 A 
ATOM      2  C   UNL     1       5.125   4.560  16.300  0.00  0.00    +0.000 A 
ATOM      3  C   UNL     1       5.491   4.311  14.871  0.00  0.00    +0.000 A 
ATOM      4  C   UNL     1       4.595   3.779  13.935  0.00  0.00    +0.000 A 
ATOM      5  C   UNL     1       5.034   3.432  12.655  0.00  0.00    +0.000 A 
ATOM      6  C   UNL     1       6.376   3.587  12.308  0.00  0.00    +0.000 A 
ATOM      7  C   UNL     1       7.268   4.154  13.217  0.00  0.00    +0.000 A 
ATOM      8  C   UNL     1       6.802   4.557  14.466  0.00  0.00    +0.000 A 
ATOM      9  N   UNL     1       7.612   5.330  15.293  0.00  0.00    +0.000 N 
ATOM     10  C   UNL     1       7.078   6.052  16.330  0.00  0.00    +0.000 A 
ATOM     11  O   UNL     1       7.663   7.052  16.696  0.00  0.00    +0.000 OA
ATOM     12  H   UNL     1       8.506   5.652  14.955  0.00  0.00    +0.000 HD
ENDROOT
BRANCH   2  13
ATOM     13  C   UNL     1       4.112   3.688  16.958  0.00  0.00    +0.000 A 
ATOM     14  C   UNL     1       2.773   4.092  16.988  0.00  0.00    +0.000 A 
ATOM     15  C   UNL     1       1.792   3.288  17.562  0.00  0.00    +0.000 A 
ATOM     16  C   UNL     1       2.124   2.036  18.064  0.00  0.00    +0.000 A 
ATOM     17  C   UNL     1       3.457   1.606  18.035  0.00  0.00    +0.000 A 
ATOM     18  C   UNL     1       4.452   2.430  17.492  0.00  0.00    +0.000 A 
ENDBRANCH   2  13
BRANCH   1  19
ATOM     19  C   UNL     1       5.543   5.868  18.434  0.00  0.00    +0.000 C 
ATOM     20  O   UNL     1       6.045   5.279  19.396  0.00  0.00    +0.000 OA
BRANCH  19  22
ATOM     21  C   UNL     1       3.297   6.906  18.544  0.00  0.00    +0.000 C 
ATOM     22  C   UNL     1       4.626   7.022  18.697  0.00  0.00    +0.000 C 
BRANCH  21  26
ATOM     23  C   UNL     1       0.323   9.907  19.380  0.00  0.00    +0.000 A 
ATOM     24  C   UNL     1       0.817   9.729  18.089  0.00  0.00    +0.000 A 
ATOM     25  C   UNL     1       1.786   8.748  17.829  0.00  0.00    +0.000 A 
ATOM     26  C   UNL     1       2.303   7.951  18.860  0.00  0.00    +0.000 A 
ATOM     27  C   UNL     1       1.782   8.130  20.149  0.00  0.00    +0.000 A 
ATOM     28  C   UNL     1       0.807   9.102  20.407  0.00  0.00    +0.000 A 
BRANCH  23  30
ATOM     29  C   UNL     1      -0.918  11.225  20.885  0.00  0.00    +0.000 C 
ATOM     30  O   UNL     1      -0.635  10.874  19.534  0.00  0.00    +0.000 OA
ENDBRANCH  23  30
ENDBRANCH  21  26
ENDBRANCH  19  22
ENDBRANCH   1  19
TORSDOF 5
ENDMDL
MODEL 4
REMARK VINA RESULT:      -7.7      3.584      6.707
REMARK  Name = 
REMARK  6 active torsions:
REMARK  status: ('A' for Active; 'I' for Inactive)
REMARK    1  A    between atoms: C_1  and  O_2
REMARK    2  A    between atoms: O_2  and  C_3
REMARK    3  A    between atoms: C_6  and  C_7
REMARK    4  A    between atoms: C_8  and  C_9
REMARK    5  A    between atoms: C_9  and  C_11
REMARK    6  A    between atoms: C_12  and  C_13
REMARK                            x       y       z     vdW  Elec       q    Type
REMARK                         _______ _______ _______ _____ _____    ______ ____
ROOT
ATOM      1  C   UNL     1       4.830   5.674  17.752  0.00  0.00    +0.000 A 
ATOM      2  C   UNL     1       3.629   5.746  18.395  0.00  0.00    +0.000 A 
ATOM      3  C   UNL     1       3.133   4.525  19.102  0.00  0.00    +0.000 A 
ATOM      4  C   UNL     1       1.779   4.298  19.377  0.00  0.00    +0.000 A 
ATOM      5  C   UNL     1       1.390   3.213  20.167  0.00  0.00    +0.000 A 
ATOM      6  C   UNL     1       2.352   2.362  20.712  0.00  0.00    +0.000 A 
ATOM      7  C   UNL     1       3.700   2.553  20.412  0.00  0.00    +0.000 A 
ATOM      8  C   UNL     1       4.067   3.600  19.568  0.00  0.00    +0.000 A 
ATOM      9  N   UNL     1       5.365   3.668  19.072  0.00  0.00    +0.000 N 
ATOM     10  C   UNL     1       5.661   4.431  17.971  0.00  0.00    +0.000 A 
ATOM     11  O   UNL     1       6.609   4.106  17.284  0.00  0.00    +0.000 OA
ATOM     12  H   UNL     1       6.015   2.922  19.271  0.00  0.00    +0.000 HD
ENDROOT
BRANCH   2  13
ATOM     13  C   UNL     1       2.887   7.029  18.545  0.00  0.00    +0.000 A 
ATOM     14  C   UNL     1       2.637   7.814  17.415  0.00  0.00    +0.000 A 
ATOM     15  C   UNL     1       1.916   9.002  17.509  0.00  0.00    +0.000 A 
ATOM     16  C   UNL     1       1.380   9.395  18.729  0.00  0.00    +0.000 A 
ATOM     17  C   UNL     1       1.608   8.619  19.872  0.00  0.00    +0.000 A 
ATOM     18  C   UNL     1       2.366   7.443  19.786  0.00  0.00    +0.000 A 
ENDBRANCH   2  13
BRANCH   1  19
ATOM     19  C   UNL     1       5.421   6.827  16.961  0.00  0.00    +0.000 C 
ATOM     20  O   UNL     1       5.304   6.924  15.736  0.00  0.00    +0.000 OA
BRANCH  19  22
ATOM     21  C   UNL     1       7.426   8.207  17.418  0.00  0.00    +0.000 C 
ATOM     22  C   UNL     1       6.148   7.907  17.701  0.00  0.00    +0.000 C 
BRANCH  21  26
ATOM     23  C   UNL     1       9.588  11.482  19.193  0.00  0.00    +0.000 A 
ATOM     24  C   UNL     1       8.850  11.661  18.025  0.00  0.00    +0.000 A 
ATOM     25  C   UNL     1       8.150  10.587  17.455  0.00  0.00    +0.000 A 
ATOM     26  C   UNL     1       8.203   9.306  18.024  0.00  0.00    +0.000 A 
ATOM     27  C   UNL     1       8.934   9.147  19.210  0.00  0.00    +0.000 A 
ATOM     28  C   UNL     1       9.624  10.222  19.784  0.00  0.00    +0.000 A 
BRANCH  23  30
ATOM     29  C   UNL     1      11.638  12.584  19.545  0.00  0.00    +0.000 C 
ATOM     30  O   UNL     1      10.220  12.592  19.687  0.00  0.00    +0.000 OA
ENDBRANCH  23  30
ENDBRANCH  21  26
ENDBRANCH  19  22
ENDBRANCH   1  19
TORSDOF 5
ENDMDL
MODEL 5
REMARK VINA RESULT:      -7.7      3.574      6.544
REMARK  Name = 
REMARK  6 active torsions:
REMARK  status: ('A' for Active; 'I' for Inactive)
REMARK    1  A    between atoms: C_1  and  O_2
REMARK    2  A    between atoms: O_2  and  C_3
REMARK    3  A    between atoms: C_6  and  C_7
REMARK    4  A    between atoms: C_8  and  C_9
REMARK    5  A    between atoms: C_9  and  C_11
REMARK    6  A    between atoms: C_12  and  C_13
REMARK                            x       y       z     vdW  Elec       q    Type
REMARK                         _______ _______ _______ _____ _____    ______ ____
ROOT
ATOM      1  C   UNL     1       4.966   5.663  17.681  0.00  0.00    +0.000 A 
ATOM      2  C   UNL     1       3.746   5.654  18.292  0.00  0.00    +0.000 A 
ATOM      3  C   UNL     1       3.306   4.394  18.967  0.00  0.00    +0.000 A 
ATOM      4  C   UNL     1       1.960   4.083  19.202  0.00  0.00    +0.000 A 
ATOM      5  C   UNL     1       1.616   2.964  19.965  0.00  0.00    +0.000 A 
ATOM      6  C   UNL     1       2.612   2.163  20.522  0.00  0.00    +0.000 A 
ATOM      7  C   UNL     1       3.953   2.438  20.261  0.00  0.00    +0.000 A 
ATOM      8  C   UNL     1       4.280   3.518  19.444  0.00  0.00    +0.000 A 
ATOM      9  N   UNL     1       5.585   3.671  18.984  0.00  0.00    +0.000 N 
ATOM     10  C   UNL     1       5.863   4.468  17.903  0.00  0.00    +0.000 A 
ATOM     11  O   UNL     1       6.846   4.211  17.237  0.00  0.00    +0.000 OA
ATOM     12  H   UNL     1       6.272   2.961  19.189  0.00  0.00    +0.000 HD
ENDROOT
BRANCH   2  13
ATOM     13  C   UNL     1       2.926   6.889  18.442  0.00  0.00    +0.000 A 
ATOM     14  C   UNL     1       2.482   7.268  19.713  0.00  0.00    +0.000 A 
ATOM     15  C   UNL     1       1.744   8.434  19.898  0.00  0.00    +0.000 A 
ATOM     16  C   UNL     1       1.488   9.274  18.822  0.00  0.00    +0.000 A 
ATOM     17  C   UNL     1       1.933   8.920  17.542  0.00  0.00    +0.000 A 
ATOM     18  C   UNL     1       2.643   7.728  17.347  0.00  0.00    +0.000 A 
ENDBRANCH   2  13
BRANCH   1  19
ATOM     19  C   UNL     1       5.509   6.862  16.924  0.00  0.00    +0.000 C 
ATOM     20  O   UNL     1       5.357   7.007  15.707  0.00  0.00    +0.000 OA
BRANCH  19  22
ATOM     21  C   UNL     1       7.486   8.282  17.378  0.00  0.00    +0.000 C 
ATOM     22  C   UNL     1       6.229   7.929  17.689  0.00  0.00    +0.000 C 
BRANCH  21  26
ATOM     23  C   UNL     1       9.612  11.541  19.225  0.00  0.00    +0.000 A 
ATOM     24  C   UNL     1       8.897  11.731  18.045  0.00  0.00    +0.000 A 
ATOM     25  C   UNL     1       8.208  10.661  17.451  0.00  0.00    +0.000 A 
ATOM     26  C   UNL     1       8.251   9.376  18.010  0.00  0.00    +0.000 A 
ATOM     27  C   UNL     1       8.958   9.205  19.208  0.00  0.00    +0.000 A 
ATOM     28  C   UNL     1       9.637  10.275  19.806  0.00  0.00    +0.000 A 
BRANCH  23  30
ATOM     29  C   UNL     1      10.103  12.802  21.151  0.00  0.00    +0.000 C 
ATOM     30  O   UNL     1      10.234  12.647  19.741  0.00  0.00    +0.000 OA
ENDBRANCH  23  30
ENDBRANCH  21  26
ENDBRANCH  19  22
ENDBRANCH   1  19
TORSDOF 5
ENDMDL
MODEL 6
REMARK VINA RESULT:      -7.3      4.901     10.875
REMARK  Name = 
REMARK  6 active torsions:
REMARK  status: ('A' for Active; 'I' for Inactive)
REMARK    1  A    between atoms: C_1  and  O_2
REMARK    2  A    between atoms: O_2  and  C_3
REMARK    3  A    between atoms: C_6  and  C_7
REMARK    4  A    between atoms: C_8  and  C_9
REMARK    5  A    between atoms: C_9  and  C_11
REMARK    6  A    between atoms: C_12  and  C_13
REMARK                            x       y       z     vdW  Elec       q    Type
REMARK                         _______ _______ _______ _____ _____    ______ ____
ROOT
ATOM      1  C   UNL     1      -2.585  12.513  19.475  0.00  0.00    +0.000 A 
ATOM      2  C   UNL     1      -3.625  11.858  18.880  0.00  0.00    +0.000 A 
ATOM      3  C   UNL     1      -4.997  12.060  19.440  0.00  0.00    +0.000 A 
ATOM      4  C   UNL     1      -6.036  11.137  19.266  0.00  0.00    +0.000 A 
ATOM      5  C   UNL     1      -7.333  11.445  19.685  0.00  0.00    +0.000 A 
ATOM      6  C   UNL     1      -7.608  12.687  20.257  0.00  0.00    +0.000 A 
ATOM      7  C   UNL     1      -6.574  13.597  20.474  0.00  0.00    +0.000 A 
ATOM      8  C   UNL     1      -5.275  13.250  20.111  0.00  0.00    +0.000 A 
ATOM      9  N   UNL     1      -4.205  14.037  20.527  0.00  0.00    +0.000 N 
ATOM     10  C   UNL     1      -2.924  13.544  20.525  0.00  0.00    +0.000 A 
ATOM     11  O   UNL     1      -2.127  14.013  21.313  0.00  0.00    +0.000 OA
ATOM     12  H   UNL     1      -4.370  14.816  21.146  0.00  0.00    +0.000 HD
ENDROOT
BRANCH   2  13
ATOM     13  C   UNL     1      -3.457  11.091  17.614  0.00  0.00    +0.000 A 
ATOM     14  C   UNL     1      -3.781  11.698  16.396  0.00  0.00    +0.000 A 
ATOM     15  C   UNL     1      -3.604  11.026  15.189  0.00  0.00    +0.000 A 
ATOM     16  C   UNL     1      -3.042   9.756  15.176  0.00  0.00    +0.000 A 
ATOM     17  C   UNL     1      -2.701   9.133  16.383  0.00  0.00    +0.000 A 
ATOM     18  C   UNL     1      -2.913   9.792  17.601  0.00  0.00    +0.000 A 
ENDBRANCH   2  13
BRANCH   1  19
ATOM     19  C   UNL     1      -1.141  12.358  19.031  0.00  0.00    +0.000 C 
ATOM     20  O   UNL     1      -0.543  13.229  18.394  0.00  0.00    +0.000 OA
BRANCH  19  22
ATOM     21  C   UNL     1       0.332  10.436  18.514  0.00  0.00    +0.000 C 
ATOM     22  C   UNL     1      -0.404  11.111  19.411  0.00  0.00    +0.000 C 
BRANCH  21  26
ATOM     23  C   UNL     1       2.659   6.923  19.406  0.00  0.00    +0.000 A 
ATOM     24  C   UNL     1       1.901   7.550  20.394  0.00  0.00    +0.000 A 
ATOM     25  C   UNL     1       1.148   8.694  20.092  0.00  0.00    +0.000 A 
ATOM     26  C   UNL     1       1.164   9.252  18.805  0.00  0.00    +0.000 A 
ATOM     27  C   UNL     1       1.916   8.598  17.818  0.00  0.00    +0.000 A 
ATOM     28  C   UNL     1       2.660   7.450  18.118  0.00  0.00    +0.000 A 
BRANCH  23  30
ATOM     29  C   UNL     1       2.556   4.818  20.455  0.00  0.00    +0.000 C 
ATOM     30  O   UNL     1       3.344   5.801  19.790  0.00  0.00    +0.000 OA
ENDBRANCH  23  30
ENDBRANCH  21  26
ENDBRANCH  19  22
ENDBRANCH   1  19
TORSDOF 5
ENDMDL
MODEL 7
REMARK VINA RESULT:      -7.3      3.569      6.132
REMARK  Name = 
REMARK  6 active torsions:
REMARK  status: ('A' for Active; 'I' for Inactive)
REMARK    1  A    between atoms: C_1  and  O_2
REMARK    2  A    between atoms: O_2  and  C_3
REMARK    3  A    between atoms: C_6  and  C_7
REMARK    4  A    between atoms: C_8  and  C_9
REMARK    5  A    between atoms: C_9  and  C_11
REMARK    6  A    between atoms: C_12  and  C_13
REMARK                            x       y       z     vdW  Elec       q    Type
REMARK                         _______ _______ _______ _____ _____    ______ ____
ROOT
ATOM      1  C   UNL     1       2.355   7.750  18.653  0.00  0.00    +0.000 A 
ATOM      2  C   UNL     1       1.933   7.135  19.796  0.00  0.00    +0.000 A 
ATOM      3  C   UNL     1       2.341   5.714  20.022  0.00  0.00    +0.000 A 
ATOM      4  C   UNL     1       1.631   4.838  20.853  0.00  0.00    +0.000 A 
ATOM      5  C   UNL     1       2.139   3.569  21.142  0.00  0.00    +0.000 A 
ATOM      6  C   UNL     1       3.374   3.175  20.627  0.00  0.00    +0.000 A 
ATOM      7  C   UNL     1       4.070   4.021  19.766  0.00  0.00    +0.000 A 
ATOM      8  C   UNL     1       3.520   5.257  19.433  0.00  0.00    +0.000 A 
ATOM      9  N   UNL     1       4.077   6.011  18.405  0.00  0.00    +0.000 N 
ATOM     10  C   UNL     1       3.366   7.017  17.802  0.00  0.00    +0.000 A 
ATOM     11  O   UNL     1       3.638   7.305  16.654  0.00  0.00    +0.000 OA
ATOM     12  H   UNL     1       4.835   5.628  17.861  0.00  0.00    +0.000 HD
ENDROOT
BRANCH   2  13
ATOM     13  C   UNL     1       1.226   7.874  20.879  0.00  0.00    +0.000 A 
ATOM     14  C   UNL     1       1.960   8.691  21.745  0.00  0.00    +0.000 A 
ATOM     15  C   UNL     1       1.330   9.425  22.746  0.00  0.00    +0.000 A 
ATOM     16  C   UNL     1      -0.054   9.402  22.860  0.00  0.00    +0.000 A 
ATOM     17  C   UNL     1      -0.810   8.600  21.997  0.00  0.00    +0.000 A 
ATOM     18  C   UNL     1      -0.175   7.830  21.013  0.00  0.00    +0.000 A 
ENDBRANCH   2  13
BRANCH   1  19
ATOM     19  C   UNL     1       1.973   9.173  18.284  0.00  0.00    +0.000 C 
ATOM     20  O   UNL     1       2.777  10.108  18.314  0.00  0.00    +0.000 OA
BRANCH  19  22
ATOM     21  C   UNL     1      -0.240  10.256  18.532  0.00  0.00    +0.000 C 
ATOM     22  C   UNL     1       0.571   9.445  17.834  0.00  0.00    +0.000 C 
BRANCH  21  26
ATOM     23  C   UNL     1      -4.247  11.308  17.353  0.00  0.00    +0.000 A 
ATOM     24  C   UNL     1      -3.467  10.464  16.564  0.00  0.00    +0.000 A 
ATOM     25  C   UNL     1      -2.163  10.129  16.958  0.00  0.00    +0.000 A 
ATOM     26  C   UNL     1      -1.603  10.657  18.130  0.00  0.00    +0.000 A 
ATOM     27  C   UNL     1      -2.408  11.489  18.922  0.00  0.00    +0.000 A 
ATOM     28  C   UNL     1      -3.713  11.815  18.534  0.00  0.00    +0.000 A 
BRANCH  23  30
ATOM     29  C   UNL     1      -6.066  12.801  17.330  0.00  0.00    +0.000 C 
ATOM     30  O   UNL     1      -5.514  11.561  16.898  0.00  0.00    +0.000 OA
ENDBRANCH  23  30
ENDBRANCH  21  26
ENDBRANCH  19  22
ENDBRANCH   1  19
TORSDOF 5
ENDMDL
MODEL 8
REMARK VINA RESULT:      -7.2      4.378     11.003
REMARK  Name = 
REMARK  6 active torsions:
REMARK  status: ('A' for Active; 'I' for Inactive)
REMARK    1  A    between atoms: C_1  and  O_2
REMARK    2  A    between atoms: O_2  and  C_3
REMARK    3  A    between atoms: C_6  and  C_7
REMARK    4  A    between atoms: C_8  and  C_9
REMARK    5  A    between atoms: C_9  and  C_11
REMARK    6  A    between atoms: C_12  and  C_13
REMARK                            x       y       z     vdW  Elec       q    Type
REMARK                         _______ _______ _______ _____ _____    ______ ____
ROOT
ATOM      1  C   UNL     1      -2.559  12.066  18.459  0.00  0.00    +0.000 A 
ATOM      2  C   UNL     1      -3.243  12.414  19.587  0.00  0.00    +0.000 A 
ATOM      3  C   UNL     1      -4.727  12.236  19.594  0.00  0.00    +0.000 A 
ATOM      4  C   UNL     1      -5.579  12.959  20.439  0.00  0.00    +0.000 A 
ATOM      5  C   UNL     1      -6.940  12.647  20.505  0.00  0.00    +0.000 A 
ATOM      6  C   UNL     1      -7.455  11.593  19.750  0.00  0.00    +0.000 A 
ATOM      7  C   UNL     1      -6.626  10.895  18.875  0.00  0.00    +0.000 A 
ATOM      8  C   UNL     1      -5.285  11.260  18.770  0.00  0.00    +0.000 A 
ATOM      9  N   UNL     1      -4.502  10.738  17.745  0.00  0.00    +0.000 N 
ATOM     10  C   UNL     1      -3.326  11.341  17.378  0.00  0.00    +0.000 A 
ATOM     11  O   UNL     1      -2.938  11.198  16.235  0.00  0.00    +0.000 OA
ATOM     12  H   UNL     1      -4.927  10.150  17.043  0.00  0.00    +0.000 HD
ENDROOT
BRANCH   2  13
ATOM     13  C   UNL     1      -2.548  12.809  20.845  0.00  0.00    +0.000 A 
ATOM     14  C   UNL     1      -2.102  11.816  21.723  0.00  0.00    +0.000 A 
ATOM     15  C   UNL     1      -1.417  12.143  22.890  0.00  0.00    +0.000 A 
ATOM     16  C   UNL     1      -1.112  13.469  23.169  0.00  0.00    +0.000 A 
ATOM     17  C   UNL     1      -1.539  14.480  22.299  0.00  0.00    +0.000 A 
ATOM     18  C   UNL     1      -2.262  14.155  21.143  0.00  0.00    +0.000 A 
ENDBRANCH   2  13
BRANCH   1  19
ATOM     19  C   UNL     1      -1.058  12.240  18.308  0.00  0.00    +0.000 C 
ATOM     20  O   UNL     1      -0.520  13.349  18.234  0.00  0.00    +0.000 OA
BRANCH  19  22
ATOM     21  C   UNL     1       0.293  10.483  19.414  0.00  0.00    +0.000 C 
ATOM     22  C   UNL     1      -0.192  11.018  18.282  0.00  0.00    +0.000 C 
BRANCH  21  26
ATOM     23  C   UNL     1       2.481   6.785  19.710  0.00  0.00    +0.000 A 
ATOM     24  C   UNL     1       1.742   7.268  20.788  0.00  0.00    +0.000 A 
ATOM     25  C   UNL     1       1.034   8.475  20.680  0.00  0.00    +0.000 A 
ATOM     26  C   UNL     1       1.078   9.237  19.504  0.00  0.00    +0.000 A 
ATOM     27  C   UNL     1       1.810   8.728  18.422  0.00  0.00    +0.000 A 
ATOM     28  C   UNL     1       2.509   7.518  18.526  0.00  0.00    +0.000 A 
BRANCH  23  30
ATOM     29  C   UNL     1       4.330   5.435  19.162  0.00  0.00    +0.000 C 
ATOM     30  O   UNL     1       3.122   5.590  19.901  0.00  0.00    +0.000 OA
ENDBRANCH  23  30
ENDBRANCH  21  26
ENDBRANCH  19  22
ENDBRANCH   1  19
TORSDOF 5
ENDMDL
MODEL 9
REMARK VINA RESULT:      -7.2      1.699      3.793
REMARK  Name = 
REMARK  6 active torsions:
REMARK  status: ('A' for Active; 'I' for Inactive)
REMARK    1  A    between atoms: C_1  and  O_2
REMARK    2  A    between atoms: O_2  and  C_3
REMARK    3  A    between atoms: C_6  and  C_7
REMARK    4  A    between atoms: C_8  and  C_9
REMARK    5  A    between atoms: C_9  and  C_11
REMARK    6  A    between atoms: C_12  and  C_13
REMARK                            x       y       z     vdW  Elec       q    Type
REMARK                         _______ _______ _______ _____ _____    ______ ____
ROOT
ATOM      1  C   UNL     1       5.128   4.398  17.684  0.00  0.00    +0.000 A 
ATOM      2  C   UNL     1       6.116   4.999  16.960  0.00  0.00    +0.000 A 
ATOM      3  C   UNL     1       6.283   4.601  15.529  0.00  0.00    +0.000 A 
ATOM      4  C   UNL     1       7.486   4.753  14.828  0.00  0.00    +0.000 A 
ATOM      5  C   UNL     1       7.541   4.500  13.455  0.00  0.00    +0.000 A 
ATOM      6  C   UNL     1       6.390   4.121  12.765  0.00  0.00    +0.000 A 
ATOM      7  C   UNL     1       5.197   3.926  13.458  0.00  0.00    +0.000 A 
ATOM      8  C   UNL     1       5.172   4.117  14.838  0.00  0.00    +0.000 A 
ATOM      9  N   UNL     1       4.065   3.707  15.576  0.00  0.00    +0.000 N 
ATOM     10  C   UNL     1       4.150   3.525  16.933  0.00  0.00    +0.000 A 
ATOM     11  O   UNL     1       3.392   2.733  17.455  0.00  0.00    +0.000 OA
ATOM     12  H   UNL     1       3.316   3.212  15.117  0.00  0.00    +0.000 HD
ENDROOT
BRANCH   2  13
ATOM     13  C   UNL     1       6.915   6.135  17.501  0.00  0.00    +0.000 A 
ATOM     14  C   UNL     1       6.706   7.423  16.995  0.00  0.00    +0.000 A 
ATOM     15  C   UNL     1       7.407   8.515  17.500  0.00  0.00    +0.000 A 
ATOM     16  C   UNL     1       8.286   8.347  18.562  0.00  0.00    +0.000 A 
ATOM     17  C   UNL     1       8.503   7.069  19.091  0.00  0.00    +0.000 A 
ATOM     18  C   UNL     1       7.827   5.963  18.560  0.00  0.00    +0.000 A 
ENDBRANCH   2  13
BRANCH   1  19
ATOM     19  C   UNL     1       4.885   4.680  19.156  0.00  0.00    +0.000 C 
ATOM     20  O   UNL     1       5.419   4.027  20.057  0.00  0.00    +0.000 OA
BRANCH  19  22
ATOM     21  C   UNL     1       3.354   6.544  18.593  0.00  0.00    +0.000 C 
ATOM     22  C   UNL     1       3.987   5.819  19.530  0.00  0.00    +0.000 C 
BRANCH  21  26
ATOM     23  C   UNL     1       0.596   9.738  19.453  0.00  0.00    +0.000 A 
ATOM     24  C   UNL     1       0.994   8.848  20.449  0.00  0.00    +0.000 A 
ATOM     25  C   UNL     1       1.892   7.811  20.158  0.00  0.00    +0.000 A 
ATOM     26  C   UNL     1       2.383   7.624  18.857  0.00  0.00    +0.000 A 
ATOM     27  C   UNL     1       1.990   8.540  17.871  0.00  0.00    +0.000 A 
ATOM     28  C   UNL     1       1.100   9.582  18.165  0.00  0.00    +0.000 A 
BRANCH  23  30
ATOM     29  C   UNL     1      -0.262  11.019  21.232  0.00  0.00    +0.000 C 
ATOM     30  O   UNL     1      -0.267  10.731  19.837  0.00  0.00    +0.000 OA
ENDBRANCH  23  30
ENDBRANCH  21  26
ENDBRANCH  19  22
ENDBRANCH   1  19
TORSDOF 5
ENDMDL
