MODEL 1
REMARK VINA RESULT:      -7.3      0.000      0.000
REMARK  Name = 
REMARK  1 active torsions:
REMARK  status: ('A' for Active; 'I' for Inactive)
REMARK    1  A    between atoms: C_1  and  N_2
REMARK                            x       y       z     vdW  Elec       q    Type
REMARK                         _______ _______ _______ _____ _____    ______ ____
ROOT
ATOM      1  C   UNL     1       2.496   4.881  21.253  0.00  0.00    +0.000 C 
ATOM      2  N   UNL     1       2.698   5.301  19.877  0.00  0.00    +0.000 N 
ATOM      3  C   UNL     1       2.545   6.630  19.568  0.00  0.00    +0.000 C 
ATOM      4  O   UNL     1       2.005   7.453  20.305  0.00  0.00    +0.000 OA
ATOM      5  N   UNL     1       3.110   7.059  18.404  0.00  0.00    +0.000 N 
ATOM      6  C   UNL     1       3.871   6.267  17.554  0.00  0.00    +0.000 A 
ATOM      7  C   UNL     1       4.611   6.868  16.533  0.00  0.00    +0.000 A 
ATOM      8  C   UNL     1       5.345   6.074  15.653  0.00  0.00    +0.000 A 
ATOM      9  C   UNL     1       5.310   4.689  15.783  0.00  0.00    +0.000 A 
ATOM     10 CL   UNL     1       6.162   3.702  14.662  0.00  0.00    +0.000 Cl
ATOM     11  C   UNL     1       4.577   4.093  16.809  0.00  0.00    +0.000 A 
ATOM     12  C   UNL     1       3.869   4.884  17.731  0.00  0.00    +0.000 A 
ATOM     13  C   UNL     1       3.022   4.312  18.854  0.00  0.00    +0.000 C 
ATOM     14  N   UNL     1       1.821   3.740  18.298  0.00  0.00    +0.000 N 
ATOM     15  C   UNL     1       1.828   2.367  18.315  0.00  0.00    +0.000 C 
ATOM     16  O   UNL     1       1.025   1.659  17.740  0.00  0.00    +0.000 OA
ATOM     17  N   UNL     1       2.884   1.940  19.041  0.00  0.00    +0.000 N 
ATOM     18  C   UNL     1       3.663   2.995  19.422  0.00  0.00    +0.000 C 
ATOM     19  O   UNL     1       4.689   2.888  20.075  0.00  0.00    +0.000 OA
ATOM     20  H   UNL     1       3.065   8.061  18.268  0.00  0.00    +0.000 HD
ATOM     21  H   UNL     1       1.171   4.249  17.718  0.00  0.00    +0.000 HD
ATOM     22  H   UNL     1       3.098   0.975  19.216  0.00  0.00    +0.000 HD
ENDROOT
TORSDOF 0
ENDMDL
MODEL 2
REMARK VINA RESULT:      -7.3      2.960      4.674
REMARK  Name = 
REMARK  1 active torsions:
REMARK  status: ('A' for Active; 'I' for Inactive)
REMARK    1  A    between atoms: C_1  and  N_2
REMARK                            x       y       z     vdW  Elec       q    Type
REMARK                         _______ _______ _______ _____ _____    ______ ____
ROOT
ATOM      1  C   UNL     1       4.863   6.760  16.055  0.00  0.00    +0.000 C 
ATOM      2  N   UNL     1       4.259   6.612  17.368  0.00  0.00    +0.000 N 
ATOM      3  C   UNL     1       3.282   7.501  17.744  0.00  0.00    +0.000 C 
ATOM      4  O   UNL     1       3.056   8.563  17.167  0.00  0.00    +0.000 OA
ATOM      5  N   UNL     1       2.472   7.124  18.772  0.00  0.00    +0.000 N 
ATOM      6  C   UNL     1       2.526   5.892  19.413  0.00  0.00    +0.000 A 
ATOM      7  C   UNL     1       1.488   5.517  20.269  0.00  0.00    +0.000 A 
ATOM      8  C   UNL     1       1.558   4.299  20.946  0.00  0.00    +0.000 A 
ATOM      9  C   UNL     1       2.674   3.484  20.782  0.00  0.00    +0.000 A 
ATOM     10 CL   UNL     1       2.794   2.011  21.661  0.00  0.00    +0.000 Cl
ATOM     11  C   UNL     1       3.704   3.859  19.919  0.00  0.00    +0.000 A 
ATOM     12  C   UNL     1       3.625   5.063  19.196  0.00  0.00    +0.000 A 
ATOM     13  C   UNL     1       4.717   5.556  18.265  0.00  0.00    +0.000 C 
ATOM     14  N   UNL     1       5.842   6.005  19.048  0.00  0.00    +0.000 N 
ATOM     15  C   UNL     1       6.910   5.144  18.986  0.00  0.00    +0.000 C 
ATOM     16  O   UNL     1       7.894   5.202  19.698  0.00  0.00    +0.000 OA
ATOM     17  N   UNL     1       6.672   4.213  18.036  0.00  0.00    +0.000 N 
ATOM     18  C   UNL     1       5.412   4.354  17.531  0.00  0.00    +0.000 C 
ATOM     19  O   UNL     1       4.935   3.632  16.669  0.00  0.00    +0.000 OA
ATOM     20  H   UNL     1       1.703   7.759  18.947  0.00  0.00    +0.000 HD
ATOM     21  H   UNL     1       5.782   6.707  19.770  0.00  0.00    +0.000 HD
ATOM     22  H   UNL     1       7.312   3.481  17.789  0.00  0.00    +0.000 HD
ENDROOT
TORSDOF 0
ENDMDL
MODEL 3
REMARK VINA RESULT:      -7.1      2.374      2.858
REMARK  Name = 
REMARK  1 active torsions:
REMARK  status: ('A' for Active; 'I' for Inactive)
REMARK    1  A    between atoms: C_1  and  N_2
REMARK                            x       y       z     vdW  Elec       q    Type
REMARK                         _______ _______ _______ _____ _____    ______ ____
ROOT
ATOM      1  C   UNL     1       4.845   3.256  20.133  0.00  0.00    +0.000 C 
ATOM      2  N   UNL     1       5.181   4.023  18.946  0.00  0.00    +0.000 N 
ATOM      3  C   UNL     1       6.216   4.922  19.019  0.00  0.00    +0.000 C 
ATOM      4  O   UNL     1       6.716   5.316  20.070  0.00  0.00    +0.000 OA
ATOM      5  N   UNL     1       6.763   5.325  17.838  0.00  0.00    +0.000 N 
ATOM      6  C   UNL     1       6.391   4.846  16.588  0.00  0.00    +0.000 A 
ATOM      7  C   UNL     1       7.187   5.133  15.477  0.00  0.00    +0.000 A 
ATOM      8  C   UNL     1       6.797   4.688  14.214  0.00  0.00    +0.000 A 
ATOM      9  C   UNL     1       5.603   3.987  14.070  0.00  0.00    +0.000 A 
ATOM     10 CL   UNL     1       5.085   3.491  12.508  0.00  0.00    +0.000 Cl
ATOM     11  C   UNL     1       4.815   3.696  15.184  0.00  0.00    +0.000 A 
ATOM     12  C   UNL     1       5.220   4.099  16.469  0.00  0.00    +0.000 A 
ATOM     13  C   UNL     1       4.403   3.851  17.724  0.00  0.00    +0.000 C 
ATOM     14  N   UNL     1       3.254   4.722  17.723  0.00  0.00    +0.000 N 
ATOM     15  C   UNL     1       2.081   4.056  17.465  0.00  0.00    +0.000 C 
ATOM     16  O   UNL     1       1.015   4.589  17.227  0.00  0.00    +0.000 OA
ATOM     17  N   UNL     1       2.316   2.725  17.485  0.00  0.00    +0.000 N 
ATOM     18  C   UNL     1       3.650   2.475  17.637  0.00  0.00    +0.000 C 
ATOM     19  O   UNL     1       4.136   1.356  17.672  0.00  0.00    +0.000 OA
ATOM     20  H   UNL     1       7.587   5.903  17.940  0.00  0.00    +0.000 HD
ATOM     21  H   UNL     1       3.309   5.726  17.646  0.00  0.00    +0.000 HD
ATOM     22  H   UNL     1       1.612   2.025  17.340  0.00  0.00    +0.000 HD
ENDROOT
TORSDOF 0
ENDMDL
MODEL 4
REMARK VINA RESULT:      -6.9      3.607      5.145
REMARK  Name = 
REMARK  1 active torsions:
REMARK  status: ('A' for Active; 'I' for Inactive)
REMARK    1  A    between atoms: C_1  and  N_2
REMARK                            x       y       z     vdW  Elec       q    Type
REMARK                         _______ _______ _______ _____ _____    ______ ____
ROOT
ATOM      1  C   UNL     1       7.454   7.544  17.166  0.00  0.00    +0.000 C 
ATOM      2  N   UNL     1       7.011   6.262  17.687  0.00  0.00    +0.000 N 
ATOM      3  C   UNL     1       7.471   5.860  18.916  0.00  0.00    +0.000 C 
ATOM      4  O   UNL     1       8.423   6.374  19.499  0.00  0.00    +0.000 OA
ATOM      5  N   UNL     1       6.762   4.883  19.548  0.00  0.00    +0.000 N 
ATOM      6  C   UNL     1       5.585   4.321  19.066  0.00  0.00    +0.000 A 
ATOM      7  C   UNL     1       4.810   3.523  19.910  0.00  0.00    +0.000 A 
ATOM      8  C   UNL     1       3.650   2.923  19.419  0.00  0.00    +0.000 A 
ATOM      9  C   UNL     1       3.292   3.105  18.087  0.00  0.00    +0.000 A 
ATOM     10 CL   UNL     1       1.898   2.318  17.460  0.00  0.00    +0.000 Cl
ATOM     11  C   UNL     1       4.066   3.910  17.250  0.00  0.00    +0.000 A 
ATOM     12  C   UNL     1       5.213   4.557  17.744  0.00  0.00    +0.000 A 
ATOM     13  C   UNL     1       6.123   5.421  16.890  0.00  0.00    +0.000 C 
ATOM     14  N   UNL     1       6.882   4.577  16.001  0.00  0.00    +0.000 N 
ATOM     15  C   UNL     1       6.458   4.661  14.697  0.00  0.00    +0.000 C 
ATOM     16  O   UNL     1       6.808   3.917  13.802  0.00  0.00    +0.000 OA
ATOM     17  N   UNL     1       5.572   5.675  14.586  0.00  0.00    +0.000 N 
ATOM     18  C   UNL     1       5.297   6.209  15.812  0.00  0.00    +0.000 C 
ATOM     19  O   UNL     1       4.516   7.129  15.999  0.00  0.00    +0.000 OA
ATOM     20  H   UNL     1       7.072   4.692  20.492  0.00  0.00    +0.000 HD
ATOM     21  H   UNL     1       7.465   3.814  16.310  0.00  0.00    +0.000 HD
ATOM     22  H   UNL     1       5.131   5.949  13.727  0.00  0.00    +0.000 HD
ENDROOT
TORSDOF 0
ENDMDL
MODEL 5
REMARK VINA RESULT:      -6.8      3.069      4.389
REMARK  Name = 
REMARK  1 active torsions:
REMARK  status: ('A' for Active; 'I' for Inactive)
REMARK    1  A    between atoms: C_1  and  N_2
REMARK                            x       y       z     vdW  Elec       q    Type
REMARK                         _______ _______ _______ _____ _____    ______ ____
ROOT
ATOM      1  C   UNL     1       2.703   2.085  17.295  0.00  0.00    +0.000 C 
ATOM      2  N   UNL     1       3.043   3.388  17.840  0.00  0.00    +0.000 N 
ATOM      3  C   UNL     1       3.906   4.188  17.134  0.00  0.00    +0.000 C 
ATOM      4  O   UNL     1       4.613   3.795  16.209  0.00  0.00    +0.000 OA
ATOM      5  N   UNL     1       3.902   5.516  17.440  0.00  0.00    +0.000 N 
ATOM      6  C   UNL     1       3.050   6.115  18.361  0.00  0.00    +0.000 A 
ATOM      7  C   UNL     1       2.955   7.507  18.405  0.00  0.00    +0.000 A 
ATOM      8  C   UNL     1       2.131   8.113  19.354  0.00  0.00    +0.000 A 
ATOM      9  C   UNL     1       1.435   7.324  20.265  0.00  0.00    +0.000 A 
ATOM     10 CL   UNL     1       0.468   8.067  21.477  0.00  0.00    +0.000 Cl
ATOM     11  C   UNL     1       1.527   5.933  20.212  0.00  0.00    +0.000 A 
ATOM     12  C   UNL     1       2.318   5.308  19.231  0.00  0.00    +0.000 A 
ATOM     13  C   UNL     1       2.495   3.804  19.128  0.00  0.00    +0.000 C 
ATOM     14  N   UNL     1       3.333   3.349  20.209  0.00  0.00    +0.000 N 
ATOM     15  C   UNL     1       2.633   2.669  21.175  0.00  0.00    +0.000 C 
ATOM     16  O   UNL     1       3.072   2.354  22.263  0.00  0.00    +0.000 OA
ATOM     17  N   UNL     1       1.377   2.442  20.731  0.00  0.00    +0.000 N 
ATOM     18  C   UNL     1       1.174   3.056  19.529  0.00  0.00    +0.000 C 
ATOM     19  O   UNL     1       0.120   3.024  18.912  0.00  0.00    +0.000 OA
ATOM     20  H   UNL     1       4.473   6.084  16.827  0.00  0.00    +0.000 HD
ATOM     21  H   UNL     1       4.258   3.706  20.393  0.00  0.00    +0.000 HD
ATOM     22  H   UNL     1       0.675   1.945  21.249  0.00  0.00    +0.000 HD
ENDROOT
TORSDOF 0
ENDMDL
MODEL 6
REMARK VINA RESULT:      -6.7      2.885      4.281
REMARK  Name = 
REMARK  1 active torsions:
REMARK  status: ('A' for Active; 'I' for Inactive)
REMARK    1  A    between atoms: C_1  and  N_2
REMARK                            x       y       z     vdW  Elec       q    Type
REMARK                         _______ _______ _______ _____ _____    ______ ____
ROOT
ATOM      1  C   UNL     1       5.144   3.198  15.597  0.00  0.00    +0.000 C 
ATOM      2  N   UNL     1       4.975   4.333  16.488  0.00  0.00    +0.000 N 
ATOM      3  C   UNL     1       5.526   5.537  16.126  0.00  0.00    +0.000 C 
ATOM      4  O   UNL     1       6.365   5.674  15.238  0.00  0.00    +0.000 OA
ATOM      5  N   UNL     1       5.037   6.648  16.745  0.00  0.00    +0.000 N 
ATOM      6  C   UNL     1       3.989   6.649  17.659  0.00  0.00    +0.000 A 
ATOM      7  C   UNL     1       3.403   7.860  18.031  0.00  0.00    +0.000 A 
ATOM      8  C   UNL     1       2.379   7.870  18.977  0.00  0.00    +0.000 A 
ATOM      9  C   UNL     1       1.970   6.674  19.561  0.00  0.00    +0.000 A 
ATOM     10 CL   UNL     1       0.752   6.687  20.774  0.00  0.00    +0.000 Cl
ATOM     11  C   UNL     1       2.553   5.465  19.180  0.00  0.00    +0.000 A 
ATOM     12  C   UNL     1       3.555   5.437  18.194  0.00  0.00    +0.000 A 
ATOM     13  C   UNL     1       4.261   4.168  17.750  0.00  0.00    +0.000 C 
ATOM     14  N   UNL     1       5.158   3.734  18.791  0.00  0.00    +0.000 N 
ATOM     15  C   UNL     1       4.705   2.620  19.454  0.00  0.00    +0.000 C 
ATOM     16  O   UNL     1       5.182   2.178  20.481  0.00  0.00    +0.000 OA
ATOM     17  N   UNL     1       3.632   2.123  18.799  0.00  0.00    +0.000 N 
ATOM     18  C   UNL     1       3.276   2.945  17.769  0.00  0.00    +0.000 C 
ATOM     19  O   UNL     1       2.330   2.739  17.024  0.00  0.00    +0.000 OA
ATOM     20  H   UNL     1       5.394   7.519  16.375  0.00  0.00    +0.000 HD
ATOM     21  H   UNL     1       5.888   4.311  19.183  0.00  0.00    +0.000 HD
ATOM     22  H   UNL     1       3.132   1.299  19.077  0.00  0.00    +0.000 HD
ENDROOT
TORSDOF 0
ENDMDL
MODEL 7
REMARK VINA RESULT:      -6.7      9.994     11.746
REMARK  Name = 
REMARK  1 active torsions:
REMARK  status: ('A' for Active; 'I' for Inactive)
REMARK    1  A    between atoms: C_1  and  N_2
REMARK                            x       y       z     vdW  Elec       q    Type
REMARK                         _______ _______ _______ _____ _____    ______ ____
ROOT
ATOM      1  C   UNL     1       9.024  17.536  18.839  0.00  0.00    +0.000 C 
ATOM      2  N   UNL     1       9.343  16.306  18.135  0.00  0.00    +0.000 N 
ATOM      3  C   UNL     1      10.390  16.312  17.247  0.00  0.00    +0.000 C 
ATOM      4  O   UNL     1      10.919  17.331  16.810  0.00  0.00    +0.000 OA
ATOM      5  N   UNL     1      10.914  15.100  16.909  0.00  0.00    +0.000 N 
ATOM      6  C   UNL     1      10.507  13.883  17.442  0.00  0.00    +0.000 A 
ATOM      7  C   UNL     1      11.281  12.743  17.220  0.00  0.00    +0.000 A 
ATOM      8  C   UNL     1      10.856  11.512  17.720  0.00  0.00    +0.000 A 
ATOM      9  C   UNL     1       9.650  11.429  18.410  0.00  0.00    +0.000 A 
ATOM     10 CL   UNL     1       9.090   9.904  18.973  0.00  0.00    +0.000 Cl
ATOM     11  C   UNL     1       8.884  12.573  18.637  0.00  0.00    +0.000 A 
ATOM     12  C   UNL     1       9.324  13.827  18.178  0.00  0.00    +0.000 A 
ATOM     13  C   UNL     1       8.534  15.111  18.355  0.00  0.00    +0.000 C 
ATOM     14  N   UNL     1       7.397  15.094  17.469  0.00  0.00    +0.000 N 
ATOM     15  C   UNL     1       6.210  14.895  18.130  0.00  0.00    +0.000 C 
ATOM     16  O   UNL     1       5.145  14.656  17.595  0.00  0.00    +0.000 OA
ATOM     17  N   UNL     1       6.428  14.974  19.461  0.00  0.00    +0.000 N 
ATOM     18  C   UNL     1       7.761  15.108  19.722  0.00  0.00    +0.000 C 
ATOM     19  O   UNL     1       8.235  15.186  20.845  0.00  0.00    +0.000 OA
ATOM     20  H   UNL     1      11.748  15.156  16.338  0.00  0.00    +0.000 HD
ATOM     21  H   UNL     1       7.462  14.968  16.470  0.00  0.00    +0.000 HD
ATOM     22  H   UNL     1       5.712  14.880  20.158  0.00  0.00    +0.000 HD
ENDROOT
TORSDOF 0
ENDMDL
MODEL 8
REMARK VINA RESULT:      -6.6      2.819      4.129
REMARK  Name = 
REMARK  1 active torsions:
REMARK  status: ('A' for Active; 'I' for Inactive)
REMARK    1  A    between atoms: C_1  and  N_2
REMARK                            x       y       z     vdW  Elec       q    Type
REMARK                         _______ _______ _______ _____ _____    ______ ____
ROOT
ATOM      1  C   UNL     1       3.112   1.916  17.457  0.00  0.00    +0.000 C 
ATOM      2  N   UNL     1       3.522   3.273  17.774  0.00  0.00    +0.000 N 
ATOM      3  C   UNL     1       4.608   3.799  17.120  0.00  0.00    +0.000 C 
ATOM      4  O   UNL     1       5.416   3.132  16.477  0.00  0.00    +0.000 OA
ATOM      5  N   UNL     1       4.732   5.156  17.128  0.00  0.00    +0.000 N 
ATOM      6  C   UNL     1       3.813   6.032  17.691  0.00  0.00    +0.000 A 
ATOM      7  C   UNL     1       3.908   7.398  17.417  0.00  0.00    +0.000 A 
ATOM      8  C   UNL     1       3.012   8.286  18.012  0.00  0.00    +0.000 A 
ATOM      9  C   UNL     1       2.050   7.805  18.895  0.00  0.00    +0.000 A 
ATOM     10 CL   UNL     1       0.984   8.901  19.679  0.00  0.00    +0.000 Cl
ATOM     11  C   UNL     1       1.953   6.438  19.160  0.00  0.00    +0.000 A 
ATOM     12  C   UNL     1       2.821   5.527  18.531  0.00  0.00    +0.000 A 
ATOM     13  C   UNL     1       2.802   4.032  18.792  0.00  0.00    +0.000 C 
ATOM     14  N   UNL     1       3.344   3.771  20.102  0.00  0.00    +0.000 N 
ATOM     15  C   UNL     1       2.383   3.407  21.013  0.00  0.00    +0.000 C 
ATOM     16  O   UNL     1       2.557   3.320  22.212  0.00  0.00    +0.000 OA
ATOM     17  N   UNL     1       1.216   3.200  20.363  0.00  0.00    +0.000 N 
ATOM     18  C   UNL     1       1.336   3.528  19.043  0.00  0.00    +0.000 C 
ATOM     19  O   UNL     1       0.426   3.449  18.233  0.00  0.00    +0.000 OA
ATOM     20  H   UNL     1       5.485   5.506  16.548  0.00  0.00    +0.000 HD
ATOM     21  H   UNL     1       4.258   4.073  20.403  0.00  0.00    +0.000 HD
ATOM     22  H   UNL     1       0.365   2.909  20.809  0.00  0.00    +0.000 HD
ENDROOT
TORSDOF 0
ENDMDL
MODEL 9
REMARK VINA RESULT:      -6.6      2.823      3.848
REMARK  Name = 
REMARK  1 active torsions:
REMARK  status: ('A' for Active; 'I' for Inactive)
REMARK    1  A    between atoms: C_1  and  N_2
REMARK                            x       y       z     vdW  Elec       q    Type
REMARK                         _______ _______ _______ _____ _____    ______ ____
ROOT
ATOM      1  C   UNL     1       4.433   2.052  20.434  0.00  0.00    +0.000 C 
ATOM      2  N   UNL     1       3.419   3.089  20.349  0.00  0.00    +0.000 N 
ATOM      3  C   UNL     1       2.543   3.236  21.395  0.00  0.00    +0.000 C 
ATOM      4  O   UNL     1       2.382   2.403  22.284  0.00  0.00    +0.000 OA
ATOM      5  N   UNL     1       1.883   4.425  21.480  0.00  0.00    +0.000 N 
ATOM      6  C   UNL     1       2.081   5.505  20.628  0.00  0.00    +0.000 A 
ATOM      7  C   UNL     1       1.546   6.751  20.961  0.00  0.00    +0.000 A 
ATOM      8  C   UNL     1       1.708   7.827  20.089  0.00  0.00    +0.000 A 
ATOM      9  C   UNL     1       2.377   7.641  18.883  0.00  0.00    +0.000 A 
ATOM     10 CL   UNL     1       2.525   8.949  17.777  0.00  0.00    +0.000 Cl
ATOM     11  C   UNL     1       2.917   6.396  18.558  0.00  0.00    +0.000 A 
ATOM     12  C   UNL     1       2.800   5.315  19.448  0.00  0.00    +0.000 A 
ATOM     13  C   UNL     1       3.330   3.923  19.154  0.00  0.00    +0.000 C 
ATOM     14  N   UNL     1       2.496   3.298  18.157  0.00  0.00    +0.000 N 
ATOM     15  C   UNL     1       3.106   3.216  16.929  0.00  0.00    +0.000 C 
ATOM     16  O   UNL     1       2.549   2.907  15.894  0.00  0.00    +0.000 OA
ATOM     17  N   UNL     1       4.405   3.566  17.058  0.00  0.00    +0.000 N 
ATOM     18  C   UNL     1       4.663   3.996  18.327  0.00  0.00    +0.000 C 
ATOM     19  O   UNL     1       5.756   4.385  18.709  0.00  0.00    +0.000 OA
ATOM     20  H   UNL     1       1.329   4.532  22.321  0.00  0.00    +0.000 HD
ATOM     21  H   UNL     1       1.499   3.180  18.251  0.00  0.00    +0.000 HD
ATOM     22  H   UNL     1       5.067   3.569  16.303  0.00  0.00    +0.000 HD
ENDROOT
TORSDOF 0
ENDMDL
