MODEL 1
REMARK VINA RESULT:      -9.4      0.000      0.000
REMARK  Name = 
REMARK  6 active torsions:
REMARK  status: ('A' for Active; 'I' for Inactive)
REMARK    1  A    between atoms: C_1  and  C_2
REMARK    2  A    between atoms: C_9  and  C_10
REMARK    3  A    between atoms: C_20  and  C_21
REMARK    4  A    between atoms: C_21  and  C_22
REMARK    5  A    between atoms: C_26  and  C_27
REMARK    6  A    between atoms: C_31  and  O_32
REMARK                            x       y       z     vdW  Elec       q    Type
REMARK                         _______ _______ _______ _____ _____    ______ ____
ROOT
ATOM      1  C   UNL     1       2.114   4.700  18.066  0.00  0.00    +0.000 C 
ATOM      2  C   UNL     1       3.268   5.327  18.892  0.00  0.00    +0.000 C 
ATOM      3  C   UNL     1       2.815   5.463  20.349  0.00  0.00    +0.000 C 
ATOM      4  C   UNL     1       1.722   6.526  20.509  0.00  0.00    +0.000 C 
ATOM      5  C   UNL     1       2.098   7.888  19.876  0.00  0.00    +0.000 C 
ATOM      6  C   UNL     1       1.014   8.953  19.999  0.00  0.00    +0.000 A 
ATOM      7  C   UNL     1       0.150   8.982  21.106  0.00  0.00    +0.000 A 
ATOM      8  C   UNL     1      -0.821   9.974  21.244  0.00  0.00    +0.000 A 
ATOM      9  C   UNL     1      -0.948  10.982  20.287  0.00  0.00    +0.000 A 
ATOM     10  C   UNL     1      -0.077  10.981  19.191  0.00  0.00    +0.000 A 
ATOM     11  C   UNL     1       0.912   9.984  19.044  0.00  0.00    +0.000 A 
ATOM     12  C   UNL     1       1.794  10.032  17.817  0.00  0.00    +0.000 C 
ATOM     13  C   UNL     1       3.003   9.097  17.866  0.00  0.00    +0.000 C 
ATOM     14  C   UNL     1       2.586   7.724  18.398  0.00  0.00    +0.000 C 
ATOM     15  C   UNL     1       3.728   6.701  18.370  0.00  0.00    +0.000 C 
ATOM     16  C   UNL     1       4.435   6.349  17.051  0.00  0.00    +0.000 C 
ATOM     17  C   UNL     1       5.125   4.977  17.332  0.00  0.00    +0.000 C 
ATOM     18  C   UNL     1       4.590   4.551  18.727  0.00  0.00    +0.000 C 
ENDROOT
BRANCH   9  19
ATOM     19  C   UNL     1      -2.011  12.004  20.500  0.00  0.00    +0.000 C 
ATOM     20  N   UNL     1      -2.568  12.615  19.413  0.00  0.00    +0.000 N 
ATOM     21  O   UNL     1      -2.392  12.309  21.624  0.00  0.00    +0.000 OA
ATOM     22  H   UNL     1      -2.329  12.433  18.454  0.00  0.00    +0.000 HD
ATOM     23  H   UNL     1      -3.289  13.300  19.601  0.00  0.00    +0.000 HD
ENDBRANCH   9  19
BRANCH  18  24
ATOM     24  O   UNL     1       4.461   3.151  18.872  0.00  0.00    +0.000 OA
ATOM     25  H   UNL     1       5.134   2.721  18.318  0.00  0.00    +0.000 HD
ENDBRANCH  18  24
BRANCH  17  26
ATOM     26  C   UNL     1       4.901   3.887  16.268  0.00  0.00    +0.000 C 
BRANCH  26  27
ATOM     27  C   UNL     1       5.628   4.068  14.961  0.00  0.00    +0.000 A 
ATOM     28  C   UNL     1       6.737   4.911  14.862  0.00  0.00    +0.000 A 
ATOM     29  C   UNL     1       7.452   4.991  13.667  0.00  0.00    +0.000 A 
ATOM     30  C   UNL     1       7.074   4.224  12.561  0.00  0.00    +0.000 A 
ATOM     31  C   UNL     1       5.971   3.367  12.644  0.00  0.00    +0.000 A 
ATOM     32  C   UNL     1       5.249   3.308  13.844  0.00  0.00    +0.000 A 
BRANCH  31  33
ATOM     33  C   UNL     1       5.519   2.479  11.532  0.00  0.00    +0.000 C 
ATOM     34  N   UNL     1       6.310   1.428  11.167  0.00  0.00    +0.000 N 
ATOM     35  O   UNL     1       4.453   2.662  10.955  0.00  0.00    +0.000 OA
ATOM     36  H   UNL     1       7.158   1.148  11.633  0.00  0.00    +0.000 HD
ATOM     37  H   UNL     1       5.941   0.817  10.448  0.00  0.00    +0.000 HD
ENDBRANCH  31  33
ENDBRANCH  26  27
ENDBRANCH  17  26
TORSDOF 5
ENDMDL
MODEL 2
REMARK VINA RESULT:      -9.1      3.561     11.388
REMARK  Name = 
REMARK  6 active torsions:
REMARK  status: ('A' for Active; 'I' for Inactive)
REMARK    1  A    between atoms: C_1  and  C_2
REMARK    2  A    between atoms: C_9  and  C_10
REMARK    3  A    between atoms: C_20  and  C_21
REMARK    4  A    between atoms: C_21  and  C_22
REMARK    5  A    between atoms: C_26  and  C_27
REMARK    6  A    between atoms: C_31  and  O_32
REMARK                            x       y       z     vdW  Elec       q    Type
REMARK                         _______ _______ _______ _____ _____    ______ ____
ROOT
ATOM      1  C   UNL     1      -0.793  10.012  17.955  0.00  0.00    +0.000 C 
ATOM      2  C   UNL     1       0.452  10.611  18.664  0.00  0.00    +0.000 C 
ATOM      3  C   UNL     1       1.674  10.419  17.760  0.00  0.00    +0.000 C 
ATOM      4  C   UNL     1       2.075   8.943  17.649  0.00  0.00    +0.000 C 
ATOM      5  C   UNL     1       2.240   8.250  19.024  0.00  0.00    +0.000 C 
ATOM      6  C   UNL     1       2.611   6.774  18.936  0.00  0.00    +0.000 A 
ATOM      7  C   UNL     1       3.397   6.286  17.878  0.00  0.00    +0.000 A 
ATOM      8  C   UNL     1       3.771   4.944  17.811  0.00  0.00    +0.000 A 
ATOM      9  C   UNL     1       3.387   4.048  18.810  0.00  0.00    +0.000 A 
ATOM     10  C   UNL     1       2.627   4.525  19.884  0.00  0.00    +0.000 A 
ATOM     11  C   UNL     1       2.245   5.882  19.964  0.00  0.00    +0.000 A 
ATOM     12  C   UNL     1       1.397   6.315  21.139  0.00  0.00    +0.000 C 
ATOM     13  C   UNL     1       1.260   7.830  21.299  0.00  0.00    +0.000 C 
ATOM     14  C   UNL     1       0.994   8.483  19.941  0.00  0.00    +0.000 C 
ATOM     15  C   UNL     1       0.736   9.991  20.045  0.00  0.00    +0.000 C 
ATOM     16  C   UNL     1      -0.415  10.533  20.908  0.00  0.00    +0.000 C 
ATOM     17  C   UNL     1      -0.663  11.975  20.365  0.00  0.00    +0.000 C 
ATOM     18  C   UNL     1       0.228  12.073  19.096  0.00  0.00    +0.000 C 
ENDROOT
BRANCH   9  19
ATOM     19  C   UNL     1       3.821   2.630  18.667  0.00  0.00    +0.000 C 
ATOM     20  N   UNL     1       4.822   2.161  19.469  0.00  0.00    +0.000 N 
ATOM     21  O   UNL     1       3.304   1.880  17.849  0.00  0.00    +0.000 OA
ATOM     22  H   UNL     1       5.307   2.693  20.172  0.00  0.00    +0.000 HD
ATOM     23  H   UNL     1       5.084   1.192  19.343  0.00  0.00    +0.000 HD
ENDBRANCH   9  19
BRANCH  18  24
ATOM     24  O   UNL     1      -0.323  12.897  18.088  0.00  0.00    +0.000 OA
ATOM     25  H   UNL     1      -1.043  13.419  18.478  0.00  0.00    +0.000 HD
ENDBRANCH  18  24
BRANCH  17  26
ATOM     26  C   UNL     1      -2.131  12.334  20.071  0.00  0.00    +0.000 C 
BRANCH  26  27
ATOM     27  C   UNL     1      -2.813  13.234  21.069  0.00  0.00    +0.000 A 
ATOM     28  C   UNL     1      -2.867  14.616  20.877  0.00  0.00    +0.000 A 
ATOM     29  C   UNL     1      -3.584  15.419  21.764  0.00  0.00    +0.000 A 
ATOM     30  C   UNL     1      -4.263  14.851  22.846  0.00  0.00    +0.000 A 
ATOM     31  C   UNL     1      -4.228  13.467  23.049  0.00  0.00    +0.000 A 
ATOM     32  C   UNL     1      -3.489  12.671  22.162  0.00  0.00    +0.000 A 
BRANCH  31  33
ATOM     33  C   UNL     1      -4.956  12.766  24.149  0.00  0.00    +0.000 C 
ATOM     34  N   UNL     1      -6.258  13.098  24.391  0.00  0.00    +0.000 N 
ATOM     35  O   UNL     1      -4.418  11.896  24.824  0.00  0.00    +0.000 OA
ATOM     36  H   UNL     1      -6.807  13.737  23.840  0.00  0.00    +0.000 HD
ATOM     37  H   UNL     1      -6.732  12.560  25.106  0.00  0.00    +0.000 HD
ENDBRANCH  31  33
ENDBRANCH  26  27
ENDBRANCH  17  26
TORSDOF 5
ENDMDL
MODEL 3
REMARK VINA RESULT:      -9.0      3.595     11.340
REMARK  Name = 
REMARK  6 active torsions:
REMARK  status: ('A' for Active; 'I' for Inactive)
REMARK    1  A    between atoms: C_1  and  C_2
REMARK    2  A    between atoms: C_9  and  C_10
REMARK    3  A    between atoms: C_20  and  C_21
REMARK    4  A    between atoms: C_21  and  C_22
REMARK    5  A    between atoms: C_26  and  C_27
REMARK    6  A    between atoms: C_31  and  O_32
REMARK                            x       y       z     vdW  Elec       q    Type
REMARK                         _______ _______ _______ _____ _____    ______ ____
ROOT
ATOM      1  C   UNL     1      -0.720  10.004  17.856  0.00  0.00    +0.000 C 
ATOM      2  C   UNL     1       0.503  10.593  18.607  0.00  0.00    +0.000 C 
ATOM      3  C   UNL     1       1.754  10.391  17.746  0.00  0.00    +0.000 C 
ATOM      4  C   UNL     1       2.147   8.912  17.650  0.00  0.00    +0.000 C 
ATOM      5  C   UNL     1       2.259   8.219  19.030  0.00  0.00    +0.000 C 
ATOM      6  C   UNL     1       2.622   6.740  18.956  0.00  0.00    +0.000 A 
ATOM      7  C   UNL     1       3.440   6.246  17.926  0.00  0.00    +0.000 A 
ATOM      8  C   UNL     1       3.806   4.900  17.871  0.00  0.00    +0.000 A 
ATOM      9  C   UNL     1       3.381   4.008  18.857  0.00  0.00    +0.000 A 
ATOM     10  C   UNL     1       2.587   4.492  19.903  0.00  0.00    +0.000 A 
ATOM     11  C   UNL     1       2.214   5.851  19.970  0.00  0.00    +0.000 A 
ATOM     12  C   UNL     1       1.328   6.292  21.114  0.00  0.00    +0.000 C 
ATOM     13  C   UNL     1       1.198   7.807  21.270  0.00  0.00    +0.000 C 
ATOM     14  C   UNL     1       0.984   8.462  19.903  0.00  0.00    +0.000 C 
ATOM     15  C   UNL     1       0.734   9.971  19.997  0.00  0.00    +0.000 C 
ATOM     16  C   UNL     1      -0.442  10.524  20.820  0.00  0.00    +0.000 C 
ATOM     17  C   UNL     1      -0.660  11.967  20.269  0.00  0.00    +0.000 C 
ATOM     18  C   UNL     1       0.276  12.057  19.031  0.00  0.00    +0.000 C 
ENDROOT
BRANCH   9  19
ATOM     19  C   UNL     1       3.808   2.587  18.730  0.00  0.00    +0.000 C 
ATOM     20  N   UNL     1       4.823   2.128  19.520  0.00  0.00    +0.000 N 
ATOM     21  O   UNL     1       3.274   1.824  17.933  0.00  0.00    +0.000 OA
ATOM     22  H   UNL     1       5.322   2.670  20.204  0.00  0.00    +0.000 HD
ATOM     23  H   UNL     1       5.081   1.156  19.405  0.00  0.00    +0.000 HD
ENDBRANCH   9  19
BRANCH  18  24
ATOM     24  O   UNL     1      -0.233  12.885  18.005  0.00  0.00    +0.000 OA
ATOM     25  H   UNL     1       0.401  12.888  17.269  0.00  0.00    +0.000 HD
ENDBRANCH  18  24
BRANCH  17  26
ATOM     26  C   UNL     1      -2.114  12.337  19.923  0.00  0.00    +0.000 C 
BRANCH  26  27
ATOM     27  C   UNL     1      -2.966  12.835  21.062  0.00  0.00    +0.000 A 
ATOM     28  C   UNL     1      -4.344  12.610  21.086  0.00  0.00    +0.000 A 
ATOM     29  C   UNL     1      -5.098  12.996  22.194  0.00  0.00    +0.000 A 
ATOM     30  C   UNL     1      -4.484  13.603  23.294  0.00  0.00    +0.000 A 
ATOM     31  C   UNL     1      -3.103  13.829  23.291  0.00  0.00    +0.000 A 
ATOM     32  C   UNL     1      -2.358  13.453  22.165  0.00  0.00    +0.000 A 
BRANCH  31  33
ATOM     33  C   UNL     1      -2.355  14.430  24.435  0.00  0.00    +0.000 C 
ATOM     34  N   UNL     1      -3.053  14.846  25.531  0.00  0.00    +0.000 N 
ATOM     35  O   UNL     1      -1.134  14.541  24.417  0.00  0.00    +0.000 OA
ATOM     36  H   UNL     1      -4.042  14.721  25.673  0.00  0.00    +0.000 HD
ATOM     37  H   UNL     1      -2.503  15.195  26.307  0.00  0.00    +0.000 HD
ENDBRANCH  31  33
ENDBRANCH  26  27
ENDBRANCH  17  26
TORSDOF 5
ENDMDL
MODEL 4
REMARK VINA RESULT:      -8.9      3.564     11.265
REMARK  Name = 
REMARK  6 active torsions:
REMARK  status: ('A' for Active; 'I' for Inactive)
REMARK    1  A    between atoms: C_1  and  C_2
REMARK    2  A    between atoms: C_9  and  C_10
REMARK    3  A    between atoms: C_20  and  C_21
REMARK    4  A    between atoms: C_21  and  C_22
REMARK    5  A    between atoms: C_26  and  C_27
REMARK    6  A    between atoms: C_31  and  O_32
REMARK                            x       y       z     vdW  Elec       q    Type
REMARK                         _______ _______ _______ _____ _____    ______ ____
ROOT
ATOM      1  C   UNL     1      -0.789  10.049  17.983  0.00  0.00    +0.000 C 
ATOM      2  C   UNL     1       0.475  10.643  18.659  0.00  0.00    +0.000 C 
ATOM      3  C   UNL     1       1.677  10.425  17.736  0.00  0.00    +0.000 C 
ATOM      4  C   UNL     1       2.059   8.944  17.637  0.00  0.00    +0.000 C 
ATOM      5  C   UNL     1       2.243   8.268  19.018  0.00  0.00    +0.000 C 
ATOM      6  C   UNL     1       2.596   6.786  18.943  0.00  0.00    +0.000 A 
ATOM      7  C   UNL     1       3.356   6.275  17.877  0.00  0.00    +0.000 A 
ATOM      8  C   UNL     1       3.714   4.928  17.821  0.00  0.00    +0.000 A 
ATOM      9  C   UNL     1       3.339   4.050  18.839  0.00  0.00    +0.000 A 
ATOM     10  C   UNL     1       2.604   4.550  19.920  0.00  0.00    +0.000 A 
ATOM     11  C   UNL     1       2.240   5.912  19.990  0.00  0.00    +0.000 A 
ATOM     12  C   UNL     1       1.418   6.370  21.173  0.00  0.00    +0.000 C 
ATOM     13  C   UNL     1       1.302   7.888  21.317  0.00  0.00    +0.000 C 
ATOM     14  C   UNL     1       1.017   8.526  19.955  0.00  0.00    +0.000 C 
ATOM     15  C   UNL     1       0.778  10.038  20.043  0.00  0.00    +0.000 C 
ATOM     16  C   UNL     1      -0.350  10.605  20.920  0.00  0.00    +0.000 C 
ATOM     17  C   UNL     1      -0.593  12.043  20.363  0.00  0.00    +0.000 C 
ATOM     18  C   UNL     1       0.275  12.114  19.077  0.00  0.00    +0.000 C 
ENDROOT
BRANCH   9  19
ATOM     19  C   UNL     1       3.754   2.625  18.707  0.00  0.00    +0.000 C 
ATOM     20  N   UNL     1       4.760   2.154  19.500  0.00  0.00    +0.000 N 
ATOM     21  O   UNL     1       3.217   1.872  17.904  0.00  0.00    +0.000 OA
ATOM     22  H   UNL     1       5.261   2.688  20.190  0.00  0.00    +0.000 HD
ATOM     23  H   UNL     1       5.010   1.180  19.382  0.00  0.00    +0.000 HD
ENDBRANCH   9  19
BRANCH  18  24
ATOM     24  O   UNL     1      -0.285  12.930  18.068  0.00  0.00    +0.000 OA
ATOM     25  H   UNL     1      -0.208  13.858  18.346  0.00  0.00    +0.000 HD
ENDBRANCH  18  24
BRANCH  17  26
ATOM     26  C   UNL     1      -2.062  12.414  20.091  0.00  0.00    +0.000 C 
BRANCH  26  27
ATOM     27  C   UNL     1      -2.912  12.711  21.300  0.00  0.00    +0.000 A 
ATOM     28  C   UNL     1      -2.352  13.243  22.463  0.00  0.00    +0.000 A 
ATOM     29  C   UNL     1      -3.171  13.597  23.536  0.00  0.00    +0.000 A 
ATOM     30  C   UNL     1      -4.558  13.433  23.455  0.00  0.00    +0.000 A 
ATOM     31  C   UNL     1      -5.136  12.909  22.294  0.00  0.00    +0.000 A 
ATOM     32  C   UNL     1      -4.302  12.540  21.229  0.00  0.00    +0.000 A 
BRANCH  31  33
ATOM     33  C   UNL     1      -6.607  12.738  22.100  0.00  0.00    +0.000 C 
ATOM     34  N   UNL     1      -7.397  13.850  22.047  0.00  0.00    +0.000 N 
ATOM     35  O   UNL     1      -7.114  11.629  21.972  0.00  0.00    +0.000 OA
ATOM     36  H   UNL     1      -7.065  14.800  22.059  0.00  0.00    +0.000 HD
ATOM     37  H   UNL     1      -8.380  13.693  21.857  0.00  0.00    +0.000 HD
ENDBRANCH  31  33
ENDBRANCH  26  27
ENDBRANCH  17  26
TORSDOF 5
ENDMDL
MODEL 5
REMARK VINA RESULT:      -8.7      3.534     11.902
REMARK  Name = 
REMARK  6 active torsions:
REMARK  status: ('A' for Active; 'I' for Inactive)
REMARK    1  A    between atoms: C_1  and  C_2
REMARK    2  A    between atoms: C_9  and  C_10
REMARK    3  A    between atoms: C_20  and  C_21
REMARK    4  A    between atoms: C_21  and  C_22
REMARK    5  A    between atoms: C_26  and  C_27
REMARK    6  A    between atoms: C_31  and  O_32
REMARK                            x       y       z     vdW  Elec       q    Type
REMARK                         _______ _______ _______ _____ _____    ______ ____
ROOT
ATOM      1  C   UNL     1      -1.489  10.571  18.558  0.00  0.00    +0.000 C 
ATOM      2  C   UNL     1      -0.279  11.253  19.252  0.00  0.00    +0.000 C 
ATOM      3  C   UNL     1       0.885  11.320  18.259  0.00  0.00    +0.000 C 
ATOM      4  C   UNL     1       1.459   9.931  17.957  0.00  0.00    +0.000 C 
ATOM      5  C   UNL     1       1.812   9.126  19.232  0.00  0.00    +0.000 C 
ATOM      6  C   UNL     1       2.358   7.730  18.955  0.00  0.00    +0.000 A 
ATOM      7  C   UNL     1       3.117   7.464  17.803  0.00  0.00    +0.000 A 
ATOM      8  C   UNL     1       3.650   6.197  17.561  0.00  0.00    +0.000 A 
ATOM      9  C   UNL     1       3.458   5.160  18.474  0.00  0.00    +0.000 A 
ATOM     10  C   UNL     1       2.727   5.417  19.639  0.00  0.00    +0.000 A 
ATOM     11  C   UNL     1       2.186   6.695  19.896  0.00  0.00    +0.000 A 
ATOM     12  C   UNL     1       1.381   6.886  21.161  0.00  0.00    +0.000 C 
ATOM     13  C   UNL     1       1.068   8.344  21.501  0.00  0.00    +0.000 C 
ATOM     14  C   UNL     1       0.620   9.094  20.245  0.00  0.00    +0.000 C 
ATOM     15  C   UNL     1       0.183  10.535  20.534  0.00  0.00    +0.000 C 
ATOM     16  C   UNL     1      -0.958  10.827  21.522  0.00  0.00    +0.000 C 
ATOM     17  C   UNL     1      -1.425  12.272  21.162  0.00  0.00    +0.000 C 
ATOM     18  C   UNL     1      -0.651  12.619  19.860  0.00  0.00    +0.000 C 
ENDROOT
BRANCH   9  19
ATOM     19  C   UNL     1       4.055   3.834  18.145  0.00  0.00    +0.000 C 
ATOM     20  N   UNL     1       5.414   3.712  18.106  0.00  0.00    +0.000 N 
ATOM     21  O   UNL     1       3.355   2.857  17.907  0.00  0.00    +0.000 OA
ATOM     22  H   UNL     1       6.073   4.450  18.288  0.00  0.00    +0.000 HD
ATOM     23  H   UNL     1       5.779   2.795  17.882  0.00  0.00    +0.000 HD
ENDBRANCH   9  19
BRANCH  18  24
ATOM     24  O   UNL     1      -1.376  13.463  18.988  0.00  0.00    +0.000 OA
ATOM     25  H   UNL     1      -0.822  14.232  18.774  0.00  0.00    +0.000 HD
ENDBRANCH  18  24
BRANCH  17  26
ATOM     26  C   UNL     1      -2.945  12.461  21.001  0.00  0.00    +0.000 C 
BRANCH  26  27
ATOM     27  C   UNL     1      -3.634  13.275  22.065  0.00  0.00    +0.000 A 
ATOM     28  C   UNL     1      -3.173  14.546  22.415  0.00  0.00    +0.000 A 
ATOM     29  C   UNL     1      -3.882  15.320  23.334  0.00  0.00    +0.000 A 
ATOM     30  C   UNL     1      -5.063  14.838  23.907  0.00  0.00    +0.000 A 
ATOM     31  C   UNL     1      -5.545  13.571  23.561  0.00  0.00    +0.000 A 
ATOM     32  C   UNL     1      -4.815  12.794  22.650  0.00  0.00    +0.000 A 
BRANCH  31  33
ATOM     33  C   UNL     1      -6.816  12.991  24.087  0.00  0.00    +0.000 C 
ATOM     34  N   UNL     1      -7.742  13.828  24.639  0.00  0.00    +0.000 N 
ATOM     35  O   UNL     1      -7.052  11.789  24.019  0.00  0.00    +0.000 OA
ATOM     36  H   UNL     1      -7.676  14.833  24.664  0.00  0.00    +0.000 HD
ATOM     37  H   UNL     1      -8.614  13.403  24.931  0.00  0.00    +0.000 HD
ENDBRANCH  31  33
ENDBRANCH  26  27
ENDBRANCH  17  26
TORSDOF 5
ENDMDL
MODEL 6
REMARK VINA RESULT:      -8.6      3.317     11.566
REMARK  Name = 
REMARK  6 active torsions:
REMARK  status: ('A' for Active; 'I' for Inactive)
REMARK    1  A    between atoms: C_1  and  C_2
REMARK    2  A    between atoms: C_9  and  C_10
REMARK    3  A    between atoms: C_20  and  C_21
REMARK    4  A    between atoms: C_21  and  C_22
REMARK    5  A    between atoms: C_26  and  C_27
REMARK    6  A    between atoms: C_31  and  O_32
REMARK                            x       y       z     vdW  Elec       q    Type
REMARK                         _______ _______ _______ _____ _____    ______ ____
ROOT
ATOM      1  C   UNL     1      -1.097  10.633  18.236  0.00  0.00    +0.000 C 
ATOM      2  C   UNL     1       0.096  11.222  19.034  0.00  0.00    +0.000 C 
ATOM      3  C   UNL     1       1.328  11.257  18.125  0.00  0.00    +0.000 C 
ATOM      4  C   UNL     1       1.846   9.848  17.811  0.00  0.00    +0.000 C 
ATOM      5  C   UNL     1       2.067   8.984  19.077  0.00  0.00    +0.000 C 
ATOM      6  C   UNL     1       2.555   7.569  18.787  0.00  0.00    +0.000 A 
ATOM      7  C   UNL     1       3.376   7.299  17.679  0.00  0.00    +0.000 A 
ATOM      8  C   UNL     1       3.856   6.013  17.427  0.00  0.00    +0.000 A 
ATOM      9  C   UNL     1       3.547   4.959  18.287  0.00  0.00    +0.000 A 
ATOM     10  C   UNL     1       2.752   5.218  19.409  0.00  0.00    +0.000 A 
ATOM     11  C   UNL     1       2.263   6.515  19.675  0.00  0.00    +0.000 A 
ATOM     12  C   UNL     1       1.384   6.710  20.890  0.00  0.00    +0.000 C 
ATOM     13  C   UNL     1       1.127   8.171  21.261  0.00  0.00    +0.000 C 
ATOM     14  C   UNL     1       0.808   8.985  20.006  0.00  0.00    +0.000 C 
ATOM     15  C   UNL     1       0.430  10.438  20.317  0.00  0.00    +0.000 C 
ATOM     16  C   UNL     1      -0.759  10.761  21.236  0.00  0.00    +0.000 C 
ATOM     17  C   UNL     1      -1.123  12.241  20.899  0.00  0.00    +0.000 C 
ATOM     18  C   UNL     1      -0.244  12.587  19.666  0.00  0.00    +0.000 C 
ENDROOT
BRANCH   9  19
ATOM     19  C   UNL     1       4.093   3.613  17.950  0.00  0.00    +0.000 C 
ATOM     20  N   UNL     1       5.261   3.531  17.248  0.00  0.00    +0.000 N 
ATOM     21  O   UNL     1       3.518   2.585  18.286  0.00  0.00    +0.000 OA
ATOM     22  H   UNL     1       5.809   4.312  16.931  0.00  0.00    +0.000 HD
ATOM     23  H   UNL     1       5.599   2.599  17.043  0.00  0.00    +0.000 HD
ENDBRANCH   9  19
BRANCH  18  24
ATOM     24  O   UNL     1      -0.860  13.498  18.778  0.00  0.00    +0.000 OA
ATOM     25  H   UNL     1      -1.639  13.068  18.389  0.00  0.00    +0.000 HD
ENDBRANCH  18  24
BRANCH  17  26
ATOM     26  C   UNL     1      -2.615  12.520  20.643  0.00  0.00    +0.000 C 
BRANCH  26  27
ATOM     27  C   UNL     1      -3.499  12.601  21.861  0.00  0.00    +0.000 A 
ATOM     28  C   UNL     1      -2.955  12.683  23.144  0.00  0.00    +0.000 A 
ATOM     29  C   UNL     1      -3.790  12.852  24.249  0.00  0.00    +0.000 A 
ATOM     30  C   UNL     1      -5.175  12.952  24.085  0.00  0.00    +0.000 A 
ATOM     31  C   UNL     1      -5.736  12.881  22.805  0.00  0.00    +0.000 A 
ATOM     32  C   UNL     1      -4.890  12.692  21.704  0.00  0.00    +0.000 A 
BRANCH  31  33
ATOM     33  C   UNL     1      -7.197  13.020  22.527  0.00  0.00    +0.000 C 
ATOM     34  N   UNL     1      -7.741  12.311  21.496  0.00  0.00    +0.000 N 
ATOM     35  O   UNL     1      -7.916  13.740  23.211  0.00  0.00    +0.000 OA
ATOM     36  H   UNL     1      -7.251  11.634  20.933  0.00  0.00    +0.000 HD
ATOM     37  H   UNL     1      -8.744  12.389  21.377  0.00  0.00    +0.000 HD
ENDBRANCH  31  33
ENDBRANCH  26  27
ENDBRANCH  17  26
TORSDOF 5
ENDMDL
MODEL 7
REMARK VINA RESULT:      -8.5      3.462      5.689
REMARK  Name = 
REMARK  6 active torsions:
REMARK  status: ('A' for Active; 'I' for Inactive)
REMARK    1  A    between atoms: C_1  and  C_2
REMARK    2  A    between atoms: C_9  and  C_10
REMARK    3  A    between atoms: C_20  and  C_21
REMARK    4  A    between atoms: C_21  and  C_22
REMARK    5  A    between atoms: C_26  and  C_27
REMARK    6  A    between atoms: C_31  and  O_32
REMARK                            x       y       z     vdW  Elec       q    Type
REMARK                         _______ _______ _______ _____ _____    ______ ____
ROOT
ATOM      1  C   UNL     1      -0.739   8.022  21.026  0.00  0.00    +0.000 C 
ATOM      2  C   UNL     1       0.364   9.084  21.280  0.00  0.00    +0.000 C 
ATOM      3  C   UNL     1       0.357   9.458  22.765  0.00  0.00    +0.000 C 
ATOM      4  C   UNL     1      -0.905  10.240  23.150  0.00  0.00    +0.000 C 
ATOM      5  C   UNL     1      -1.172  11.457  22.231  0.00  0.00    +0.000 C 
ATOM      6  C   UNL     1      -2.438  12.233  22.579  0.00  0.00    +0.000 A 
ATOM      7  C   UNL     1      -2.890  12.325  23.906  0.00  0.00    +0.000 A 
ATOM      8  C   UNL     1      -4.026  13.063  24.237  0.00  0.00    +0.000 A 
ATOM      9  C   UNL     1      -4.738  13.750  23.253  0.00  0.00    +0.000 A 
ATOM     10  C   UNL     1      -4.285  13.689  21.930  0.00  0.00    +0.000 A 
ATOM     11  C   UNL     1      -3.135  12.949  21.584  0.00  0.00    +0.000 A 
ATOM     12  C   UNL     1      -2.726  12.904  20.129  0.00  0.00    +0.000 C 
ATOM     13  C   UNL     1      -1.335  12.321  19.877  0.00  0.00    +0.000 C 
ATOM     14  C   UNL     1      -1.132  11.059  20.718  0.00  0.00    +0.000 C 
ATOM     15  C   UNL     1       0.202  10.359  20.431  0.00  0.00    +0.000 C 
ATOM     16  C   UNL     1       0.545   9.875  19.013  0.00  0.00    +0.000 C 
ATOM     17  C   UNL     1       1.671   8.815  19.225  0.00  0.00    +0.000 C 
ATOM     18  C   UNL     1       1.743   8.625  20.766  0.00  0.00    +0.000 C 
ENDROOT
BRANCH   9  19
ATOM     19  C   UNL     1      -5.944  14.514  23.682  0.00  0.00    +0.000 C 
ATOM     20  N   UNL     1      -6.950  13.852  24.326  0.00  0.00    +0.000 N 
ATOM     21  O   UNL     1      -6.053  15.715  23.467  0.00  0.00    +0.000 OA
ATOM     22  H   UNL     1      -6.956  12.873  24.552  0.00  0.00    +0.000 HD
ATOM     23  H   UNL     1      -7.749  14.408  24.604  0.00  0.00    +0.000 HD
ENDBRANCH   9  19
BRANCH  18  24
ATOM     24  O   UNL     1       2.097   7.312  21.151  0.00  0.00    +0.000 OA
ATOM     25  H   UNL     1       1.360   6.718  20.930  0.00  0.00    +0.000 HD
ENDBRANCH  18  24
BRANCH  17  26
ATOM     26  C   UNL     1       1.477   7.478  18.486  0.00  0.00    +0.000 C 
BRANCH  26  27
ATOM     27  C   UNL     1       2.732   6.764  18.055  0.00  0.00    +0.000 A 
ATOM     28  C   UNL     1       3.795   7.458  17.474  0.00  0.00    +0.000 A 
ATOM     29  C   UNL     1       4.983   6.793  17.170  0.00  0.00    +0.000 A 
ATOM     30  C   UNL     1       5.127   5.431  17.450  0.00  0.00    +0.000 A 
ATOM     31  C   UNL     1       4.075   4.721  18.041  0.00  0.00    +0.000 A 
ATOM     32  C   UNL     1       2.879   5.395  18.326  0.00  0.00    +0.000 A 
BRANCH  31  33
ATOM     33  C   UNL     1       4.150   3.278  18.416  0.00  0.00    +0.000 C 
ATOM     34  N   UNL     1       5.106   2.878  19.305  0.00  0.00    +0.000 N 
ATOM     35  O   UNL     1       3.368   2.452  17.958  0.00  0.00    +0.000 OA
ATOM     36  H   UNL     1       5.736   3.492  19.796  0.00  0.00    +0.000 HD
ATOM     37  H   UNL     1       5.086   1.903  19.577  0.00  0.00    +0.000 HD
ENDBRANCH  31  33
ENDBRANCH  26  27
ENDBRANCH  17  26
TORSDOF 5
ENDMDL
MODEL 8
REMARK VINA RESULT:      -8.3      3.487     11.422
REMARK  Name = 
REMARK  6 active torsions:
REMARK  status: ('A' for Active; 'I' for Inactive)
REMARK    1  A    between atoms: C_1  and  C_2
REMARK    2  A    between atoms: C_9  and  C_10
REMARK    3  A    between atoms: C_20  and  C_21
REMARK    4  A    between atoms: C_21  and  C_22
REMARK    5  A    between atoms: C_26  and  C_27
REMARK    6  A    between atoms: C_31  and  O_32
REMARK                            x       y       z     vdW  Elec       q    Type
REMARK                         _______ _______ _______ _____ _____    ______ ____
ROOT
ATOM      1  C   UNL     1      -0.720   9.965  17.905  0.00  0.00    +0.000 C 
ATOM      2  C   UNL     1       0.509  10.553  18.648  0.00  0.00    +0.000 C 
ATOM      3  C   UNL     1       1.752  10.365  17.772  0.00  0.00    +0.000 C 
ATOM      4  C   UNL     1       2.151   8.889  17.658  0.00  0.00    +0.000 C 
ATOM      5  C   UNL     1       2.281   8.184  19.031  0.00  0.00    +0.000 C 
ATOM      6  C   UNL     1       2.650   6.708  18.940  0.00  0.00    +0.000 A 
ATOM      7  C   UNL     1       3.458   6.226  17.897  0.00  0.00    +0.000 A 
ATOM      8  C   UNL     1       3.830   4.883  17.827  0.00  0.00    +0.000 A 
ATOM      9  C   UNL     1       3.420   3.980  18.809  0.00  0.00    +0.000 A 
ATOM     10  C   UNL     1       2.636   4.451  19.868  0.00  0.00    +0.000 A 
ATOM     11  C   UNL     1       2.257   5.808  19.951  0.00  0.00    +0.000 A 
ATOM     12  C   UNL     1       1.382   6.234  21.109  0.00  0.00    +0.000 C 
ATOM     13  C   UNL     1       1.246   7.748  21.279  0.00  0.00    +0.000 C 
ATOM     14  C   UNL     1       1.015   8.413  19.920  0.00  0.00    +0.000 C 
ATOM     15  C   UNL     1       0.759   9.921  20.030  0.00  0.00    +0.000 C 
ATOM     16  C   UNL     1      -0.410  10.460  20.870  0.00  0.00    +0.000 C 
ATOM     17  C   UNL     1      -0.641  11.908  20.334  0.00  0.00    +0.000 C 
ATOM     18  C   UNL     1       0.280  12.013  19.087  0.00  0.00    +0.000 C 
ENDROOT
BRANCH   9  19
ATOM     19  C   UNL     1       3.853   2.562  18.665  0.00  0.00    +0.000 C 
ATOM     20  N   UNL     1       4.830   2.082  19.489  0.00  0.00    +0.000 N 
ATOM     21  O   UNL     1       3.355   1.821  17.825  0.00  0.00    +0.000 OA
ATOM     22  H   UNL     1       5.297   2.605  20.210  0.00  0.00    +0.000 HD
ATOM     23  H   UNL     1       5.092   1.113  19.361  0.00  0.00    +0.000 HD
ENDBRANCH   9  19
BRANCH  18  24
ATOM     24  O   UNL     1      -0.244  12.846  18.074  0.00  0.00    +0.000 OA
ATOM     25  H   UNL     1       0.331  12.781  17.294  0.00  0.00    +0.000 HD
ENDBRANCH  18  24
BRANCH  17  26
ATOM     26  C   UNL     1      -2.101  12.274  20.008  0.00  0.00    +0.000 C 
BRANCH  26  27
ATOM     27  C   UNL     1      -2.915  12.849  21.138  0.00  0.00    +0.000 A 
ATOM     28  C   UNL     1      -2.709  12.441  22.457  0.00  0.00    +0.000 A 
ATOM     29  C   UNL     1      -3.408  13.055  23.497  0.00  0.00    +0.000 A 
ATOM     30  C   UNL     1      -4.311  14.089  23.233  0.00  0.00    +0.000 A 
ATOM     31  C   UNL     1      -4.523  14.517  21.918  0.00  0.00    +0.000 A 
ATOM     32  C   UNL     1      -3.829  13.881  20.879  0.00  0.00    +0.000 A 
BRANCH  31  33
ATOM     33  C   UNL     1      -5.433  15.640  21.543  0.00  0.00    +0.000 C 
ATOM     34  N   UNL     1      -5.221  16.293  20.363  0.00  0.00    +0.000 N 
ATOM     35  O   UNL     1      -6.369  15.976  22.260  0.00  0.00    +0.000 OA
ATOM     36  H   UNL     1      -4.534  16.037  19.672  0.00  0.00    +0.000 HD
ATOM     37  H   UNL     1      -5.895  17.009  20.120  0.00  0.00    +0.000 HD
ENDBRANCH  31  33
ENDBRANCH  26  27
ENDBRANCH  17  26
TORSDOF 5
ENDMDL
MODEL 9
REMARK VINA RESULT:      -8.1      3.098      4.890
REMARK  Name = 
REMARK  6 active torsions:
REMARK  status: ('A' for Active; 'I' for Inactive)
REMARK    1  A    between atoms: C_1  and  C_2
REMARK    2  A    between atoms: C_9  and  C_10
REMARK    3  A    between atoms: C_20  and  C_21
REMARK    4  A    between atoms: C_21  and  C_22
REMARK    5  A    between atoms: C_26  and  C_27
REMARK    6  A    between atoms: C_31  and  O_32
REMARK                            x       y       z     vdW  Elec       q    Type
REMARK                         _______ _______ _______ _____ _____    ______ ____
ROOT
ATOM      1  C   UNL     1      -0.322   7.517  20.742  0.00  0.00    +0.000 C 
ATOM      2  C   UNL     1       0.883   8.484  20.890  0.00  0.00    +0.000 C 
ATOM      3  C   UNL     1       0.947   8.974  22.340  0.00  0.00    +0.000 C 
ATOM      4  C   UNL     1      -0.225   9.903  22.680  0.00  0.00    +0.000 C 
ATOM      5  C   UNL     1      -0.398  11.063  21.669  0.00  0.00    +0.000 C 
ATOM      6  C   UNL     1      -1.575  11.983  21.972  0.00  0.00    +0.000 A 
ATOM      7  C   UNL     1      -1.984  12.224  23.294  0.00  0.00    +0.000 A 
ATOM      8  C   UNL     1      -3.038  13.093  23.582  0.00  0.00    +0.000 A 
ATOM      9  C   UNL     1      -3.704  13.764  22.556  0.00  0.00    +0.000 A 
ATOM     10  C   UNL     1      -3.291  13.554  21.236  0.00  0.00    +0.000 A 
ATOM     11  C   UNL     1      -2.224  12.681  20.933  0.00  0.00    +0.000 A 
ATOM     12  C   UNL     1      -1.857  12.481  19.480  0.00  0.00    +0.000 C 
ATOM     13  C   UNL     1      -0.534  11.748  19.255  0.00  0.00    +0.000 C 
ATOM     14  C   UNL     1      -0.431  10.544  20.193  0.00  0.00    +0.000 C 
ATOM     15  C   UNL     1       0.822   9.697  19.943  0.00  0.00    +0.000 C 
ATOM     16  C   UNL     1       1.085   9.070  18.564  0.00  0.00    +0.000 C 
ATOM     17  C   UNL     1       2.109   7.926  18.844  0.00  0.00    +0.000 C 
ATOM     18  C   UNL     1       2.200   7.855  20.393  0.00  0.00    +0.000 C 
ENDROOT
BRANCH   9  19
ATOM     19  C   UNL     1      -4.822  14.672  22.940  0.00  0.00    +0.000 C 
ATOM     20  N   UNL     1      -5.519  14.414  24.086  0.00  0.00    +0.000 N 
ATOM     21  O   UNL     1      -5.129  15.639  22.253  0.00  0.00    +0.000 OA
ATOM     22  H   UNL     1      -5.344  13.652  24.718  0.00  0.00    +0.000 HD
ATOM     23  H   UNL     1      -6.267  15.057  24.313  0.00  0.00    +0.000 HD
ENDBRANCH   9  19
BRANCH  18  24
ATOM     24  O   UNL     1       2.436   6.549  20.879  0.00  0.00    +0.000 OA
ATOM     25  H   UNL     1       2.540   5.952  20.119  0.00  0.00    +0.000 HD
ENDBRANCH  18  24
BRANCH  17  26
ATOM     26  C   UNL     1       1.772   6.560  18.219  0.00  0.00    +0.000 C 
BRANCH  26  27
ATOM     27  C   UNL     1       2.942   5.702  17.815  0.00  0.00    +0.000 A 
ATOM     28  C   UNL     1       2.812   4.318  17.682  0.00  0.00    +0.000 A 
ATOM     29  C   UNL     1       3.883   3.555  17.216  0.00  0.00    +0.000 A 
ATOM     30  C   UNL     1       5.092   4.165  16.869  0.00  0.00    +0.000 A 
ATOM     31  C   UNL     1       5.238   5.552  16.988  0.00  0.00    +0.000 A 
ATOM     32  C   UNL     1       4.161   6.307  17.474  0.00  0.00    +0.000 A 
BRANCH  31  33
ATOM     33  C   UNL     1       6.474   6.296  16.602  0.00  0.00    +0.000 C 
ATOM     34  N   UNL     1       7.404   5.668  15.826  0.00  0.00    +0.000 N 
ATOM     35  O   UNL     1       6.662   7.456  16.952  0.00  0.00    +0.000 OA
ATOM     36  H   UNL     1       7.301   4.751  15.422  0.00  0.00    +0.000 HD
ATOM     37  H   UNL     1       8.199   6.226  15.539  0.00  0.00    +0.000 HD
ENDBRANCH  31  33
ENDBRANCH  26  27
ENDBRANCH  17  26
TORSDOF 5
ENDMDL
