MODEL 1
REMARK VINA RESULT:      -7.6      0.000      0.000
REMARK  Name = 
REMARK  6 active torsions:
REMARK  status: ('A' for Active; 'I' for Inactive)
REMARK    1  A    between atoms: C_1  and  S_2
REMARK    2  A    between atoms: S_2  and  C_3
REMARK    3  A    between atoms: C_7  and  C_8
REMARK    4  A    between atoms: C_8  and  N_9
REMARK    5  A    between atoms: C_10  and  C_12
REMARK    6  A    between atoms: N_16  and  C_17
REMARK                            x       y       z     vdW  Elec       q    Type
REMARK                         _______ _______ _______ _____ _____    ______ ____
ROOT
ATOM      1  N   UNL     1       8.253   8.176  18.267  0.00  0.00    +0.000 N 
ATOM      2  C   UNL     1       7.527   7.164  17.678  0.00  0.00    +0.000 C 
ATOM      3  O   UNL     1       6.787   7.356  16.717  0.00  0.00    +0.000 OA
ATOM      4  H   UNL     1       8.807   7.998  19.093  0.00  0.00    +0.000 HD
ENDROOT
BRANCH   2   5
ATOM      5  C   UNL     1       7.659   5.805  18.361  0.00  0.00    +0.000 C 
ATOM      6  C   UNL     1       7.525   4.645  17.374  0.00  0.00    +0.000 C 
ATOM      7  C   UNL     1       6.040   4.376  17.366  0.00  0.00    +0.000 C 
ATOM      8  O   UNL     1       5.458   3.729  16.509  0.00  0.00    +0.000 OA
ATOM      9  N   UNL     1       5.503   4.959  18.507  0.00  0.00    +0.000 N 
ATOM     10  C   UNL     1       6.518   5.554  19.336  0.00  0.00    +0.000 C 
BRANCH   9  11
ATOM     11  C   UNL     1       4.138   4.889  18.903  0.00  0.00    +0.000 C 
ATOM     12  C   UNL     1       3.334   6.139  19.148  0.00  0.00    +0.000 C 
ATOM     13  C   UNL     1       3.035   5.282  17.957  0.00  0.00    +0.000 C 
ENDBRANCH   9  11
ENDBRANCH   2   5
BRANCH   1  14
ATOM     14  C   UNL     1       8.226   9.535  17.765  0.00  0.00    +0.000 C 
BRANCH  14  19
ATOM     15  C   UNL     1      10.962  12.096  18.553  0.00  0.00    +0.000 A 
ATOM     16  C   UNL     1      11.023  12.002  19.945  0.00  0.00    +0.000 A 
ATOM     17  C   UNL     1      10.152  11.150  20.630  0.00  0.00    +0.000 A 
ATOM     18  C   UNL     1       9.229  10.376  19.927  0.00  0.00    +0.000 A 
ATOM     19  C   UNL     1       9.156  10.446  18.529  0.00  0.00    +0.000 A 
ATOM     20  C   UNL     1      10.031  11.315  17.852  0.00  0.00    +0.000 A 
BRANCH  15  22
ATOM     21  C   UNL     1      11.176  14.645  17.485  0.00  0.00    +0.000 C 
ATOM     22  S   UNL     1      12.114  13.101  17.628  0.00  0.00    +0.000 S 
ENDBRANCH  15  22
ENDBRANCH  14  19
ENDBRANCH   1  14
TORSDOF 5
ENDMDL
MODEL 2
REMARK VINA RESULT:      -7.3      5.228      7.239
REMARK  Name = 
REMARK  6 active torsions:
REMARK  status: ('A' for Active; 'I' for Inactive)
REMARK    1  A    between atoms: C_1  and  S_2
REMARK    2  A    between atoms: S_2  and  C_3
REMARK    3  A    between atoms: C_7  and  C_8
REMARK    4  A    between atoms: C_8  and  N_9
REMARK    5  A    between atoms: C_10  and  C_12
REMARK    6  A    between atoms: N_16  and  C_17
REMARK                            x       y       z     vdW  Elec       q    Type
REMARK                         _______ _______ _______ _____ _____    ______ ____
ROOT
ATOM      1  N   UNL     1       3.912   5.716  19.709  0.00  0.00    +0.000 N 
ATOM      2  C   UNL     1       4.224   4.606  18.955  0.00  0.00    +0.000 C 
ATOM      3  O   UNL     1       3.378   3.788  18.603  0.00  0.00    +0.000 OA
ATOM      4  H   UNL     1       4.639   6.338  20.033  0.00  0.00    +0.000 HD
ENDROOT
BRANCH   2   5
ATOM      5  C   UNL     1       5.711   4.436  18.657  0.00  0.00    +0.000 C 
ATOM      6  C   UNL     1       6.473   5.759  18.733  0.00  0.00    +0.000 C 
ATOM      7  C   UNL     1       6.362   6.296  17.327  0.00  0.00    +0.000 C 
ATOM      8  O   UNL     1       6.577   7.455  17.009  0.00  0.00    +0.000 OA
ATOM      9  N   UNL     1       6.018   5.234  16.500  0.00  0.00    +0.000 N 
ATOM     10  C   UNL     1       5.948   3.991  17.221  0.00  0.00    +0.000 C 
BRANCH   9  11
ATOM     11  C   UNL     1       5.868   5.307  15.086  0.00  0.00    +0.000 C 
ATOM     12  C   UNL     1       7.005   4.950  14.164  0.00  0.00    +0.000 C 
ATOM     13  C   UNL     1       5.805   4.057  14.249  0.00  0.00    +0.000 C 
ENDBRANCH   9  11
ENDBRANCH   2   5
BRANCH   1  14
ATOM     14  C   UNL     1       2.552   6.019  20.105  0.00  0.00    +0.000 C 
BRANCH  14  19
ATOM     15  C   UNL     1       0.966   9.505  20.114  0.00  0.00    +0.000 A 
ATOM     16  C   UNL     1       1.143   9.881  18.781  0.00  0.00    +0.000 A 
ATOM     17  C   UNL     1       1.812   9.034  17.894  0.00  0.00    +0.000 A 
ATOM     18  C   UNL     1       2.293   7.800  18.331  0.00  0.00    +0.000 A 
ATOM     19  C   UNL     1       2.120   7.396  19.662  0.00  0.00    +0.000 A 
ATOM     20  C   UNL     1       1.453   8.262  20.546  0.00  0.00    +0.000 A 
BRANCH  15  22
ATOM     21  C   UNL     1      -0.399   9.282  22.517  0.00  0.00    +0.000 C 
ATOM     22  S   UNL     1       0.038  10.513  21.260  0.00  0.00    +0.000 S 
ENDBRANCH  15  22
ENDBRANCH  14  19
ENDBRANCH   1  14
TORSDOF 5
ENDMDL
MODEL 3
REMARK VINA RESULT:      -7.2      5.738      6.866
REMARK  Name = 
REMARK  6 active torsions:
REMARK  status: ('A' for Active; 'I' for Inactive)
REMARK    1  A    between atoms: C_1  and  S_2
REMARK    2  A    between atoms: S_2  and  C_3
REMARK    3  A    between atoms: C_7  and  C_8
REMARK    4  A    between atoms: C_8  and  N_9
REMARK    5  A    between atoms: C_10  and  C_12
REMARK    6  A    between atoms: N_16  and  C_17
REMARK                            x       y       z     vdW  Elec       q    Type
REMARK                         _______ _______ _______ _____ _____    ______ ____
ROOT
ATOM      1  N   UNL     1       2.662   5.517  18.695  0.00  0.00    +0.000 N 
ATOM      2  C   UNL     1       2.121   5.884  19.908  0.00  0.00    +0.000 C 
ATOM      3  O   UNL     1       2.322   6.985  20.414  0.00  0.00    +0.000 OA
ATOM      4  H   UNL     1       2.526   4.584  18.334  0.00  0.00    +0.000 HD
ENDROOT
BRANCH   2   5
ATOM      5  C   UNL     1       1.313   4.791  20.602  0.00  0.00    +0.000 C 
ATOM      6  C   UNL     1       2.119   4.073  21.685  0.00  0.00    +0.000 C 
ATOM      7  C   UNL     1       2.785   2.951  20.925  0.00  0.00    +0.000 C 
ATOM      8  O   UNL     1       3.738   2.307  21.334  0.00  0.00    +0.000 OA
ATOM      9  N   UNL     1       2.090   2.784  19.734  0.00  0.00    +0.000 N 
ATOM     10  C   UNL     1       0.954   3.664  19.644  0.00  0.00    +0.000 C 
BRANCH   9  11
ATOM     11  C   UNL     1       2.364   1.789  18.753  0.00  0.00    +0.000 C 
ATOM     12  C   UNL     1       2.686   2.168  17.330  0.00  0.00    +0.000 C 
ATOM     13  C   UNL     1       3.755   1.599  18.211  0.00  0.00    +0.000 C 
ENDBRANCH   9  11
ENDBRANCH   2   5
BRANCH   1  14
ATOM     14  C   UNL     1       3.477   6.422  17.911  0.00  0.00    +0.000 C 
BRANCH  14  19
ATOM     15  C   UNL     1       6.573   5.109  16.080  0.00  0.00    +0.000 A 
ATOM     16  C   UNL     1       7.347   4.660  17.152  0.00  0.00    +0.000 A 
ATOM     17  C   UNL     1       6.892   4.822  18.464  0.00  0.00    +0.000 A 
ATOM     18  C   UNL     1       5.655   5.419  18.708  0.00  0.00    +0.000 A 
ATOM     19  C   UNL     1       4.856   5.869  17.648  0.00  0.00    +0.000 A 
ATOM     20  C   UNL     1       5.330   5.708  16.334  0.00  0.00    +0.000 A 
BRANCH  15  22
ATOM     21  C   UNL     1       5.620   3.967  13.741  0.00  0.00    +0.000 C 
ATOM     22  S   UNL     1       7.071   4.841  14.385  0.00  0.00    +0.000 S 
ENDBRANCH  15  22
ENDBRANCH  14  19
ENDBRANCH   1  14
TORSDOF 5
ENDMDL
MODEL 4
REMARK VINA RESULT:      -7.2      6.144      7.163
REMARK  Name = 
REMARK  6 active torsions:
REMARK  status: ('A' for Active; 'I' for Inactive)
REMARK    1  A    between atoms: C_1  and  S_2
REMARK    2  A    between atoms: S_2  and  C_3
REMARK    3  A    between atoms: C_7  and  C_8
REMARK    4  A    between atoms: C_8  and  N_9
REMARK    5  A    between atoms: C_10  and  C_12
REMARK    6  A    between atoms: N_16  and  C_17
REMARK                            x       y       z     vdW  Elec       q    Type
REMARK                         _______ _______ _______ _____ _____    ______ ____
ROOT
ATOM      1  N   UNL     1       3.173   7.183  18.155  0.00  0.00    +0.000 N 
ATOM      2  C   UNL     1       4.183   6.536  17.476  0.00  0.00    +0.000 C 
ATOM      3  O   UNL     1       4.661   6.971  16.433  0.00  0.00    +0.000 OA
ATOM      4  H   UNL     1       2.760   6.769  18.979  0.00  0.00    +0.000 HD
ENDROOT
BRANCH   2   5
ATOM      5  C   UNL     1       4.606   5.202  18.086  0.00  0.00    +0.000 C 
ATOM      6  C   UNL     1       4.382   4.030  17.130  0.00  0.00    +0.000 C 
ATOM      7  C   UNL     1       2.968   3.602  17.442  0.00  0.00    +0.000 C 
ATOM      8  O   UNL     1       2.284   2.893  16.721  0.00  0.00    +0.000 OA
ATOM      9  N   UNL     1       2.637   4.128  18.684  0.00  0.00    +0.000 N 
ATOM     10  C   UNL     1       3.741   4.832  19.283  0.00  0.00    +0.000 C 
BRANCH   9  11
ATOM     11  C   UNL     1       1.409   3.912  19.370  0.00  0.00    +0.000 C 
ATOM     12  C   UNL     1       1.284   2.845  20.426  0.00  0.00    +0.000 C 
ATOM     13  C   UNL     1       1.252   4.290  20.818  0.00  0.00    +0.000 C 
ENDBRANCH   9  11
ENDBRANCH   2   5
BRANCH   1  14
ATOM     14  C   UNL     1       2.631   8.448  17.704  0.00  0.00    +0.000 C 
BRANCH  14  19
ATOM     15  C   UNL     1      -0.401  10.407  18.981  0.00  0.00    +0.000 A 
ATOM     16  C   UNL     1      -0.405  10.043  20.330  0.00  0.00    +0.000 A 
ATOM     17  C   UNL     1       0.539   9.133  20.815  0.00  0.00    +0.000 A 
ATOM     18  C   UNL     1       1.500   8.596  19.958  0.00  0.00    +0.000 A 
ATOM     19  C   UNL     1       1.530   8.953  18.604  0.00  0.00    +0.000 A 
ATOM     20  C   UNL     1       0.569   9.863  18.127  0.00  0.00    +0.000 A 
BRANCH  15  22
ATOM     21  C   UNL     1      -0.476  13.109  18.366  0.00  0.00    +0.000 C 
ATOM     22  S   UNL     1      -1.528  11.633  18.336  0.00  0.00    +0.000 S 
ENDBRANCH  15  22
ENDBRANCH  14  19
ENDBRANCH   1  14
TORSDOF 5
ENDMDL
MODEL 5
REMARK VINA RESULT:      -7.2      5.998      7.003
REMARK  Name = 
REMARK  6 active torsions:
REMARK  status: ('A' for Active; 'I' for Inactive)
REMARK    1  A    between atoms: C_1  and  S_2
REMARK    2  A    between atoms: S_2  and  C_3
REMARK    3  A    between atoms: C_7  and  C_8
REMARK    4  A    between atoms: C_8  and  N_9
REMARK    5  A    between atoms: C_10  and  C_12
REMARK    6  A    between atoms: N_16  and  C_17
REMARK                            x       y       z     vdW  Elec       q    Type
REMARK                         _______ _______ _______ _____ _____    ______ ____
ROOT
ATOM      1  N   UNL     1       3.612   5.985  17.438  0.00  0.00    +0.000 N 
ATOM      2  C   UNL     1       4.602   5.243  18.044  0.00  0.00    +0.000 C 
ATOM      3  O   UNL     1       5.515   5.759  18.683  0.00  0.00    +0.000 OA
ATOM      4  H   UNL     1       2.908   5.535  16.870  0.00  0.00    +0.000 HD
ENDROOT
BRANCH   2   5
ATOM      5  C   UNL     1       4.514   3.740  17.796  0.00  0.00    +0.000 C 
ATOM      6  C   UNL     1       3.244   3.350  17.040  0.00  0.00    +0.000 C 
ATOM      7  C   UNL     1       2.247   3.117  18.149  0.00  0.00    +0.000 C 
ATOM      8  O   UNL     1       1.037   3.069  17.994  0.00  0.00    +0.000 OA
ATOM      9  N   UNL     1       2.964   2.937  19.325  0.00  0.00    +0.000 N 
ATOM     10  C   UNL     1       4.386   2.962  19.098  0.00  0.00    +0.000 C 
BRANCH   9  11
ATOM     11  C   UNL     1       2.400   2.636  20.597  0.00  0.00    +0.000 C 
ATOM     12  C   UNL     1       2.312   3.684  21.676  0.00  0.00    +0.000 C 
ATOM     13  C   UNL     1       1.064   3.200  21.004  0.00  0.00    +0.000 C 
ENDBRANCH   9  11
ENDBRANCH   2   5
BRANCH   1  14
ATOM     14  C   UNL     1       3.556   7.428  17.547  0.00  0.00    +0.000 C 
BRANCH  14  19
ATOM     15  C   UNL     1       0.886   9.541  19.301  0.00  0.00    +0.000 A 
ATOM     16  C   UNL     1       0.745   8.846  20.504  0.00  0.00    +0.000 A 
ATOM     17  C   UNL     1       1.473   7.675  20.730  0.00  0.00    +0.000 A 
ATOM     18  C   UNL     1       2.359   7.202  19.761  0.00  0.00    +0.000 A 
ATOM     19  C   UNL     1       2.525   7.887  18.550  0.00  0.00    +0.000 A 
ATOM     20  C   UNL     1       1.779   9.059  18.332  0.00  0.00    +0.000 A 
BRANCH  15  22
ATOM     21  C   UNL     1      -1.330  10.534  17.964  0.00  0.00    +0.000 C 
ATOM     22  S   UNL     1       0.046  11.089  19.006  0.00  0.00    +0.000 S 
ENDBRANCH  15  22
ENDBRANCH  14  19
ENDBRANCH   1  14
TORSDOF 5
ENDMDL
MODEL 6
REMARK VINA RESULT:      -7.0      6.650      8.079
REMARK  Name = 
REMARK  6 active torsions:
REMARK  status: ('A' for Active; 'I' for Inactive)
REMARK    1  A    between atoms: C_1  and  S_2
REMARK    2  A    between atoms: S_2  and  C_3
REMARK    3  A    between atoms: C_7  and  C_8
REMARK    4  A    between atoms: C_8  and  N_9
REMARK    5  A    between atoms: C_10  and  C_12
REMARK    6  A    between atoms: N_16  and  C_17
REMARK                            x       y       z     vdW  Elec       q    Type
REMARK                         _______ _______ _______ _____ _____    ______ ____
ROOT
ATOM      1  N   UNL     1       1.985   8.122  19.328  0.00  0.00    +0.000 N 
ATOM      2  C   UNL     1       2.727   7.651  18.268  0.00  0.00    +0.000 C 
ATOM      3  O   UNL     1       2.654   8.137  17.143  0.00  0.00    +0.000 OA
ATOM      4  H   UNL     1       2.024   7.662  20.227  0.00  0.00    +0.000 HD
ENDROOT
BRANCH   2   5
ATOM      5  C   UNL     1       3.590   6.432  18.586  0.00  0.00    +0.000 C 
ATOM      6  C   UNL     1       3.569   5.397  17.461  0.00  0.00    +0.000 C 
ATOM      7  C   UNL     1       2.392   4.525  17.824  0.00  0.00    +0.000 C 
ATOM      8  O   UNL     1       1.838   3.753  17.057  0.00  0.00    +0.000 OA
ATOM      9  N   UNL     1       2.108   4.743  19.166  0.00  0.00    +0.000 N 
ATOM     10  C   UNL     1       3.044   5.653  19.774  0.00  0.00    +0.000 C 
BRANCH   9  11
ATOM     11  C   UNL     1       1.100   4.073  19.915  0.00  0.00    +0.000 C 
ATOM     12  C   UNL     1       1.143   2.580  20.114  0.00  0.00    +0.000 C 
ATOM     13  C   UNL     1       1.399   3.495  21.272  0.00  0.00    +0.000 C 
ENDBRANCH   9  11
ENDBRANCH   2   5
BRANCH   1  14
ATOM     14  C   UNL     1       1.093   9.256  19.199  0.00  0.00    +0.000 C 
BRANCH  14  19
ATOM     15  C   UNL     1      -0.942  11.141  21.839  0.00  0.00    +0.000 A 
ATOM     16  C   UNL     1      -0.636  10.406  22.987  0.00  0.00    +0.000 A 
ATOM     17  C   UNL     1       0.186   9.279  22.901  0.00  0.00    +0.000 A 
ATOM     18  C   UNL     1       0.719   8.891  21.671  0.00  0.00    +0.000 A 
ATOM     19  C   UNL     1       0.435   9.619  20.508  0.00  0.00    +0.000 A 
ATOM     20  C   UNL     1      -0.401  10.746  20.607  0.00  0.00    +0.000 A 
BRANCH  15  22
ATOM     21  C   UNL     1      -2.732  12.593  20.299  0.00  0.00    +0.000 C 
ATOM     22  S   UNL     1      -1.911  12.640  21.915  0.00  0.00    +0.000 S 
ENDBRANCH  15  22
ENDBRANCH  14  19
ENDBRANCH   1  14
TORSDOF 5
ENDMDL
MODEL 7
REMARK VINA RESULT:      -7.0      1.501      2.028
REMARK  Name = 
REMARK  6 active torsions:
REMARK  status: ('A' for Active; 'I' for Inactive)
REMARK    1  A    between atoms: C_1  and  S_2
REMARK    2  A    between atoms: S_2  and  C_3
REMARK    3  A    between atoms: C_7  and  C_8
REMARK    4  A    between atoms: C_8  and  N_9
REMARK    5  A    between atoms: C_10  and  C_12
REMARK    6  A    between atoms: N_16  and  C_17
REMARK                            x       y       z     vdW  Elec       q    Type
REMARK                         _______ _______ _______ _____ _____    ______ ____
ROOT
ATOM      1  N   UNL     1       8.303   8.170  18.379  0.00  0.00    +0.000 N 
ATOM      2  C   UNL     1       7.587   7.186  17.734  0.00  0.00    +0.000 C 
ATOM      3  O   UNL     1       6.922   7.406  16.726  0.00  0.00    +0.000 OA
ATOM      4  H   UNL     1       8.792   7.969  19.240  0.00  0.00    +0.000 HD
ENDROOT
BRANCH   2   5
ATOM      5  C   UNL     1       7.629   5.819  18.413  0.00  0.00    +0.000 C 
ATOM      6  C   UNL     1       7.626   4.670  17.406  0.00  0.00    +0.000 C 
ATOM      7  C   UNL     1       6.155   4.403  17.199  0.00  0.00    +0.000 C 
ATOM      8  O   UNL     1       5.690   3.765  16.267  0.00  0.00    +0.000 OA
ATOM      9  N   UNL     1       5.473   4.974  18.266  0.00  0.00    +0.000 N 
ATOM     10  C   UNL     1       6.370   5.559  19.228  0.00  0.00    +0.000 C 
BRANCH   9  11
ATOM     11  C   UNL     1       4.068   4.901  18.480  0.00  0.00    +0.000 C 
ATOM     12  C   UNL     1       3.483   3.946  19.488  0.00  0.00    +0.000 C 
ATOM     13  C   UNL     1       3.449   5.421  19.749  0.00  0.00    +0.000 C 
ENDBRANCH   9  11
ENDBRANCH   2   5
BRANCH   1  14
ATOM     14  C   UNL     1       8.353   9.532  17.888  0.00  0.00    +0.000 C 
BRANCH  14  19
ATOM     15  C   UNL     1       9.726  11.733  20.704  0.00  0.00    +0.000 A 
ATOM     16  C   UNL     1      10.923  12.176  20.137  0.00  0.00    +0.000 A 
ATOM     17  C   UNL     1      11.308  11.730  18.870  0.00  0.00    +0.000 A 
ATOM     18  C   UNL     1      10.491  10.851  18.158  0.00  0.00    +0.000 A 
ATOM     19  C   UNL     1       9.281  10.401  18.702  0.00  0.00    +0.000 A 
ATOM     20  C   UNL     1       8.910  10.851  19.981  0.00  0.00    +0.000 A 
BRANCH  15  22
ATOM     21  C   UNL     1       9.481  14.119  22.094  0.00  0.00    +0.000 C 
ATOM     22  S   UNL     1       9.149  12.347  22.280  0.00  0.00    +0.000 S 
ENDBRANCH  15  22
ENDBRANCH  14  19
ENDBRANCH   1  14
TORSDOF 5
ENDMDL
MODEL 8
REMARK VINA RESULT:      -7.0      6.439      8.001
REMARK  Name = 
REMARK  6 active torsions:
REMARK  status: ('A' for Active; 'I' for Inactive)
REMARK    1  A    between atoms: C_1  and  S_2
REMARK    2  A    between atoms: S_2  and  C_3
REMARK    3  A    between atoms: C_7  and  C_8
REMARK    4  A    between atoms: C_8  and  N_9
REMARK    5  A    between atoms: C_10  and  C_12
REMARK    6  A    between atoms: N_16  and  C_17
REMARK                            x       y       z     vdW  Elec       q    Type
REMARK                         _______ _______ _______ _____ _____    ______ ____
ROOT
ATOM      1  N   UNL     1       4.709   4.646  16.525  0.00  0.00    +0.000 N 
ATOM      2  C   UNL     1       3.913   3.776  17.236  0.00  0.00    +0.000 C 
ATOM      3  O   UNL     1       4.321   2.692  17.644  0.00  0.00    +0.000 OA
ATOM      4  H   UNL     1       4.327   5.505  16.153  0.00  0.00    +0.000 HD
ENDROOT
BRANCH   2   5
ATOM      5  C   UNL     1       2.468   4.234  17.413  0.00  0.00    +0.000 C 
ATOM      6  C   UNL     1       2.369   5.715  17.780  0.00  0.00    +0.000 C 
ATOM      7  C   UNL     1       2.434   5.695  19.288  0.00  0.00    +0.000 C 
ATOM      8  O   UNL     1       2.677   6.668  19.984  0.00  0.00    +0.000 OA
ATOM      9  N   UNL     1       2.133   4.404  19.703  0.00  0.00    +0.000 N 
ATOM     10  C   UNL     1       1.801   3.546  18.595  0.00  0.00    +0.000 C 
BRANCH   9  11
ATOM     11  C   UNL     1       2.034   3.975  21.056  0.00  0.00    +0.000 C 
ATOM     12  C   UNL     1       1.127   2.837  21.447  0.00  0.00    +0.000 C 
ATOM     13  C   UNL     1       2.613   2.657  21.496  0.00  0.00    +0.000 C 
ENDBRANCH   9  11
ENDBRANCH   2   5
BRANCH   1  14
ATOM     14  C   UNL     1       6.101   4.360  16.242  0.00  0.00    +0.000 C 
BRANCH  14  19
ATOM     15  C   UNL     1       6.068   3.484  12.515  0.00  0.00    +0.000 A 
ATOM     16  C   UNL     1       7.100   4.298  12.041  0.00  0.00    +0.000 A 
ATOM     17  C   UNL     1       7.771   5.160  12.911  0.00  0.00    +0.000 A 
ATOM     18  C   UNL     1       7.427   5.201  14.263  0.00  0.00    +0.000 A 
ATOM     19  C   UNL     1       6.403   4.386  14.764  0.00  0.00    +0.000 A 
ATOM     20  C   UNL     1       5.728   3.530  13.875  0.00  0.00    +0.000 A 
BRANCH  15  22
ATOM     21  C   UNL     1       6.614   1.179  11.075  0.00  0.00    +0.000 C 
ATOM     22  S   UNL     1       5.244   2.302  11.459  0.00  0.00    +0.000 S 
ENDBRANCH  15  22
ENDBRANCH  14  19
ENDBRANCH   1  14
TORSDOF 5
ENDMDL
MODEL 9
REMARK VINA RESULT:      -6.9      5.732      7.486
REMARK  Name = 
REMARK  6 active torsions:
REMARK  status: ('A' for Active; 'I' for Inactive)
REMARK    1  A    between atoms: C_1  and  S_2
REMARK    2  A    between atoms: S_2  and  C_3
REMARK    3  A    between atoms: C_7  and  C_8
REMARK    4  A    between atoms: C_8  and  N_9
REMARK    5  A    between atoms: C_10  and  C_12
REMARK    6  A    between atoms: N_16  and  C_17
REMARK                            x       y       z     vdW  Elec       q    Type
REMARK                         _______ _______ _______ _____ _____    ______ ____
ROOT
ATOM      1  N   UNL     1       2.132   5.878  19.614  0.00  0.00    +0.000 N 
ATOM      2  C   UNL     1       1.695   4.574  19.697  0.00  0.00    +0.000 C 
ATOM      3  O   UNL     1       0.956   4.182  20.596  0.00  0.00    +0.000 OA
ATOM      4  H   UNL     1       2.786   6.156  18.896  0.00  0.00    +0.000 HD
ENDROOT
BRANCH   2   5
ATOM      5  C   UNL     1       2.261   3.644  18.627  0.00  0.00    +0.000 C 
ATOM      6  C   UNL     1       2.828   2.354  19.220  0.00  0.00    +0.000 C 
ATOM      7  C   UNL     1       4.264   2.717  19.512  0.00  0.00    +0.000 C 
ATOM      8  O   UNL     1       5.002   2.084  20.249  0.00  0.00    +0.000 OA
ATOM      9  N   UNL     1       4.568   3.850  18.767  0.00  0.00    +0.000 N 
ATOM     10  C   UNL     1       3.468   4.256  17.932  0.00  0.00    +0.000 C 
BRANCH   9  11
ATOM     11  C   UNL     1       5.841   4.484  18.715  0.00  0.00    +0.000 C 
ATOM     12  C   UNL     1       6.576   4.647  17.409  0.00  0.00    +0.000 C 
ATOM     13  C   UNL     1       6.003   5.847  18.098  0.00  0.00    +0.000 C 
ENDBRANCH   9  11
ENDBRANCH   2   5
BRANCH   1  14
ATOM     14  C   UNL     1       1.715   6.891  20.562  0.00  0.00    +0.000 C 
BRANCH  14  19
ATOM     15  C   UNL     1       0.819  10.573  20.014  0.00  0.00    +0.000 A 
ATOM     16  C   UNL     1       1.196  10.744  18.680  0.00  0.00    +0.000 A 
ATOM     17  C   UNL     1       1.781   9.688  17.975  0.00  0.00    +0.000 A 
ATOM     18  C   UNL     1       1.975   8.453  18.594  0.00  0.00    +0.000 A 
ATOM     19  C   UNL     1       1.596   8.255  19.928  0.00  0.00    +0.000 A 
ATOM     20  C   UNL     1       1.017   9.328  20.629  0.00  0.00    +0.000 A 
BRANCH  15  22
ATOM     21  C   UNL     1      -0.551  10.946  22.395  0.00  0.00    +0.000 C 
ATOM     22  S   UNL     1      -0.015  11.863  20.926  0.00  0.00    +0.000 S 
ENDBRANCH  15  22
ENDBRANCH  14  19
ENDBRANCH   1  14
TORSDOF 5
ENDMDL
