MODEL 1
REMARK VINA RESULT:      -6.6      0.000      0.000
REMARK  Name = 
REMARK  19 active torsions:
REMARK  status: ('A' for Active; 'I' for Inactive)
REMARK    1  A    between atoms: C_1  and  C_2
REMARK    2  A    between atoms: C_2  and  C_3
REMARK    3  A    between atoms: C_3  and  C_4
REMARK    4  A    between atoms: C_4  and  C_5
REMARK    5  A    between atoms: C_5  and  C_6
REMARK    6  A    between atoms: C_6  and  C_7
REMARK    7  A    between atoms: C_7  and  C_8
REMARK    8  A    between atoms: C_8  and  C_9
REMARK    9  A    between atoms: C_9  and  C_10
REMARK   10  A    between atoms: C_10  and  C_11
REMARK   11  A    between atoms: C_11  and  C_12
REMARK   12  A    between atoms: C_12  and  C_13
REMARK   13  A    between atoms: C_13  and  C_14
REMARK   14  A    between atoms: C_14  and  C_15
REMARK   15  A    between atoms: C_15  and  N_16
REMARK   16  A    between atoms: C_17  and  C_19
REMARK   17  A    between atoms: C_22  and  C_23
REMARK   18  A    between atoms: C_26  and  N_27
REMARK   19  A    between atoms: C_28  and  C_29
REMARK                            x       y       z     vdW  Elec       q    Type
REMARK                         _______ _______ _______ _____ _____    ______ ____
ROOT
ATOM      1  N   UNL     1       7.904   6.988  17.930  0.00  0.00    +0.000 N 
ATOM      2  C   UNL     1       7.531   5.868  18.648  0.00  0.00    +0.000 C 
ATOM      3  O   UNL     1       7.326   5.902  19.859  0.00  0.00    +0.000 OA
ATOM      4  H   UNL     1       8.266   6.774  17.005  0.00  0.00    +0.000 HD
ENDROOT
BRANCH   2   5
ATOM      5  C   UNL     1       7.265   4.612  17.784  0.00  0.00    +0.000 C 
ATOM      6  C   UNL     1       7.032   4.916  16.291  0.00  0.00    +0.000 C 
ATOM      7  S   UNL     1       5.561   3.966  15.861  0.00  0.00    +0.000 S 
ATOM      8  C   UNL     1       4.949   3.955  17.566  0.00  0.00    +0.000 C 
ATOM      9  N   UNL     1       6.167   3.788  18.388  0.00  0.00    +0.000 NA
ATOM     10  H   UNL     1       6.481   2.823  18.327  0.00  0.00    +0.000 HD
BRANCH   8  11
ATOM     11  C   UNL     1       4.178   5.216  18.009  0.00  0.00    +0.000 A 
ATOM     12  C   UNL     1       4.160   6.418  17.283  0.00  0.00    +0.000 A 
ATOM     13  C   UNL     1       3.383   7.524  17.682  0.00  0.00    +0.000 A 
ATOM     14  C   UNL     1       2.618   7.495  18.842  0.00  0.00    +0.000 A 
ATOM     15  C   UNL     1       2.701   6.342  19.634  0.00  0.00    +0.000 A 
ATOM     16  C   UNL     1       3.412   5.209  19.194  0.00  0.00    +0.000 A 
BRANCH  14  17
ATOM     17  N   UNL     1       1.741   8.539  19.249  0.00  0.00    +0.000 N 
ATOM     18  C   UNL     1       1.427   9.662  18.503  0.00  0.00    +0.000 C 
ATOM     19  C   UNL     1       0.381  10.594  19.088  0.00  0.00    +0.000 C 
ATOM     20  O   UNL     1       1.933   9.990  17.418  0.00  0.00    +0.000 OA
ATOM     21  H   UNL     1       1.222   8.386  20.104  0.00  0.00    +0.000 HD
ENDBRANCH  14  17
ENDBRANCH   8  11
ENDBRANCH   2   5
BRANCH   1  22
ATOM     22  C   UNL     1       8.207   8.245  18.582  0.00  0.00    +0.000 C 
BRANCH  22  23
ATOM     23  C   UNL     1       8.156   9.426  17.611  0.00  0.00    +0.000 C 
BRANCH  23  24
ATOM     24  C   UNL     1       8.541  10.720  18.324  0.00  0.00    +0.000 C 
BRANCH  24  25
ATOM     25  C   UNL     1       9.537  10.450  19.444  0.00  0.00    +0.000 C 
BRANCH  25  26
ATOM     26  C   UNL     1      10.884  11.095  19.142  0.00  0.00    +0.000 C 
BRANCH  26  27
ATOM     27  C   UNL     1      11.265  12.069  20.248  0.00  0.00    +0.000 C 
BRANCH  27  28
ATOM     28  C   UNL     1      11.628  13.426  19.663  0.00  0.00    +0.000 C 
BRANCH  28  29
ATOM     29  C   UNL     1      12.010  13.285  18.198  0.00  0.00    +0.000 C 
BRANCH  29  30
ATOM     30  C   UNL     1      10.926  13.877  17.310  0.00  0.00    +0.000 C 
BRANCH  30  31
ATOM     31  C   UNL     1      10.070  14.855  18.100  0.00  0.00    +0.000 C 
BRANCH  31  32
ATOM     32  C   UNL     1       8.607  14.440  18.050  0.00  0.00    +0.000 C 
BRANCH  32  33
ATOM     33  C   UNL     1       8.027  14.361  19.457  0.00  0.00    +0.000 C 
BRANCH  33  34
ATOM     34  C   UNL     1       6.671  15.053  19.517  0.00  0.00    +0.000 C 
BRANCH  34  36
ATOM     35  C   UNL     1       7.133  17.511  19.672  0.00  0.00    +0.000 C 
ATOM     36  C   UNL     1       6.699  16.377  18.761  0.00  0.00    +0.000 C 
ENDBRANCH  34  36
ENDBRANCH  33  34
ENDBRANCH  32  33
ENDBRANCH  31  32
ENDBRANCH  30  31
ENDBRANCH  29  30
ENDBRANCH  28  29
ENDBRANCH  27  28
ENDBRANCH  26  27
ENDBRANCH  25  26
ENDBRANCH  24  25
ENDBRANCH  23  24
ENDBRANCH  22  23
ENDBRANCH   1  22
TORSDOF 17
ENDMDL
MODEL 2
REMARK VINA RESULT:      -6.5      7.224     10.483
REMARK  Name = 
REMARK  19 active torsions:
REMARK  status: ('A' for Active; 'I' for Inactive)
REMARK    1  A    between atoms: C_1  and  C_2
REMARK    2  A    between atoms: C_2  and  C_3
REMARK    3  A    between atoms: C_3  and  C_4
REMARK    4  A    between atoms: C_4  and  C_5
REMARK    5  A    between atoms: C_5  and  C_6
REMARK    6  A    between atoms: C_6  and  C_7
REMARK    7  A    between atoms: C_7  and  C_8
REMARK    8  A    between atoms: C_8  and  C_9
REMARK    9  A    between atoms: C_9  and  C_10
REMARK   10  A    between atoms: C_10  and  C_11
REMARK   11  A    between atoms: C_11  and  C_12
REMARK   12  A    between atoms: C_12  and  C_13
REMARK   13  A    between atoms: C_13  and  C_14
REMARK   14  A    between atoms: C_14  and  C_15
REMARK   15  A    between atoms: C_15  and  N_16
REMARK   16  A    between atoms: C_17  and  C_19
REMARK   17  A    between atoms: C_22  and  C_23
REMARK   18  A    between atoms: C_26  and  N_27
REMARK   19  A    between atoms: C_28  and  C_29
REMARK                            x       y       z     vdW  Elec       q    Type
REMARK                         _______ _______ _______ _____ _____    ______ ____
ROOT
ATOM      1  N   UNL     1       1.130   9.573  20.602  0.00  0.00    +0.000 N 
ATOM      2  C   UNL     1       0.080   9.493  21.497  0.00  0.00    +0.000 C 
ATOM      3  O   UNL     1      -0.649   8.506  21.569  0.00  0.00    +0.000 OA
ATOM      4  H   UNL     1       1.490  10.515  20.485  0.00  0.00    +0.000 HD
ENDROOT
BRANCH   2   5
ATOM      5  C   UNL     1      -0.014  10.683  22.482  0.00  0.00    +0.000 C 
ATOM      6  C   UNL     1      -1.392  10.830  23.158  0.00  0.00    +0.000 C 
ATOM      7  S   UNL     1      -1.791  12.581  22.991  0.00  0.00    +0.000 S 
ATOM      8  C   UNL     1      -0.736  12.784  21.532  0.00  0.00    +0.000 C 
ATOM      9  N   UNL     1       0.447  11.946  21.819  0.00  0.00    +0.000 NA
ATOM     10  H   UNL     1       1.033  12.419  22.503  0.00  0.00    +0.000 HD
BRANCH   8  11
ATOM     11  C   UNL     1      -1.368  12.368  20.188  0.00  0.00    +0.000 A 
ATOM     12  C   UNL     1      -2.744  12.159  20.001  0.00  0.00    +0.000 A 
ATOM     13  C   UNL     1      -3.292  11.852  18.738  0.00  0.00    +0.000 A 
ATOM     14  C   UNL     1      -2.489  11.704  17.614  0.00  0.00    +0.000 A 
ATOM     15  C   UNL     1      -1.104  11.809  17.798  0.00  0.00    +0.000 A 
ATOM     16  C   UNL     1      -0.564  12.195  19.040  0.00  0.00    +0.000 A 
BRANCH  14  17
ATOM     17  N   UNL     1      -2.986  11.489  16.297  0.00  0.00    +0.000 N 
ATOM     18  C   UNL     1      -3.037  10.268  15.646  0.00  0.00    +0.000 C 
ATOM     19  C   UNL     1      -3.709  10.253  14.286  0.00  0.00    +0.000 C 
ATOM     20  O   UNL     1      -2.567   9.195  16.057  0.00  0.00    +0.000 OA
ATOM     21  H   UNL     1      -3.441  12.275  15.853  0.00  0.00    +0.000 HD
ENDBRANCH  14  17
ENDBRANCH   8  11
ENDBRANCH   2   5
BRANCH   1  22
ATOM     22  C   UNL     1       1.355   8.552  19.600  0.00  0.00    +0.000 C 
BRANCH  22  23
ATOM     23  C   UNL     1       2.166   7.376  20.147  0.00  0.00    +0.000 C 
BRANCH  23  24
ATOM     24  C   UNL     1       1.529   6.051  19.737  0.00  0.00    +0.000 C 
BRANCH  24  25
ATOM     25  C   UNL     1       1.924   4.936  20.697  0.00  0.00    +0.000 C 
BRANCH  25  26
ATOM     26  C   UNL     1       1.274   3.618  20.298  0.00  0.00    +0.000 C 
BRANCH  26  27
ATOM     27  C   UNL     1       2.318   2.658  19.744  0.00  0.00    +0.000 C 
BRANCH  27  28
ATOM     28  C   UNL     1       2.016   2.317  18.293  0.00  0.00    +0.000 C 
BRANCH  28  29
ATOM     29  C   UNL     1       2.527   3.417  17.375  0.00  0.00    +0.000 C 
BRANCH  29  30
ATOM     30  C   UNL     1       3.903   3.884  17.825  0.00  0.00    +0.000 C 
BRANCH  30  31
ATOM     31  C   UNL     1       4.961   3.465  16.816  0.00  0.00    +0.000 C 
BRANCH  31  32
ATOM     32  C   UNL     1       5.139   4.544  15.756  0.00  0.00    +0.000 C 
BRANCH  32  33
ATOM     33  C   UNL     1       6.115   4.079  14.682  0.00  0.00    +0.000 C 
BRANCH  33  34
ATOM     34  C   UNL     1       5.427   4.023  13.323  0.00  0.00    +0.000 C 
BRANCH  34  36
ATOM     35  C   UNL     1       5.733   2.214  11.616  0.00  0.00    +0.000 C 
ATOM     36  C   UNL     1       6.356   3.437  12.265  0.00  0.00    +0.000 C 
ENDBRANCH  34  36
ENDBRANCH  33  34
ENDBRANCH  32  33
ENDBRANCH  31  32
ENDBRANCH  30  31
ENDBRANCH  29  30
ENDBRANCH  28  29
ENDBRANCH  27  28
ENDBRANCH  26  27
ENDBRANCH  25  26
ENDBRANCH  24  25
ENDBRANCH  23  24
ENDBRANCH  22  23
ENDBRANCH   1  22
TORSDOF 17
ENDMDL
MODEL 3
REMARK VINA RESULT:      -6.4      3.631      7.299
REMARK  Name = 
REMARK  19 active torsions:
REMARK  status: ('A' for Active; 'I' for Inactive)
REMARK    1  A    between atoms: C_1  and  C_2
REMARK    2  A    between atoms: C_2  and  C_3
REMARK    3  A    between atoms: C_3  and  C_4
REMARK    4  A    between atoms: C_4  and  C_5
REMARK    5  A    between atoms: C_5  and  C_6
REMARK    6  A    between atoms: C_6  and  C_7
REMARK    7  A    between atoms: C_7  and  C_8
REMARK    8  A    between atoms: C_8  and  C_9
REMARK    9  A    between atoms: C_9  and  C_10
REMARK   10  A    between atoms: C_10  and  C_11
REMARK   11  A    between atoms: C_11  and  C_12
REMARK   12  A    between atoms: C_12  and  C_13
REMARK   13  A    between atoms: C_13  and  C_14
REMARK   14  A    between atoms: C_14  and  C_15
REMARK   15  A    between atoms: C_15  and  N_16
REMARK   16  A    between atoms: C_17  and  C_19
REMARK   17  A    between atoms: C_22  and  C_23
REMARK   18  A    between atoms: C_26  and  N_27
REMARK   19  A    between atoms: C_28  and  C_29
REMARK                            x       y       z     vdW  Elec       q    Type
REMARK                         _______ _______ _______ _____ _____    ______ ____
ROOT
ATOM      1  N   UNL     1       1.549   8.076  21.308  0.00  0.00    +0.000 N 
ATOM      2  C   UNL     1       0.329   8.525  21.778  0.00  0.00    +0.000 C 
ATOM      3  O   UNL     1      -0.701   7.864  21.668  0.00  0.00    +0.000 OA
ATOM      4  H   UNL     1       2.253   8.805  21.250  0.00  0.00    +0.000 HD
ENDROOT
BRANCH   2   5
ATOM      5  C   UNL     1       0.396   9.855  22.565  0.00  0.00    +0.000 C 
ATOM      6  C   UNL     1      -0.971  10.350  23.079  0.00  0.00    +0.000 C 
ATOM      7  S   UNL     1      -1.020  12.094  22.622  0.00  0.00    +0.000 S 
ATOM      8  C   UNL     1       0.147  11.870  21.254  0.00  0.00    +0.000 C 
ATOM      9  N   UNL     1       1.130  10.894  21.771  0.00  0.00    +0.000 NA
ATOM     10  H   UNL     1       1.748  11.360  22.431  0.00  0.00    +0.000 HD
BRANCH   8  11
ATOM     11  C   UNL     1      -0.461  11.361  19.932  0.00  0.00    +0.000 A 
ATOM     12  C   UNL     1       0.240  10.588  18.993  0.00  0.00    +0.000 A 
ATOM     13  C   UNL     1      -0.374  10.079  17.830  0.00  0.00    +0.000 A 
ATOM     14  C   UNL     1      -1.705  10.349  17.533  0.00  0.00    +0.000 A 
ATOM     15  C   UNL     1      -2.394  11.202  18.406  0.00  0.00    +0.000 A 
ATOM     16  C   UNL     1      -1.806  11.642  19.606  0.00  0.00    +0.000 A 
BRANCH  14  17
ATOM     17  N   UNL     1      -2.408   9.790  16.429  0.00  0.00    +0.000 N 
ATOM     18  C   UNL     1      -3.031  10.511  15.424  0.00  0.00    +0.000 C 
ATOM     19  C   UNL     1      -3.629   9.707  14.284  0.00  0.00    +0.000 C 
ATOM     20  O   UNL     1      -3.167  11.744  15.380  0.00  0.00    +0.000 OA
ATOM     21  H   UNL     1      -2.346   8.788  16.315  0.00  0.00    +0.000 HD
ENDBRANCH  14  17
ENDBRANCH   8  11
ENDBRANCH   2   5
BRANCH   1  22
ATOM     22  C   UNL     1       1.665   6.855  20.538  0.00  0.00    +0.000 C 
BRANCH  22  23
ATOM     23  C   UNL     1       2.613   7.013  19.347  0.00  0.00    +0.000 C 
BRANCH  23  24
ATOM     24  C   UNL     1       2.824   5.670  18.652  0.00  0.00    +0.000 C 
BRANCH  24  25
ATOM     25  C   UNL     1       4.291   5.466  18.295  0.00  0.00    +0.000 C 
BRANCH  25  26
ATOM     26  C   UNL     1       4.651   6.220  17.020  0.00  0.00    +0.000 C 
BRANCH  26  27
ATOM     27  C   UNL     1       5.874   7.096  17.250  0.00  0.00    +0.000 C 
BRANCH  27  28
ATOM     28  C   UNL     1       6.990   6.295  17.905  0.00  0.00    +0.000 C 
BRANCH  28  29
ATOM     29  C   UNL     1       8.116   7.219  18.343  0.00  0.00    +0.000 C 
BRANCH  29  30
ATOM     30  C   UNL     1       7.895   8.619  17.791  0.00  0.00    +0.000 C 
BRANCH  30  31
ATOM     31  C   UNL     1       8.598   9.649  18.662  0.00  0.00    +0.000 C 
BRANCH  31  32
ATOM     32  C   UNL     1       9.511  10.525  17.815  0.00  0.00    +0.000 C 
BRANCH  32  33
ATOM     33  C   UNL     1      10.190  11.580  18.681  0.00  0.00    +0.000 C 
BRANCH  33  34
ATOM     34  C   UNL     1       9.184  12.634  19.127  0.00  0.00    +0.000 C 
BRANCH  34  36
ATOM     35  C   UNL     1       8.954  15.117  18.881  0.00  0.00    +0.000 C 
ATOM     36  C   UNL     1       9.147  13.802  18.148  0.00  0.00    +0.000 C 
ENDBRANCH  34  36
ENDBRANCH  33  34
ENDBRANCH  32  33
ENDBRANCH  31  32
ENDBRANCH  30  31
ENDBRANCH  29  30
ENDBRANCH  28  29
ENDBRANCH  27  28
ENDBRANCH  26  27
ENDBRANCH  25  26
ENDBRANCH  24  25
ENDBRANCH  23  24
ENDBRANCH  22  23
ENDBRANCH   1  22
TORSDOF 17
ENDMDL
MODEL 4
REMARK VINA RESULT:      -6.3      6.328      9.841
REMARK  Name = 
REMARK  19 active torsions:
REMARK  status: ('A' for Active; 'I' for Inactive)
REMARK    1  A    between atoms: C_1  and  C_2
REMARK    2  A    between atoms: C_2  and  C_3
REMARK    3  A    between atoms: C_3  and  C_4
REMARK    4  A    between atoms: C_4  and  C_5
REMARK    5  A    between atoms: C_5  and  C_6
REMARK    6  A    between atoms: C_6  and  C_7
REMARK    7  A    between atoms: C_7  and  C_8
REMARK    8  A    between atoms: C_8  and  C_9
REMARK    9  A    between atoms: C_9  and  C_10
REMARK   10  A    between atoms: C_10  and  C_11
REMARK   11  A    between atoms: C_11  and  C_12
REMARK   12  A    between atoms: C_12  and  C_13
REMARK   13  A    between atoms: C_13  and  C_14
REMARK   14  A    between atoms: C_14  and  C_15
REMARK   15  A    between atoms: C_15  and  N_16
REMARK   16  A    between atoms: C_17  and  C_19
REMARK   17  A    between atoms: C_22  and  C_23
REMARK   18  A    between atoms: C_26  and  N_27
REMARK   19  A    between atoms: C_28  and  C_29
REMARK                            x       y       z     vdW  Elec       q    Type
REMARK                         _______ _______ _______ _____ _____    ______ ____
ROOT
ATOM      1  N   UNL     1       1.257   9.519  20.178  0.00  0.00    +0.000 N 
ATOM      2  C   UNL     1       0.260   9.360  21.122  0.00  0.00    +0.000 C 
ATOM      3  O   UNL     1      -0.492   8.389  21.126  0.00  0.00    +0.000 OA
ATOM      4  H   UNL     1       1.638  10.459  20.147  0.00  0.00    +0.000 HD
ENDROOT
BRANCH   2   5
ATOM      5  C   UNL     1       0.261  10.429  22.241  0.00  0.00    +0.000 C 
ATOM      6  C   UNL     1      -1.088  10.573  22.973  0.00  0.00    +0.000 C 
ATOM      7  S   UNL     1      -1.386  12.351  23.023  0.00  0.00    +0.000 S 
ATOM      8  C   UNL     1      -0.358  12.664  21.564  0.00  0.00    +0.000 C 
ATOM      9  N   UNL     1       0.780  11.734  21.714  0.00  0.00    +0.000 NA
ATOM     10  H   UNL     1       1.410  12.089  22.430  0.00  0.00    +0.000 HD
BRANCH   8  11
ATOM     11  C   UNL     1      -1.047  12.446  20.202  0.00  0.00    +0.000 A 
ATOM     12  C   UNL     1      -0.386  12.535  18.966  0.00  0.00    +0.000 A 
ATOM     13  C   UNL     1      -1.034  12.255  17.746  0.00  0.00    +0.000 A 
ATOM     14  C   UNL     1      -2.379  11.909  17.700  0.00  0.00    +0.000 A 
ATOM     15  C   UNL     1      -3.082  11.912  18.912  0.00  0.00    +0.000 A 
ATOM     16  C   UNL     1      -2.417  12.112  20.136  0.00  0.00    +0.000 A 
BRANCH  14  17
ATOM     17  N   UNL     1      -3.066  11.523  16.514  0.00  0.00    +0.000 N 
ATOM     18  C   UNL     1      -2.841  10.361  15.796  0.00  0.00    +0.000 C 
ATOM     19  C   UNL     1      -3.767  10.099  14.623  0.00  0.00    +0.000 C 
ATOM     20  O   UNL     1      -1.944   9.528  16.007  0.00  0.00    +0.000 OA
ATOM     21  H   UNL     1      -3.857  12.093  16.245  0.00  0.00    +0.000 HD
ENDBRANCH  14  17
ENDBRANCH   8  11
ENDBRANCH   2   5
BRANCH   1  22
ATOM     22  C   UNL     1       1.391   8.617  19.054  0.00  0.00    +0.000 C 
BRANCH  22  23
ATOM     23  C   UNL     1       2.524   7.609  19.255  0.00  0.00    +0.000 C 
BRANCH  23  24
ATOM     24  C   UNL     1       2.153   6.260  18.643  0.00  0.00    +0.000 C 
BRANCH  24  25
ATOM     25  C   UNL     1       1.762   5.260  19.724  0.00  0.00    +0.000 C 
BRANCH  25  26
ATOM     26  C   UNL     1       1.330   3.935  19.110  0.00  0.00    +0.000 C 
BRANCH  26  27
ATOM     27  C   UNL     1       1.911   3.785  17.711  0.00  0.00    +0.000 C 
BRANCH  27  28
ATOM     28  C   UNL     1       2.927   2.653  17.671  0.00  0.00    +0.000 C 
BRANCH  28  29
ATOM     29  C   UNL     1       3.217   2.154  19.079  0.00  0.00    +0.000 C 
BRANCH  29  30
ATOM     30  C   UNL     1       4.523   2.745  19.590  0.00  0.00    +0.000 C 
BRANCH  30  31
ATOM     31  C   UNL     1       5.122   3.682  18.552  0.00  0.00    +0.000 C 
BRANCH  31  32
ATOM     32  C   UNL     1       5.476   5.019  19.187  0.00  0.00    +0.000 C 
BRANCH  32  33
ATOM     33  C   UNL     1       6.166   5.924  18.173  0.00  0.00    +0.000 C 
BRANCH  33  34
ATOM     34  C   UNL     1       6.562   5.134  16.932  0.00  0.00    +0.000 C 
BRANCH  34  36
ATOM     35  C   UNL     1       5.406   4.416  14.828  0.00  0.00    +0.000 C 
ATOM     36  C   UNL     1       5.768   5.595  15.715  0.00  0.00    +0.000 C 
ENDBRANCH  34  36
ENDBRANCH  33  34
ENDBRANCH  32  33
ENDBRANCH  31  32
ENDBRANCH  30  31
ENDBRANCH  29  30
ENDBRANCH  28  29
ENDBRANCH  27  28
ENDBRANCH  26  27
ENDBRANCH  25  26
ENDBRANCH  24  25
ENDBRANCH  23  24
ENDBRANCH  22  23
ENDBRANCH   1  22
TORSDOF 17
ENDMDL
MODEL 5
REMARK VINA RESULT:      -6.3      6.553     10.424
REMARK  Name = 
REMARK  19 active torsions:
REMARK  status: ('A' for Active; 'I' for Inactive)
REMARK    1  A    between atoms: C_1  and  C_2
REMARK    2  A    between atoms: C_2  and  C_3
REMARK    3  A    between atoms: C_3  and  C_4
REMARK    4  A    between atoms: C_4  and  C_5
REMARK    5  A    between atoms: C_5  and  C_6
REMARK    6  A    between atoms: C_6  and  C_7
REMARK    7  A    between atoms: C_7  and  C_8
REMARK    8  A    between atoms: C_8  and  C_9
REMARK    9  A    between atoms: C_9  and  C_10
REMARK   10  A    between atoms: C_10  and  C_11
REMARK   11  A    between atoms: C_11  and  C_12
REMARK   12  A    between atoms: C_12  and  C_13
REMARK   13  A    between atoms: C_13  and  C_14
REMARK   14  A    between atoms: C_14  and  C_15
REMARK   15  A    between atoms: C_15  and  N_16
REMARK   16  A    between atoms: C_17  and  C_19
REMARK   17  A    between atoms: C_22  and  C_23
REMARK   18  A    between atoms: C_26  and  N_27
REMARK   19  A    between atoms: C_28  and  C_29
REMARK                            x       y       z     vdW  Elec       q    Type
REMARK                         _______ _______ _______ _____ _____    ______ ____
ROOT
ATOM      1  N   UNL     1       0.065  10.260  21.106  0.00  0.00    +0.000 N 
ATOM      2  C   UNL     1       0.483  11.568  21.261  0.00  0.00    +0.000 C 
ATOM      3  O   UNL     1       1.498  12.002  20.722  0.00  0.00    +0.000 OA
ATOM      4  H   UNL     1      -0.637   9.977  21.782  0.00  0.00    +0.000 HD
ENDROOT
BRANCH   2   5
ATOM      5  C   UNL     1      -0.499  12.465  22.053  0.00  0.00    +0.000 C 
ATOM      6  C   UNL     1      -1.634  11.689  22.751  0.00  0.00    +0.000 C 
ATOM      7  S   UNL     1      -3.130  12.603  22.330  0.00  0.00    +0.000 S 
ATOM      8  C   UNL     1      -2.406  13.286  20.816  0.00  0.00    +0.000 C 
ATOM      9  N   UNL     1      -1.004  13.578  21.182  0.00  0.00    +0.000 NA
ATOM     10  H   UNL     1      -0.977  14.414  21.761  0.00  0.00    +0.000 HD
BRANCH   8  11
ATOM     11  C   UNL     1      -2.451  12.366  19.579  0.00  0.00    +0.000 A 
ATOM     12  C   UNL     1      -3.528  11.518  19.272  0.00  0.00    +0.000 A 
ATOM     13  C   UNL     1      -3.564  10.747  18.092  0.00  0.00    +0.000 A 
ATOM     14  C   UNL     1      -2.512  10.759  17.184  0.00  0.00    +0.000 A 
ATOM     15  C   UNL     1      -1.385  11.520  17.520  0.00  0.00    +0.000 A 
ATOM     16  C   UNL     1      -1.383  12.351  18.656  0.00  0.00    +0.000 A 
BRANCH  14  17
ATOM     17  N   UNL     1      -2.527  10.079  15.933  0.00  0.00    +0.000 N 
ATOM     18  C   UNL     1      -3.242  10.471  14.814  0.00  0.00    +0.000 C 
ATOM     19  C   UNL     1      -3.024   9.658  13.551  0.00  0.00    +0.000 C 
ATOM     20  O   UNL     1      -4.056  11.406  14.751  0.00  0.00    +0.000 OA
ATOM     21  H   UNL     1      -1.874   9.315  15.827  0.00  0.00    +0.000 HD
ENDBRANCH  14  17
ENDBRANCH   8  11
ENDBRANCH   2   5
BRANCH   1  22
ATOM     22  C   UNL     1       0.870   9.282  20.405  0.00  0.00    +0.000 C 
BRANCH  22  23
ATOM     23  C   UNL     1       1.412   8.202  21.343  0.00  0.00    +0.000 C 
BRANCH  23  24
ATOM     24  C   UNL     1       2.111   7.103  20.546  0.00  0.00    +0.000 C 
BRANCH  24  25
ATOM     25  C   UNL     1       1.251   5.848  20.478  0.00  0.00    +0.000 C 
BRANCH  25  26
ATOM     26  C   UNL     1       2.051   4.618  20.887  0.00  0.00    +0.000 C 
BRANCH  26  27
ATOM     27  C   UNL     1       1.195   3.365  20.768  0.00  0.00    +0.000 C 
BRANCH  27  28
ATOM     28  C   UNL     1       1.831   2.372  19.805  0.00  0.00    +0.000 C 
BRANCH  28  29
ATOM     29  C   UNL     1       1.788   2.913  18.384  0.00  0.00    +0.000 C 
BRANCH  29  30
ATOM     30  C   UNL     1       2.913   2.310  17.557  0.00  0.00    +0.000 C 
BRANCH  30  31
ATOM     31  C   UNL     1       4.103   3.257  17.510  0.00  0.00    +0.000 C 
BRANCH  31  32
ATOM     32  C   UNL     1       3.629   4.698  17.376  0.00  0.00    +0.000 C 
BRANCH  32  33
ATOM     33  C   UNL     1       4.502   5.626  18.211  0.00  0.00    +0.000 C 
BRANCH  33  34
ATOM     34  C   UNL     1       5.519   4.825  19.015  0.00  0.00    +0.000 C 
BRANCH  34  36
ATOM     35  C   UNL     1       7.607   4.618  17.644  0.00  0.00    +0.000 C 
ATOM     36  C   UNL     1       6.932   5.353  18.788  0.00  0.00    +0.000 C 
ENDBRANCH  34  36
ENDBRANCH  33  34
ENDBRANCH  32  33
ENDBRANCH  31  32
ENDBRANCH  30  31
ENDBRANCH  29  30
ENDBRANCH  28  29
ENDBRANCH  27  28
ENDBRANCH  26  27
ENDBRANCH  25  26
ENDBRANCH  24  25
ENDBRANCH  23  24
ENDBRANCH  22  23
ENDBRANCH   1  22
TORSDOF 17
ENDMDL
MODEL 6
REMARK VINA RESULT:      -6.3      4.110      9.518
REMARK  Name = 
REMARK  19 active torsions:
REMARK  status: ('A' for Active; 'I' for Inactive)
REMARK    1  A    between atoms: C_1  and  C_2
REMARK    2  A    between atoms: C_2  and  C_3
REMARK    3  A    between atoms: C_3  and  C_4
REMARK    4  A    between atoms: C_4  and  C_5
REMARK    5  A    between atoms: C_5  and  C_6
REMARK    6  A    between atoms: C_6  and  C_7
REMARK    7  A    between atoms: C_7  and  C_8
REMARK    8  A    between atoms: C_8  and  C_9
REMARK    9  A    between atoms: C_9  and  C_10
REMARK   10  A    between atoms: C_10  and  C_11
REMARK   11  A    between atoms: C_11  and  C_12
REMARK   12  A    between atoms: C_12  and  C_13
REMARK   13  A    between atoms: C_13  and  C_14
REMARK   14  A    between atoms: C_14  and  C_15
REMARK   15  A    between atoms: C_15  and  N_16
REMARK   16  A    between atoms: C_17  and  C_19
REMARK   17  A    between atoms: C_22  and  C_23
REMARK   18  A    between atoms: C_26  and  N_27
REMARK   19  A    between atoms: C_28  and  C_29
REMARK                            x       y       z     vdW  Elec       q    Type
REMARK                         _______ _______ _______ _____ _____    ______ ____
ROOT
ATOM      1  N   UNL     1       9.358  10.548  17.929  0.00  0.00    +0.000 N 
ATOM      2  C   UNL     1       9.777  11.619  18.695  0.00  0.00    +0.000 C 
ATOM      3  O   UNL     1       9.649  11.643  19.917  0.00  0.00    +0.000 OA
ATOM      4  H   UNL     1       9.306  10.756  16.937  0.00  0.00    +0.000 HD
ENDROOT
BRANCH   2   5
ATOM      5  C   UNL     1      10.535  12.713  17.906  0.00  0.00    +0.000 C 
ATOM      6  C   UNL     1      11.876  13.130  18.542  0.00  0.00    +0.000 C 
ATOM      7  S   UNL     1      11.841  14.933  18.529  0.00  0.00    +0.000 S 
ATOM      8  C   UNL     1      10.030  14.996  18.518  0.00  0.00    +0.000 C 
ATOM      9  N   UNL     1       9.632  13.879  17.634  0.00  0.00    +0.000 NA
ATOM     10  H   UNL     1       9.805  14.142  16.667  0.00  0.00    +0.000 HD
BRANCH   8  11
ATOM     11  C   UNL     1       9.348  14.852  19.894  0.00  0.00    +0.000 A 
ATOM     12  C   UNL     1       7.970  14.647  20.068  0.00  0.00    +0.000 A 
ATOM     13  C   UNL     1       7.395  14.446  21.340  0.00  0.00    +0.000 A 
ATOM     14  C   UNL     1       8.163  14.479  22.498  0.00  0.00    +0.000 A 
ATOM     15  C   UNL     1       9.523  14.782  22.355  0.00  0.00    +0.000 A 
ATOM     16  C   UNL     1      10.111  14.901  21.081  0.00  0.00    +0.000 A 
BRANCH  14  17
ATOM     17  N   UNL     1       7.662  14.191  23.798  0.00  0.00    +0.000 N 
ATOM     18  C   UNL     1       7.004  13.030  24.169  0.00  0.00    +0.000 C 
ATOM     19  C   UNL     1       6.654  12.888  25.638  0.00  0.00    +0.000 C 
ATOM     20  O   UNL     1       6.656  12.109  23.412  0.00  0.00    +0.000 OA
ATOM     21  H   UNL     1       7.910  14.841  24.532  0.00  0.00    +0.000 HD
ENDBRANCH  14  17
ENDBRANCH   8  11
ENDBRANCH   2   5
BRANCH   1  22
ATOM     22  C   UNL     1       8.620   9.443  18.505  0.00  0.00    +0.000 C 
BRANCH  22  23
ATOM     23  C   UNL     1       7.645   8.818  17.506  0.00  0.00    +0.000 C 
BRANCH  23  24
ATOM     24  C   UNL     1       7.651   7.296  17.635  0.00  0.00    +0.000 C 
BRANCH  24  25
ATOM     25  C   UNL     1       8.329   6.861  18.928  0.00  0.00    +0.000 C 
BRANCH  25  26
ATOM     26  C   UNL     1       7.582   5.699  19.570  0.00  0.00    +0.000 C 
BRANCH  26  27
ATOM     27  C   UNL     1       6.993   4.791  18.500  0.00  0.00    +0.000 C 
BRANCH  27  28
ATOM     28  C   UNL     1       5.601   4.326  18.900  0.00  0.00    +0.000 C 
BRANCH  28  29
ATOM     29  C   UNL     1       4.612   5.478  18.807  0.00  0.00    +0.000 C 
BRANCH  29  30
ATOM     30  C   UNL     1       4.002   5.539  17.415  0.00  0.00    +0.000 C 
BRANCH  30  31
ATOM     31  C   UNL     1       4.483   6.782  16.680  0.00  0.00    +0.000 C 
BRANCH  31  32
ATOM     32  C   UNL     1       5.093   6.403  15.338  0.00  0.00    +0.000 C 
BRANCH  32  33
ATOM     33  C   UNL     1       5.407   4.912  15.298  0.00  0.00    +0.000 C 
BRANCH  33  34
ATOM     34  C   UNL     1       6.865   4.682  14.919  0.00  0.00    +0.000 C 
BRANCH  34  36
ATOM     35  C   UNL     1       6.069   3.577  12.814  0.00  0.00    +0.000 C 
ATOM     36  C   UNL     1       7.028   4.596  13.405  0.00  0.00    +0.000 C 
ENDBRANCH  34  36
ENDBRANCH  33  34
ENDBRANCH  32  33
ENDBRANCH  31  32
ENDBRANCH  30  31
ENDBRANCH  29  30
ENDBRANCH  28  29
ENDBRANCH  27  28
ENDBRANCH  26  27
ENDBRANCH  25  26
ENDBRANCH  24  25
ENDBRANCH  23  24
ENDBRANCH  22  23
ENDBRANCH   1  22
TORSDOF 17
ENDMDL
MODEL 7
REMARK VINA RESULT:      -6.3      6.615     10.179
REMARK  Name = 
REMARK  19 active torsions:
REMARK  status: ('A' for Active; 'I' for Inactive)
REMARK    1  A    between atoms: C_1  and  C_2
REMARK    2  A    between atoms: C_2  and  C_3
REMARK    3  A    between atoms: C_3  and  C_4
REMARK    4  A    between atoms: C_4  and  C_5
REMARK    5  A    between atoms: C_5  and  C_6
REMARK    6  A    between atoms: C_6  and  C_7
REMARK    7  A    between atoms: C_7  and  C_8
REMARK    8  A    between atoms: C_8  and  C_9
REMARK    9  A    between atoms: C_9  and  C_10
REMARK   10  A    between atoms: C_10  and  C_11
REMARK   11  A    between atoms: C_11  and  C_12
REMARK   12  A    between atoms: C_12  and  C_13
REMARK   13  A    between atoms: C_13  and  C_14
REMARK   14  A    between atoms: C_14  and  C_15
REMARK   15  A    between atoms: C_15  and  N_16
REMARK   16  A    between atoms: C_17  and  C_19
REMARK   17  A    between atoms: C_22  and  C_23
REMARK   18  A    between atoms: C_26  and  N_27
REMARK   19  A    between atoms: C_28  and  C_29
REMARK                            x       y       z     vdW  Elec       q    Type
REMARK                         _______ _______ _______ _____ _____    ______ ____
ROOT
ATOM      1  N   UNL     1       0.512  10.512  21.196  0.00  0.00    +0.000 N 
ATOM      2  C   UNL     1      -0.418  10.292  22.194  0.00  0.00    +0.000 C 
ATOM      3  O   UNL     1      -0.806   9.165  22.493  0.00  0.00    +0.000 OA
ATOM      4  H   UNL     1       0.562  11.481  20.896  0.00  0.00    +0.000 HD
ENDROOT
BRANCH   2   5
ATOM      5  C   UNL     1      -0.822  11.559  22.984  0.00  0.00    +0.000 C 
ATOM      6  C   UNL     1      -2.329  11.650  23.295  0.00  0.00    +0.000 C 
ATOM      7  S   UNL     1      -2.783  13.335  22.837  0.00  0.00    +0.000 S 
ATOM      8  C   UNL     1      -1.420  13.485  21.652  0.00  0.00    +0.000 C 
ATOM      9  N   UNL     1      -0.292  12.787  22.304  0.00  0.00    +0.000 NA
ATOM     10  H   UNL     1       0.079  13.374  23.047  0.00  0.00    +0.000 HD
BRANCH   8  11
ATOM     11  C   UNL     1      -1.680  12.885  20.255  0.00  0.00    +0.000 A 
ATOM     12  C   UNL     1      -2.835  12.162  19.915  0.00  0.00    +0.000 A 
ATOM     13  C   UNL     1      -3.069  11.693  18.606  0.00  0.00    +0.000 A 
ATOM     14  C   UNL     1      -2.146  11.893  17.587  0.00  0.00    +0.000 A 
ATOM     15  C   UNL     1      -0.942  12.524  17.928  0.00  0.00    +0.000 A 
ATOM     16  C   UNL     1      -0.744  13.062  19.213  0.00  0.00    +0.000 A 
BRANCH  14  17
ATOM     17  N   UNL     1      -2.363  11.530  16.228  0.00  0.00    +0.000 N 
ATOM     18  C   UNL     1      -2.758  10.279  15.782  0.00  0.00    +0.000 C 
ATOM     19  C   UNL     1      -3.037  10.145  14.297  0.00  0.00    +0.000 C 
ATOM     20  O   UNL     1      -2.882   9.257  16.476  0.00  0.00    +0.000 OA
ATOM     21  H   UNL     1      -2.336  12.279  15.550  0.00  0.00    +0.000 HD
ENDBRANCH  14  17
ENDBRANCH   8  11
ENDBRANCH   2   5
BRANCH   1  22
ATOM     22  C   UNL     1       0.989   9.438  20.349  0.00  0.00    +0.000 C 
BRANCH  22  23
ATOM     23  C   UNL     1       1.334   9.924  18.940  0.00  0.00    +0.000 C 
BRANCH  23  24
ATOM     24  C   UNL     1       1.305   8.760  17.952  0.00  0.00    +0.000 C 
BRANCH  24  25
ATOM     25  C   UNL     1       2.339   7.705  18.323  0.00  0.00    +0.000 C 
BRANCH  25  26
ATOM     26  C   UNL     1       3.667   7.976  17.628  0.00  0.00    +0.000 C 
BRANCH  26  27
ATOM     27  C   UNL     1       4.115   6.751  16.843  0.00  0.00    +0.000 C 
BRANCH  27  28
ATOM     28  C   UNL     1       5.434   6.221  17.385  0.00  0.00    +0.000 C 
BRANCH  28  29
ATOM     29  C   UNL     1       5.464   4.702  17.309  0.00  0.00    +0.000 C 
BRANCH  29  30
ATOM     30  C   UNL     1       5.780   4.111  18.674  0.00  0.00    +0.000 C 
BRANCH  30  31
ATOM     31  C   UNL     1       4.504   3.926  19.481  0.00  0.00    +0.000 C 
BRANCH  31  32
ATOM     32  C   UNL     1       4.129   2.453  19.549  0.00  0.00    +0.000 C 
BRANCH  32  33
ATOM     33  C   UNL     1       3.137   2.103  18.446  0.00  0.00    +0.000 C 
BRANCH  33  34
ATOM     34  C   UNL     1       1.708   2.180  18.967  0.00  0.00    +0.000 C 
BRANCH  34  36
ATOM     35  C   UNL     1       1.512   4.238  17.551  0.00  0.00    +0.000 C 
ATOM     36  C   UNL     1       1.174   3.606  18.891  0.00  0.00    +0.000 C 
ENDBRANCH  34  36
ENDBRANCH  33  34
ENDBRANCH  32  33
ENDBRANCH  31  32
ENDBRANCH  30  31
ENDBRANCH  29  30
ENDBRANCH  28  29
ENDBRANCH  27  28
ENDBRANCH  26  27
ENDBRANCH  25  26
ENDBRANCH  24  25
ENDBRANCH  23  24
ENDBRANCH  22  23
ENDBRANCH   1  22
TORSDOF 17
ENDMDL
MODEL 8
REMARK VINA RESULT:      -6.3      4.567     10.574
REMARK  Name = 
REMARK  19 active torsions:
REMARK  status: ('A' for Active; 'I' for Inactive)
REMARK    1  A    between atoms: C_1  and  C_2
REMARK    2  A    between atoms: C_2  and  C_3
REMARK    3  A    between atoms: C_3  and  C_4
REMARK    4  A    between atoms: C_4  and  C_5
REMARK    5  A    between atoms: C_5  and  C_6
REMARK    6  A    between atoms: C_6  and  C_7
REMARK    7  A    between atoms: C_7  and  C_8
REMARK    8  A    between atoms: C_8  and  C_9
REMARK    9  A    between atoms: C_9  and  C_10
REMARK   10  A    between atoms: C_10  and  C_11
REMARK   11  A    between atoms: C_11  and  C_12
REMARK   12  A    between atoms: C_12  and  C_13
REMARK   13  A    between atoms: C_13  and  C_14
REMARK   14  A    between atoms: C_14  and  C_15
REMARK   15  A    between atoms: C_15  and  N_16
REMARK   16  A    between atoms: C_17  and  C_19
REMARK   17  A    between atoms: C_22  and  C_23
REMARK   18  A    between atoms: C_26  and  N_27
REMARK   19  A    between atoms: C_28  and  C_29
REMARK                            x       y       z     vdW  Elec       q    Type
REMARK                         _______ _______ _______ _____ _____    ______ ____
ROOT
ATOM      1  N   UNL     1       1.184  11.863  18.539  0.00  0.00    +0.000 N 
ATOM      2  C   UNL     1       1.077  12.364  19.823  0.00  0.00    +0.000 C 
ATOM      3  O   UNL     1       1.798  11.979  20.741  0.00  0.00    +0.000 OA
ATOM      4  H   UNL     1       0.389  12.088  17.950  0.00  0.00    +0.000 HD
ENDROOT
BRANCH   2   5
ATOM      5  C   UNL     1       0.076  13.535  19.973  0.00  0.00    +0.000 C 
ATOM      6  C   UNL     1      -0.398  14.130  18.632  0.00  0.00    +0.000 C 
ATOM      7  S   UNL     1      -0.236  15.913  18.847  0.00  0.00    +0.000 S 
ATOM      8  C   UNL     1       1.050  15.742  20.113  0.00  0.00    +0.000 C 
ATOM      9  N   UNL     1       0.624  14.571  20.908  0.00  0.00    +0.000 NA
ATOM     10  H   UNL     1      -0.153  14.839  21.508  0.00  0.00    +0.000 HD
BRANCH   8  11
ATOM     11  C   UNL     1       2.484  15.533  19.586  0.00  0.00    +0.000 A 
ATOM     12  C   UNL     1       2.833  15.579  18.226  0.00  0.00    +0.000 A 
ATOM     13  C   UNL     1       4.168  15.457  17.790  0.00  0.00    +0.000 A 
ATOM     14  C   UNL     1       5.210  15.246  18.686  0.00  0.00    +0.000 A 
ATOM     15  C   UNL     1       4.871  15.097  20.037  0.00  0.00    +0.000 A 
ATOM     16  C   UNL     1       3.550  15.299  20.481  0.00  0.00    +0.000 A 
BRANCH  14  17
ATOM     17  N   UNL     1       6.585  15.209  18.321  0.00  0.00    +0.000 N 
ATOM     18  C   UNL     1       7.438  16.300  18.286  0.00  0.00    +0.000 C 
ATOM     19  C   UNL     1       8.895  16.011  17.973  0.00  0.00    +0.000 C 
ATOM     20  O   UNL     1       7.121  17.487  18.463  0.00  0.00    +0.000 OA
ATOM     21  H   UNL     1       6.992  14.293  18.187  0.00  0.00    +0.000 HD
ENDBRANCH  14  17
ENDBRANCH   8  11
ENDBRANCH   2   5
BRANCH   1  22
ATOM     22  C   UNL     1       2.064  10.757  18.225  0.00  0.00    +0.000 C 
BRANCH  22  23
ATOM     23  C   UNL     1       1.307   9.433  18.111  0.00  0.00    +0.000 C 
BRANCH  23  24
ATOM     24  C   UNL     1       1.915   8.387  19.043  0.00  0.00    +0.000 C 
BRANCH  24  25
ATOM     25  C   UNL     1       2.375   7.163  18.262  0.00  0.00    +0.000 C 
BRANCH  25  26
ATOM     26  C   UNL     1       3.493   7.524  17.292  0.00  0.00    +0.000 C 
BRANCH  26  27
ATOM     27  C   UNL     1       4.740   6.704  17.592  0.00  0.00    +0.000 C 
BRANCH  27  28
ATOM     28  C   UNL     1       5.232   6.000  16.336  0.00  0.00    +0.000 C 
BRANCH  28  29
ATOM     29  C   UNL     1       4.762   4.553  16.323  0.00  0.00    +0.000 C 
BRANCH  29  30
ATOM     30  C   UNL     1       4.984   3.915  17.686  0.00  0.00    +0.000 C 
BRANCH  30  31
ATOM     31  C   UNL     1       3.769   3.094  18.091  0.00  0.00    +0.000 C 
BRANCH  31  32
ATOM     32  C   UNL     1       2.541   3.544  17.311  0.00  0.00    +0.000 C 
BRANCH  32  33
ATOM     33  C   UNL     1       1.289   3.419  18.169  0.00  0.00    +0.000 C 
BRANCH  33  34
ATOM     34  C   UNL     1       1.486   2.366  19.253  0.00  0.00    +0.000 C 
BRANCH  34  36
ATOM     35  C   UNL     1       1.275   4.471  20.597  0.00  0.00    +0.000 C 
ATOM     36  C   UNL     1       1.232   2.953  20.637  0.00  0.00    +0.000 C 
ENDBRANCH  34  36
ENDBRANCH  33  34
ENDBRANCH  32  33
ENDBRANCH  31  32
ENDBRANCH  30  31
ENDBRANCH  29  30
ENDBRANCH  28  29
ENDBRANCH  27  28
ENDBRANCH  26  27
ENDBRANCH  25  26
ENDBRANCH  24  25
ENDBRANCH  23  24
ENDBRANCH  22  23
ENDBRANCH   1  22
TORSDOF 17
ENDMDL
MODEL 9
REMARK VINA RESULT:      -6.2      2.540      4.150
REMARK  Name = 
REMARK  19 active torsions:
REMARK  status: ('A' for Active; 'I' for Inactive)
REMARK    1  A    between atoms: C_1  and  C_2
REMARK    2  A    between atoms: C_2  and  C_3
REMARK    3  A    between atoms: C_3  and  C_4
REMARK    4  A    between atoms: C_4  and  C_5
REMARK    5  A    between atoms: C_5  and  C_6
REMARK    6  A    between atoms: C_6  and  C_7
REMARK    7  A    between atoms: C_7  and  C_8
REMARK    8  A    between atoms: C_8  and  C_9
REMARK    9  A    between atoms: C_9  and  C_10
REMARK   10  A    between atoms: C_10  and  C_11
REMARK   11  A    between atoms: C_11  and  C_12
REMARK   12  A    between atoms: C_12  and  C_13
REMARK   13  A    between atoms: C_13  and  C_14
REMARK   14  A    between atoms: C_14  and  C_15
REMARK   15  A    between atoms: C_15  and  N_16
REMARK   16  A    between atoms: C_17  and  C_19
REMARK   17  A    between atoms: C_22  and  C_23
REMARK   18  A    between atoms: C_26  and  N_27
REMARK   19  A    between atoms: C_28  and  C_29
REMARK                            x       y       z     vdW  Elec       q    Type
REMARK                         _______ _______ _______ _____ _____    ______ ____
ROOT
ATOM      1  N   UNL     1       5.326   3.400  16.980  0.00  0.00    +0.000 N 
ATOM      2  C   UNL     1       3.964   3.324  17.201  0.00  0.00    +0.000 C 
ATOM      3  O   UNL     1       3.159   4.019  16.585  0.00  0.00    +0.000 OA
ATOM      4  H   UNL     1       5.879   2.956  17.707  0.00  0.00    +0.000 HD
ENDROOT
BRANCH   2   5
ATOM      5  C   UNL     1       3.534   2.206  18.180  0.00  0.00    +0.000 C 
ATOM      6  C   UNL     1       2.019   1.924  18.184  0.00  0.00    +0.000 C 
ATOM      7  S   UNL     1       1.574   1.875  19.931  0.00  0.00    +0.000 S 
ATOM      8  C   UNL     1       2.970   2.924  20.417  0.00  0.00    +0.000 C 
ATOM      9  N   UNL     1       4.080   2.476  19.550  0.00  0.00    +0.000 NA
ATOM     10  H   UNL     1       4.429   1.582  19.889  0.00  0.00    +0.000 HD
BRANCH   8  11
ATOM     11  C   UNL     1       2.752   4.442  20.259  0.00  0.00    +0.000 A 
ATOM     12  C   UNL     1       3.690   5.312  19.680  0.00  0.00    +0.000 A 
ATOM     13  C   UNL     1       3.423   6.683  19.486  0.00  0.00    +0.000 A 
ATOM     14  C   UNL     1       2.224   7.255  19.895  0.00  0.00    +0.000 A 
ATOM     15  C   UNL     1       1.315   6.425  20.565  0.00  0.00    +0.000 A 
ATOM     16  C   UNL     1       1.547   5.042  20.686  0.00  0.00    +0.000 A 
BRANCH  14  17
ATOM     17  N   UNL     1       1.855   8.606  19.644  0.00  0.00    +0.000 N 
ATOM     18  C   UNL     1       1.574   9.146  18.399  0.00  0.00    +0.000 C 
ATOM     19  C   UNL     1       1.094  10.586  18.377  0.00  0.00    +0.000 C 
ATOM     20  O   UNL     1       1.699   8.574  17.305  0.00  0.00    +0.000 OA
ATOM     21  H   UNL     1       1.675   9.183  20.454  0.00  0.00    +0.000 HD
ENDBRANCH  14  17
ENDBRANCH   8  11
ENDBRANCH   2   5
BRANCH   1  22
ATOM     22  C   UNL     1       5.901   4.399  16.104  0.00  0.00    +0.000 C 
BRANCH  22  23
ATOM     23  C   UNL     1       7.380   4.648  16.405  0.00  0.00    +0.000 C 
BRANCH  23  24
ATOM     24  C   UNL     1       7.582   4.929  17.893  0.00  0.00    +0.000 C 
BRANCH  24  25
ATOM     25  C   UNL     1       7.125   6.338  18.248  0.00  0.00    +0.000 C 
BRANCH  25  26
ATOM     26  C   UNL     1       7.794   7.370  17.349  0.00  0.00    +0.000 C 
BRANCH  26  27
ATOM     27  C   UNL     1       7.337   8.774  17.723  0.00  0.00    +0.000 C 
BRANCH  27  28
ATOM     28  C   UNL     1       8.517   9.734  17.738  0.00  0.00    +0.000 C 
BRANCH  28  29
ATOM     29  C   UNL     1       9.083   9.853  19.145  0.00  0.00    +0.000 C 
BRANCH  29  30
ATOM     30  C   UNL     1       9.574  11.271  19.397  0.00  0.00    +0.000 C 
BRANCH  30  31
ATOM     31  C   UNL     1      11.049  11.391  19.043  0.00  0.00    +0.000 C 
BRANCH  31  32
ATOM     32  C   UNL     1      11.237  12.349  17.875  0.00  0.00    +0.000 C 
BRANCH  32  33
ATOM     33  C   UNL     1      11.164  13.794  18.353  0.00  0.00    +0.000 C 
BRANCH  33  34
ATOM     34  C   UNL     1      11.729  13.920  19.763  0.00  0.00    +0.000 C 
BRANCH  34  36
ATOM     35  C   UNL     1      12.324  16.340  20.033  0.00  0.00    +0.000 C 
ATOM     36  C   UNL     1      11.329  15.250  20.393  0.00  0.00    +0.000 C 
ENDBRANCH  34  36
ENDBRANCH  33  34
ENDBRANCH  32  33
ENDBRANCH  31  32
ENDBRANCH  30  31
ENDBRANCH  29  30
ENDBRANCH  28  29
ENDBRANCH  27  28
ENDBRANCH  26  27
ENDBRANCH  25  26
ENDBRANCH  24  25
ENDBRANCH  23  24
ENDBRANCH  22  23
ENDBRANCH   1  22
TORSDOF 17
ENDMDL
