MODEL 1
REMARK VINA RESULT:      -8.7      0.000      0.000
REMARK  Name = 
REMARK  6 active torsions:
REMARK  status: ('A' for Active; 'I' for Inactive)
REMARK    1  A    between atoms: C_1  and  C_2
REMARK    2  A    between atoms: N_4  and  C_5
REMARK    3  A    between atoms: C_5  and  C_6
REMARK    4  A    between atoms: C_6  and  O_7
REMARK    5  A    between atoms: O_7  and  C_8
REMARK    6  A    between atoms: N_16  and  C_17
REMARK                            x       y       z     vdW  Elec       q    Type
REMARK                         _______ _______ _______ _____ _____    ______ ____
ROOT
ATOM      1  C   UNL     1       2.411   7.298  18.102  0.00  0.00    +0.000 C 
ATOM      2  C   UNL     1       3.657   6.467  18.157  0.00  0.00    +0.000 A 
ATOM      3  N   UNL     1       4.781   6.867  17.634  0.00  0.00    +0.000 NA
ATOM      4  N   UNL     1       5.685   5.897  18.002  0.00  0.00    +0.000 N 
ATOM      5  C   UNL     1       5.055   4.902  18.750  0.00  0.00    +0.000 A 
ATOM      6  O   UNL     1       5.570   3.882  19.182  0.00  0.00    +0.000 OA
ATOM      7  N   UNL     1       3.736   5.307  18.840  0.00  0.00    +0.000 N 
ENDROOT
BRANCH   7   8
ATOM      8  C   UNL     1       2.731   4.507  19.400  0.00  0.00    +0.000 A 
ATOM      9  C   UNL     1       2.624   4.428  20.791  0.00  0.00    +0.000 A 
ATOM     10  C   UNL     1       1.723   3.540  21.380  0.00  0.00    +0.000 A 
ATOM     11  C   UNL     1       0.950   2.699  20.581  0.00  0.00    +0.000 A 
ATOM     12  C   UNL     1       1.049   2.772  19.192  0.00  0.00    +0.000 A 
ATOM     13  C   UNL     1       1.922   3.687  18.609  0.00  0.00    +0.000 A 
ATOM     14  F   UNL     1       2.049   3.690  17.272  0.00  0.00    +0.000 F 
ENDBRANCH   7   8
BRANCH   4  15
ATOM     15  C   UNL     1       7.077   5.880  17.603  0.00  0.00    +0.000 C 
BRANCH  15  16
ATOM     16  C   UNL     1       7.364   4.878  16.494  0.00  0.00    +0.000 C 
BRANCH  16  17
ATOM     17  O   UNL     1       7.647   5.552  15.263  0.00  0.00    +0.000 OA
BRANCH  17  18
ATOM     18  C   UNL     1       7.150   4.914  14.153  0.00  0.00    +0.000 A 
ATOM     19  C   UNL     1       5.919   4.276  14.312  0.00  0.00    +0.000 A 
ATOM     20  C   UNL     1       5.343   3.578  13.248  0.00  0.00    +0.000 A 
ATOM     21  C   UNL     1       5.990   3.528  12.012  0.00  0.00    +0.000 A 
ATOM     22  C   UNL     1       7.204   4.187  11.840  0.00  0.00    +0.000 A 
ATOM     23  C   UNL     1       7.778   4.882  12.905  0.00  0.00    +0.000 A 
ENDBRANCH  17  18
ENDBRANCH  16  17
ENDBRANCH  15  16
ENDBRANCH   4  15
TORSDOF 5
ENDMDL
MODEL 2
REMARK VINA RESULT:      -8.6      0.152      1.007
REMARK  Name = 
REMARK  6 active torsions:
REMARK  status: ('A' for Active; 'I' for Inactive)
REMARK    1  A    between atoms: C_1  and  C_2
REMARK    2  A    between atoms: N_4  and  C_5
REMARK    3  A    between atoms: C_5  and  C_6
REMARK    4  A    between atoms: C_6  and  O_7
REMARK    5  A    between atoms: O_7  and  C_8
REMARK    6  A    between atoms: N_16  and  C_17
REMARK                            x       y       z     vdW  Elec       q    Type
REMARK                         _______ _______ _______ _____ _____    ______ ____
ROOT
ATOM      1  C   UNL     1       2.419   7.364  18.153  0.00  0.00    +0.000 C 
ATOM      2  C   UNL     1       3.654   6.518  18.212  0.00  0.00    +0.000 A 
ATOM      3  N   UNL     1       4.789   6.912  17.710  0.00  0.00    +0.000 NA
ATOM      4  N   UNL     1       5.677   5.925  18.076  0.00  0.00    +0.000 N 
ATOM      5  C   UNL     1       5.025   4.927  18.801  0.00  0.00    +0.000 A 
ATOM      6  O   UNL     1       5.522   3.895  19.223  0.00  0.00    +0.000 OA
ATOM      7  N   UNL     1       3.710   5.347  18.879  0.00  0.00    +0.000 N 
ENDROOT
BRANCH   7   8
ATOM      8  C   UNL     1       2.688   4.550  19.413  0.00  0.00    +0.000 A 
ATOM      9  C   UNL     1       2.587   4.418  20.800  0.00  0.00    +0.000 A 
ATOM     10  C   UNL     1       1.667   3.530  21.359  0.00  0.00    +0.000 A 
ATOM     11  C   UNL     1       0.867   2.742  20.532  0.00  0.00    +0.000 A 
ATOM     12  C   UNL     1       0.961   2.869  19.146  0.00  0.00    +0.000 A 
ATOM     13  C   UNL     1       1.854   3.784  18.595  0.00  0.00    +0.000 A 
ATOM     14  F   UNL     1       1.972   3.838  17.258  0.00  0.00    +0.000 F 
ENDBRANCH   7   8
BRANCH   4  15
ATOM     15  C   UNL     1       7.074   5.898  17.696  0.00  0.00    +0.000 C 
BRANCH  15  16
ATOM     16  C   UNL     1       7.367   4.896  16.587  0.00  0.00    +0.000 C 
BRANCH  16  17
ATOM     17  O   UNL     1       7.590   5.569  15.343  0.00  0.00    +0.000 OA
BRANCH  17  18
ATOM     18  C   UNL     1       7.091   4.899  14.253  0.00  0.00    +0.000 A 
ATOM     19  C   UNL     1       7.774   5.089  13.050  0.00  0.00    +0.000 A 
ATOM     20  C   UNL     1       7.327   4.471  11.879  0.00  0.00    +0.000 A 
ATOM     21  C   UNL     1       6.203   3.643  11.910  0.00  0.00    +0.000 A 
ATOM     22  C   UNL     1       5.537   3.427  13.114  0.00  0.00    +0.000 A 
ATOM     23  C   UNL     1       5.983   4.047  14.280  0.00  0.00    +0.000 A 
ENDBRANCH  17  18
ENDBRANCH  16  17
ENDBRANCH  15  16
ENDBRANCH   4  15
TORSDOF 5
ENDMDL
MODEL 3
REMARK VINA RESULT:      -8.3      0.993      1.720
REMARK  Name = 
REMARK  6 active torsions:
REMARK  status: ('A' for Active; 'I' for Inactive)
REMARK    1  A    between atoms: C_1  and  C_2
REMARK    2  A    between atoms: N_4  and  C_5
REMARK    3  A    between atoms: C_5  and  C_6
REMARK    4  A    between atoms: C_6  and  O_7
REMARK    5  A    between atoms: O_7  and  C_8
REMARK    6  A    between atoms: N_16  and  C_17
REMARK                            x       y       z     vdW  Elec       q    Type
REMARK                         _______ _______ _______ _____ _____    ______ ____
ROOT
ATOM      1  C   UNL     1       2.479   7.057  17.979  0.00  0.00    +0.000 C 
ATOM      2  C   UNL     1       3.732   6.244  18.091  0.00  0.00    +0.000 A 
ATOM      3  N   UNL     1       4.889   6.696  17.698  0.00  0.00    +0.000 NA
ATOM      4  N   UNL     1       5.779   5.717  18.080  0.00  0.00    +0.000 N 
ATOM      5  C   UNL     1       5.106   4.665  18.702  0.00  0.00    +0.000 A 
ATOM      6  O   UNL     1       5.603   3.626  19.109  0.00  0.00    +0.000 OA
ATOM      7  N   UNL     1       3.776   5.042  18.700  0.00  0.00    +0.000 N 
ENDROOT
BRANCH   7   8
ATOM      8  C   UNL     1       2.743   4.190  19.114  0.00  0.00    +0.000 A 
ATOM      9  C   UNL     1       2.187   3.301  18.190  0.00  0.00    +0.000 A 
ATOM     10  C   UNL     1       1.072   2.535  18.531  0.00  0.00    +0.000 A 
ATOM     11  C   UNL     1       0.485   2.680  19.788  0.00  0.00    +0.000 A 
ATOM     12  C   UNL     1       1.034   3.563  20.716  0.00  0.00    +0.000 A 
ATOM     13  C   UNL     1       2.170   4.298  20.383  0.00  0.00    +0.000 A 
ATOM     14  F   UNL     1       2.638   5.190  21.270  0.00  0.00    +0.000 F 
ENDBRANCH   7   8
BRANCH   4  15
ATOM     15  C   UNL     1       7.200   5.750  17.807  0.00  0.00    +0.000 C 
BRANCH  15  16
ATOM     16  C   UNL     1       7.590   4.912  16.597  0.00  0.00    +0.000 C 
BRANCH  16  17
ATOM     17  O   UNL     1       7.426   5.662  15.388  0.00  0.00    +0.000 OA
BRANCH  17  18
ATOM     18  C   UNL     1       6.914   4.928  14.346  0.00  0.00    +0.000 A 
ATOM     19  C   UNL     1       7.672   4.916  13.174  0.00  0.00    +0.000 A 
ATOM     20  C   UNL     1       7.223   4.220  12.049  0.00  0.00    +0.000 A 
ATOM     21  C   UNL     1       6.017   3.516  12.098  0.00  0.00    +0.000 A 
ATOM     22  C   UNL     1       5.273   3.501  13.274  0.00  0.00    +0.000 A 
ATOM     23  C   UNL     1       5.723   4.199  14.394  0.00  0.00    +0.000 A 
ENDBRANCH  17  18
ENDBRANCH  16  17
ENDBRANCH  15  16
ENDBRANCH   4  15
TORSDOF 5
ENDMDL
MODEL 4
REMARK VINA RESULT:      -8.3      0.974      1.390
REMARK  Name = 
REMARK  6 active torsions:
REMARK  status: ('A' for Active; 'I' for Inactive)
REMARK    1  A    between atoms: C_1  and  C_2
REMARK    2  A    between atoms: N_4  and  C_5
REMARK    3  A    between atoms: C_5  and  C_6
REMARK    4  A    between atoms: C_6  and  O_7
REMARK    5  A    between atoms: O_7  and  C_8
REMARK    6  A    between atoms: N_16  and  C_17
REMARK                            x       y       z     vdW  Elec       q    Type
REMARK                         _______ _______ _______ _____ _____    ______ ____
ROOT
ATOM      1  C   UNL     1       2.229   7.137  17.959  0.00  0.00    +0.000 C 
ATOM      2  C   UNL     1       3.525   6.386  18.002  0.00  0.00    +0.000 A 
ATOM      3  N   UNL     1       4.637   6.894  17.551  0.00  0.00    +0.000 NA
ATOM      4  N   UNL     1       5.591   5.959  17.884  0.00  0.00    +0.000 N 
ATOM      5  C   UNL     1       5.004   4.875  18.536  0.00  0.00    +0.000 A 
ATOM      6  O   UNL     1       5.572   3.861  18.914  0.00  0.00    +0.000 OA
ATOM      7  N   UNL     1       3.659   5.188  18.605  0.00  0.00    +0.000 N 
ENDROOT
BRANCH   7   8
ATOM      8  C   UNL     1       2.691   4.286  19.069  0.00  0.00    +0.000 A 
ATOM      9  C   UNL     1       2.083   3.417  18.160  0.00  0.00    +0.000 A 
ATOM     10  C   UNL     1       1.026   2.600  18.562  0.00  0.00    +0.000 A 
ATOM     11  C   UNL     1       0.546   2.676  19.870  0.00  0.00    +0.000 A 
ATOM     12  C   UNL     1       1.148   3.540  20.784  0.00  0.00    +0.000 A 
ATOM     13  C   UNL     1       2.228   4.324  20.387  0.00  0.00    +0.000 A 
ATOM     14  F   UNL     1       2.745   5.196  21.267  0.00  0.00    +0.000 F 
ENDBRANCH   7   8
BRANCH   4  15
ATOM     15  C   UNL     1       6.993   6.061  17.537  0.00  0.00    +0.000 C 
BRANCH  15  16
ATOM     16  C   UNL     1       7.423   5.033  16.500  0.00  0.00    +0.000 C 
BRANCH  16  17
ATOM     17  O   UNL     1       7.657   5.659  15.234  0.00  0.00    +0.000 OA
BRANCH  17  18
ATOM     18  C   UNL     1       7.152   4.957  14.166  0.00  0.00    +0.000 A 
ATOM     19  C   UNL     1       5.986   4.228  14.408  0.00  0.00    +0.000 A 
ATOM     20  C   UNL     1       5.411   3.461  13.391  0.00  0.00    +0.000 A 
ATOM     21  C   UNL     1       5.991   3.433  12.122  0.00  0.00    +0.000 A 
ATOM     22  C   UNL     1       7.137   4.182  11.869  0.00  0.00    +0.000 A 
ATOM     23  C   UNL     1       7.711   4.944  12.885  0.00  0.00    +0.000 A 
ENDBRANCH  17  18
ENDBRANCH  16  17
ENDBRANCH  15  16
ENDBRANCH   4  15
TORSDOF 5
ENDMDL
MODEL 5
REMARK VINA RESULT:      -7.6      2.951      4.811
REMARK  Name = 
REMARK  6 active torsions:
REMARK  status: ('A' for Active; 'I' for Inactive)
REMARK    1  A    between atoms: C_1  and  C_2
REMARK    2  A    between atoms: N_4  and  C_5
REMARK    3  A    between atoms: C_5  and  C_6
REMARK    4  A    between atoms: C_6  and  O_7
REMARK    5  A    between atoms: O_7  and  C_8
REMARK    6  A    between atoms: N_16  and  C_17
REMARK                            x       y       z     vdW  Elec       q    Type
REMARK                         _______ _______ _______ _____ _____    ______ ____
ROOT
ATOM      1  C   UNL     1       2.387   7.213  17.869  0.00  0.00    +0.000 C 
ATOM      2  C   UNL     1       3.699   6.495  17.962  0.00  0.00    +0.000 A 
ATOM      3  N   UNL     1       4.786   6.962  17.416  0.00  0.00    +0.000 NA
ATOM      4  N   UNL     1       5.769   6.091  17.829  0.00  0.00    +0.000 N 
ATOM      5  C   UNL     1       5.224   5.086  18.628  0.00  0.00    +0.000 A 
ATOM      6  O   UNL     1       5.824   4.136  19.108  0.00  0.00    +0.000 OA
ATOM      7  N   UNL     1       3.875   5.382  18.702  0.00  0.00    +0.000 N 
ENDROOT
BRANCH   7   8
ATOM      8  C   UNL     1       2.941   4.528  19.304  0.00  0.00    +0.000 A 
ATOM      9  C   UNL     1       2.638   4.703  20.657  0.00  0.00    +0.000 A 
ATOM     10  C   UNL     1       1.815   3.791  21.319  0.00  0.00    +0.000 A 
ATOM     11  C   UNL     1       1.321   2.677  20.640  0.00  0.00    +0.000 A 
ATOM     12  C   UNL     1       1.618   2.496  19.289  0.00  0.00    +0.000 A 
ATOM     13  C   UNL     1       2.408   3.430  18.624  0.00  0.00    +0.000 A 
ATOM     14  F   UNL     1       2.735   3.197  17.343  0.00  0.00    +0.000 F 
ENDBRANCH   7   8
BRANCH   4  15
ATOM     15  C   UNL     1       7.157   6.173  17.427  0.00  0.00    +0.000 C 
BRANCH  15  16
ATOM     16  C   UNL     1       7.916   7.283  18.140  0.00  0.00    +0.000 C 
BRANCH  16  17
ATOM     17  O   UNL     1       7.605   8.558  17.568  0.00  0.00    +0.000 OA
BRANCH  17  18
ATOM     18  C   UNL     1       8.326   9.598  18.103  0.00  0.00    +0.000 A 
ATOM     19  C   UNL     1       8.216  10.824  17.444  0.00  0.00    +0.000 A 
ATOM     20  C   UNL     1       8.931  11.935  17.897  0.00  0.00    +0.000 A 
ATOM     21  C   UNL     1       9.749  11.829  19.025  0.00  0.00    +0.000 A 
ATOM     22  C   UNL     1       9.837  10.616  19.702  0.00  0.00    +0.000 A 
ATOM     23  C   UNL     1       9.125   9.507  19.246  0.00  0.00    +0.000 A 
ENDBRANCH  17  18
ENDBRANCH  16  17
ENDBRANCH  15  16
ENDBRANCH   4  15
TORSDOF 5
ENDMDL
MODEL 6
REMARK VINA RESULT:      -7.5      3.489      5.341
REMARK  Name = 
REMARK  6 active torsions:
REMARK  status: ('A' for Active; 'I' for Inactive)
REMARK    1  A    between atoms: C_1  and  C_2
REMARK    2  A    between atoms: N_4  and  C_5
REMARK    3  A    between atoms: C_5  and  C_6
REMARK    4  A    between atoms: C_6  and  O_7
REMARK    5  A    between atoms: O_7  and  C_8
REMARK    6  A    between atoms: N_16  and  C_17
REMARK                            x       y       z     vdW  Elec       q    Type
REMARK                         _______ _______ _______ _____ _____    ______ ____
ROOT
ATOM      1  C   UNL     1       2.625   6.979  17.656  0.00  0.00    +0.000 C 
ATOM      2  C   UNL     1       4.018   6.438  17.770  0.00  0.00    +0.000 A 
ATOM      3  N   UNL     1       5.066   7.146  17.460  0.00  0.00    +0.000 NA
ATOM      4  N   UNL     1       6.129   6.348  17.817  0.00  0.00    +0.000 N 
ATOM      5  C   UNL     1       5.673   5.136  18.338  0.00  0.00    +0.000 A 
ATOM      6  O   UNL     1       6.365   4.196  18.699  0.00  0.00    +0.000 OA
ATOM      7  N   UNL     1       4.294   5.229  18.302  0.00  0.00    +0.000 N 
ENDROOT
BRANCH   7   8
ATOM      8  C   UNL     1       3.451   4.154  18.613  0.00  0.00    +0.000 A 
ATOM      9  C   UNL     1       3.195   3.189  17.635  0.00  0.00    +0.000 A 
ATOM     10  C   UNL     1       2.260   2.180  17.867  0.00  0.00    +0.000 A 
ATOM     11  C   UNL     1       1.548   2.152  19.066  0.00  0.00    +0.000 A 
ATOM     12  C   UNL     1       1.798   3.111  20.047  0.00  0.00    +0.000 A 
ATOM     13  C   UNL     1       2.760   4.092  19.825  0.00  0.00    +0.000 A 
ATOM     14  F   UNL     1       2.933   5.043  20.758  0.00  0.00    +0.000 F 
ENDBRANCH   7   8
BRANCH   4  15
ATOM     15  C   UNL     1       7.519   6.694  17.610  0.00  0.00    +0.000 C 
BRANCH  15  16
ATOM     16  C   UNL     1       7.760   8.197  17.597  0.00  0.00    +0.000 C 
BRANCH  16  17
ATOM     17  O   UNL     1       8.532   8.596  18.734  0.00  0.00    +0.000 OA
BRANCH  17  18
ATOM     18  C   UNL     1       8.875   9.927  18.733  0.00  0.00    +0.000 A 
ATOM     19  C   UNL     1       9.637  10.364  19.817  0.00  0.00    +0.000 A 
ATOM     20  C   UNL     1      10.013  11.706  19.920  0.00  0.00    +0.000 A 
ATOM     21  C   UNL     1       9.641  12.615  18.926  0.00  0.00    +0.000 A 
ATOM     22  C   UNL     1       8.906  12.176  17.829  0.00  0.00    +0.000 A 
ATOM     23  C   UNL     1       8.530  10.837  17.731  0.00  0.00    +0.000 A 
ENDBRANCH  17  18
ENDBRANCH  16  17
ENDBRANCH  15  16
ENDBRANCH   4  15
TORSDOF 5
ENDMDL
MODEL 7
REMARK VINA RESULT:      -7.4      3.162      5.059
REMARK  Name = 
REMARK  6 active torsions:
REMARK  status: ('A' for Active; 'I' for Inactive)
REMARK    1  A    between atoms: C_1  and  C_2
REMARK    2  A    between atoms: N_4  and  C_5
REMARK    3  A    between atoms: C_5  and  C_6
REMARK    4  A    between atoms: C_6  and  O_7
REMARK    5  A    between atoms: O_7  and  C_8
REMARK    6  A    between atoms: N_16  and  C_17
REMARK                            x       y       z     vdW  Elec       q    Type
REMARK                         _______ _______ _______ _____ _____    ______ ____
ROOT
ATOM      1  C   UNL     1       2.497   7.318  17.730  0.00  0.00    +0.000 C 
ATOM      2  C   UNL     1       3.792   6.570  17.832  0.00  0.00    +0.000 A 
ATOM      3  N   UNL     1       4.919   7.075  17.417  0.00  0.00    +0.000 NA
ATOM      4  N   UNL     1       5.862   6.146  17.798  0.00  0.00    +0.000 N 
ATOM      5  C   UNL     1       5.252   5.069  18.441  0.00  0.00    +0.000 A 
ATOM      6  O   UNL     1       5.807   4.061  18.852  0.00  0.00    +0.000 OA
ATOM      7  N   UNL     1       3.905   5.379  18.454  0.00  0.00    +0.000 N 
ENDROOT
BRANCH   7   8
ATOM      8  C   UNL     1       2.922   4.481  18.892  0.00  0.00    +0.000 A 
ATOM      9  C   UNL     1       2.542   3.430  18.054  0.00  0.00    +0.000 A 
ATOM     10  C   UNL     1       1.477   2.599  18.402  0.00  0.00    +0.000 A 
ATOM     11  C   UNL     1       0.762   2.837  19.575  0.00  0.00    +0.000 A 
ATOM     12  C   UNL     1       1.135   3.883  20.418  0.00  0.00    +0.000 A 
ATOM     13  C   UNL     1       2.223   4.686  20.084  0.00  0.00    +0.000 A 
ATOM     14  F   UNL     1       2.519   5.727  20.879  0.00  0.00    +0.000 F 
ENDBRANCH   7   8
BRANCH   4  15
ATOM     15  C   UNL     1       7.276   6.247  17.504  0.00  0.00    +0.000 C 
BRANCH  15  16
ATOM     16  C   UNL     1       7.956   7.390  18.245  0.00  0.00    +0.000 C 
BRANCH  16  17
ATOM     17  O   UNL     1       7.645   8.646  17.633  0.00  0.00    +0.000 OA
BRANCH  17  18
ATOM     18  C   UNL     1       8.346   9.706  18.154  0.00  0.00    +0.000 A 
ATOM     19  C   UNL     1       8.249  10.910  17.454  0.00  0.00    +0.000 A 
ATOM     20  C   UNL     1       8.947  12.039  17.891  0.00  0.00    +0.000 A 
ATOM     21  C   UNL     1       9.734  11.972  19.043  0.00  0.00    +0.000 A 
ATOM     22  C   UNL     1       9.809  10.782  19.761  0.00  0.00    +0.000 A 
ATOM     23  C   UNL     1       9.114   9.656  19.321  0.00  0.00    +0.000 A 
ENDBRANCH  17  18
ENDBRANCH  16  17
ENDBRANCH  15  16
ENDBRANCH   4  15
TORSDOF 5
ENDMDL
MODEL 8
REMARK VINA RESULT:      -7.3      3.916      5.848
REMARK  Name = 
REMARK  6 active torsions:
REMARK  status: ('A' for Active; 'I' for Inactive)
REMARK    1  A    between atoms: C_1  and  C_2
REMARK    2  A    between atoms: N_4  and  C_5
REMARK    3  A    between atoms: C_5  and  C_6
REMARK    4  A    between atoms: C_6  and  O_7
REMARK    5  A    between atoms: O_7  and  C_8
REMARK    6  A    between atoms: N_16  and  C_17
REMARK                            x       y       z     vdW  Elec       q    Type
REMARK                         _______ _______ _______ _____ _____    ______ ____
ROOT
ATOM      1  C   UNL     1       5.136   5.456  14.951  0.00  0.00    +0.000 C 
ATOM      2  C   UNL     1       5.772   5.683  16.288  0.00  0.00    +0.000 A 
ATOM      3  N   UNL     1       6.896   6.329  16.422  0.00  0.00    +0.000 NA
ATOM      4  N   UNL     1       7.067   6.426  17.784  0.00  0.00    +0.000 N 
ATOM      5  C   UNL     1       6.011   5.804  18.452  0.00  0.00    +0.000 A 
ATOM      6  O   UNL     1       5.895   5.675  19.661  0.00  0.00    +0.000 OA
ATOM      7  N   UNL     1       5.182   5.338  17.450  0.00  0.00    +0.000 N 
ENDROOT
BRANCH   7   8
ATOM      8  C   UNL     1       4.067   4.525  17.702  0.00  0.00    +0.000 A 
ATOM      9  C   UNL     1       4.222   3.137  17.679  0.00  0.00    +0.000 A 
ATOM     10  C   UNL     1       3.111   2.301  17.794  0.00  0.00    +0.000 A 
ATOM     11  C   UNL     1       1.833   2.851  17.896  0.00  0.00    +0.000 A 
ATOM     12  C   UNL     1       1.670   4.235  17.920  0.00  0.00    +0.000 A 
ATOM     13  C   UNL     1       2.786   5.064  17.843  0.00  0.00    +0.000 A 
ATOM     14  F   UNL     1       2.596   6.393  17.801  0.00  0.00    +0.000 F 
ENDBRANCH   7   8
BRANCH   4  15
ATOM     15  C   UNL     1       8.218   7.026  18.425  0.00  0.00    +0.000 C 
BRANCH  15  16
ATOM     16  C   UNL     1       8.287   8.534  18.228  0.00  0.00    +0.000 C 
BRANCH  16  17
ATOM     17  O   UNL     1       9.112   9.138  19.230  0.00  0.00    +0.000 OA
BRANCH  17  18
ATOM     18  C   UNL     1       9.220  10.502  19.111  0.00  0.00    +0.000 A 
ATOM     19  C   UNL     1       8.796  11.048  17.898  0.00  0.00    +0.000 A 
ATOM     20  C   UNL     1       8.891  12.424  17.672  0.00  0.00    +0.000 A 
ATOM     21  C   UNL     1       9.396  13.263  18.667  0.00  0.00    +0.000 A 
ATOM     22  C   UNL     1       9.792  12.727  19.889  0.00  0.00    +0.000 A 
ATOM     23  C   UNL     1       9.699  11.353  20.111  0.00  0.00    +0.000 A 
ENDBRANCH  17  18
ENDBRANCH  16  17
ENDBRANCH  15  16
ENDBRANCH   4  15
TORSDOF 5
ENDMDL
MODEL 9
REMARK VINA RESULT:      -7.2      1.124      1.701
REMARK  Name = 
REMARK  6 active torsions:
REMARK  status: ('A' for Active; 'I' for Inactive)
REMARK    1  A    between atoms: C_1  and  C_2
REMARK    2  A    between atoms: N_4  and  C_5
REMARK    3  A    between atoms: C_5  and  C_6
REMARK    4  A    between atoms: C_6  and  O_7
REMARK    5  A    between atoms: O_7  and  C_8
REMARK    6  A    between atoms: N_16  and  C_17
REMARK                            x       y       z     vdW  Elec       q    Type
REMARK                         _______ _______ _______ _____ _____    ______ ____
ROOT
ATOM      1  C   UNL     1       2.571   7.561  18.458  0.00  0.00    +0.000 C 
ATOM      2  C   UNL     1       3.486   6.498  17.931  0.00  0.00    +0.000 A 
ATOM      3  N   UNL     1       4.391   6.747  17.028  0.00  0.00    +0.000 NA
ATOM      4  N   UNL     1       5.086   5.564  16.914  0.00  0.00    +0.000 N 
ATOM      5  C   UNL     1       4.552   4.602  17.772  0.00  0.00    +0.000 A 
ATOM      6  O   UNL     1       4.911   3.439  17.871  0.00  0.00    +0.000 OA
ATOM      7  N   UNL     1       3.517   5.244  18.426  0.00  0.00    +0.000 N 
ENDROOT
BRANCH   7   8
ATOM      8  C   UNL     1       2.629   4.578  19.282  0.00  0.00    +0.000 A 
ATOM      9  C   UNL     1       2.941   4.481  20.640  0.00  0.00    +0.000 A 
ATOM     10  C   UNL     1       2.148   3.714  21.494  0.00  0.00    +0.000 A 
ATOM     11  C   UNL     1       1.058   3.008  20.986  0.00  0.00    +0.000 A 
ATOM     12  C   UNL     1       0.738   3.100  19.632  0.00  0.00    +0.000 A 
ATOM     13  C   UNL     1       1.511   3.898  18.792  0.00  0.00    +0.000 A 
ATOM     14  F   UNL     1       1.223   3.916  17.481  0.00  0.00    +0.000 F 
ENDBRANCH   7   8
BRANCH   4  15
ATOM     15  C   UNL     1       6.168   5.336  15.981  0.00  0.00    +0.000 C 
BRANCH  15  16
ATOM     16  C   UNL     1       5.690   5.182  14.543  0.00  0.00    +0.000 C 
BRANCH  16  17
ATOM     17  O   UNL     1       6.768   4.783  13.691  0.00  0.00    +0.000 OA
BRANCH  17  18
ATOM     18  C   UNL     1       6.430   3.803  12.789  0.00  0.00    +0.000 A 
ATOM     19  C   UNL     1       7.494   3.124  12.193  0.00  0.00    +0.000 A 
ATOM     20  C   UNL     1       7.252   2.128  11.244  0.00  0.00    +0.000 A 
ATOM     21  C   UNL     1       5.940   1.794  10.898  0.00  0.00    +0.000 A 
ATOM     22  C   UNL     1       4.876   2.448  11.512  0.00  0.00    +0.000 A 
ATOM     23  C   UNL     1       5.120   3.444  12.457  0.00  0.00    +0.000 A 
ENDBRANCH  17  18
ENDBRANCH  16  17
ENDBRANCH  15  16
ENDBRANCH   4  15
TORSDOF 5
ENDMDL
