MODEL 1
REMARK VINA RESULT:      -9.1      0.000      0.000
REMARK  Name = 
REMARK  4 active torsions:
REMARK  status: ('A' for Active; 'I' for Inactive)
REMARK    1  A    between atoms: C_1  and  C_2
REMARK    2  A    between atoms: C_5  and  N_6
REMARK    3  A    between atoms: C_7  and  C_9
REMARK    4  A    between atoms: C_9  and  N_10
REMARK                            x       y       z     vdW  Elec       q    Type
REMARK                         _______ _______ _______ _____ _____    ______ ____
ROOT
ATOM      1  N   UNL     1       6.970   5.950  17.807  0.00  0.00    +0.000 NA
ATOM      2  C   UNL     1       7.068   5.700  16.361  0.00  0.00    +0.000 C 
ATOM      3  C   UNL     1       5.784   4.971  15.821  0.00  0.00    +0.000 C 
ATOM      4  C   UNL     1       4.707   4.750  16.877  0.00  0.00    +0.000 A 
ATOM      5  C   UNL     1       3.753   3.724  16.840  0.00  0.00    +0.000 A 
ATOM      6  C   UNL     1       2.759   3.658  17.836  0.00  0.00    +0.000 A 
ATOM      7  C   UNL     1       2.688   4.667  18.802  0.00  0.00    +0.000 A 
ATOM      8  C   UNL     1       3.688   5.607  18.918  0.00  0.00    +0.000 A 
ATOM      9  C   UNL     1       4.671   5.662  17.949  0.00  0.00    +0.000 A 
ATOM     10  C   UNL     1       5.743   6.692  18.054  0.00  0.00    +0.000 C 
ATOM     11  O   UNL     1       1.556   4.999  19.491  0.00  0.00    +0.000 OA
ATOM     12  C   UNL     1       1.196   4.061  20.481  0.00  0.00    +0.000 C 
ATOM     13  C   UNL     1       0.531   2.864  19.836  0.00  0.00    +0.000 C 
ATOM     14  C   UNL     1       1.553   2.049  19.050  0.00  0.00    +0.000 C 
ATOM     15  O   UNL     1       1.863   2.623  17.768  0.00  0.00    +0.000 OA
ENDROOT
BRANCH   1  16
ATOM     16  C   UNL     1       8.098   6.562  18.497  0.00  0.00    +0.000 C 
BRANCH  16  18
ATOM     17  N   UNL     1       8.929   8.769  19.152  0.00  0.00    +0.000 N 
ATOM     18  C   UNL     1       8.191   8.056  18.223  0.00  0.00    +0.000 C 
ATOM     19  O   UNL     1       7.573   8.520  17.259  0.00  0.00    +0.000 OA
ATOM     20  H   UNL     1       9.377   8.191  19.864  0.00  0.00    +0.000 HD
BRANCH  17  25
ATOM     21  C   UNL     1      10.090  14.386  19.214  0.00  0.00    +0.000 C 
ATOM     22  C   UNL     1       9.771  12.921  19.202  0.00  0.00    +0.000 A 
ATOM     23  C   UNL     1       9.611  12.254  17.989  0.00  0.00    +0.000 A 
ATOM     24  C   UNL     1       9.320  10.889  17.963  0.00  0.00    +0.000 A 
ATOM     25  C   UNL     1       9.185  10.156  19.144  0.00  0.00    +0.000 A 
ATOM     26  C   UNL     1       9.324  10.826  20.364  0.00  0.00    +0.000 A 
ATOM     27  C   UNL     1       9.620  12.199  20.392  0.00  0.00    +0.000 A 
ENDBRANCH  17  25
ENDBRANCH  16  18
ENDBRANCH   1  16
TORSDOF 3
ENDMDL
MODEL 2
REMARK VINA RESULT:      -9.0      2.619      3.595
REMARK  Name = 
REMARK  4 active torsions:
REMARK  status: ('A' for Active; 'I' for Inactive)
REMARK    1  A    between atoms: C_1  and  C_2
REMARK    2  A    between atoms: C_5  and  N_6
REMARK    3  A    between atoms: C_7  and  C_9
REMARK    4  A    between atoms: C_9  and  N_10
REMARK                            x       y       z     vdW  Elec       q    Type
REMARK                         _______ _______ _______ _____ _____    ______ ____
ROOT
ATOM      1  N   UNL     1       5.823   6.299  17.758  0.00  0.00    +0.000 NA
ATOM      2  C   UNL     1       5.562   4.888  18.084  0.00  0.00    +0.000 C 
ATOM      3  C   UNL     1       4.178   4.718  18.810  0.00  0.00    +0.000 C 
ATOM      4  C   UNL     1       3.390   6.015  18.952  0.00  0.00    +0.000 A 
ATOM      5  C   UNL     1       2.445   6.269  19.957  0.00  0.00    +0.000 A 
ATOM      6  C   UNL     1       1.725   7.480  19.949  0.00  0.00    +0.000 A 
ATOM      7  C   UNL     1       1.902   8.377  18.890  0.00  0.00    +0.000 A 
ATOM      8  C   UNL     1       2.909   8.194  17.969  0.00  0.00    +0.000 A 
ATOM      9  C   UNL     1       3.626   7.012  17.986  0.00  0.00    +0.000 A 
ATOM     10  C   UNL     1       4.702   6.796  16.977  0.00  0.00    +0.000 C 
ATOM     11  O   UNL     1       0.977   9.302  18.498  0.00  0.00    +0.000 OA
ATOM     12  C   UNL     1       0.861  10.400  19.376  0.00  0.00    +0.000 C 
ATOM     13  C   UNL     1       0.047  10.003  20.588  0.00  0.00    +0.000 C 
ATOM     14  C   UNL     1       0.838   9.038  21.466  0.00  0.00    +0.000 C 
ATOM     15  O   UNL     1       0.830   7.690  20.966  0.00  0.00    +0.000 OA
ENDROOT
BRANCH   1  16
ATOM     16  C   UNL     1       7.091   6.657  17.138  0.00  0.00    +0.000 C 
BRANCH  16  18
ATOM     17  N   UNL     1       7.894   8.925  17.589  0.00  0.00    +0.000 N 
ATOM     18  C   UNL     1       7.904   7.605  18.007  0.00  0.00    +0.000 C 
ATOM     19  O   UNL     1       8.540   7.137  18.957  0.00  0.00    +0.000 OA
ATOM     20  H   UNL     1       7.286   9.107  16.790  0.00  0.00    +0.000 HD
BRANCH  17  25
ATOM     21  C   UNL     1      10.427  13.425  20.087  0.00  0.00    +0.000 C 
ATOM     22  C   UNL     1       9.778  12.248  19.423  0.00  0.00    +0.000 A 
ATOM     23  C   UNL     1       9.877  10.983  19.997  0.00  0.00    +0.000 A 
ATOM     24  C   UNL     1       9.271   9.879  19.394  0.00  0.00    +0.000 A 
ATOM     25  C   UNL     1       8.550  10.011  18.205  0.00  0.00    +0.000 A 
ATOM     26  C   UNL     1       8.466  11.276  17.614  0.00  0.00    +0.000 A 
ATOM     27  C   UNL     1       9.072  12.388  18.222  0.00  0.00    +0.000 A 
ENDBRANCH  17  25
ENDBRANCH  16  18
ENDBRANCH   1  16
TORSDOF 3
ENDMDL
MODEL 3
REMARK VINA RESULT:      -8.8      4.211      7.234
REMARK  Name = 
REMARK  4 active torsions:
REMARK  status: ('A' for Active; 'I' for Inactive)
REMARK    1  A    between atoms: C_1  and  C_2
REMARK    2  A    between atoms: C_5  and  N_6
REMARK    3  A    between atoms: C_7  and  C_9
REMARK    4  A    between atoms: C_9  and  N_10
REMARK                            x       y       z     vdW  Elec       q    Type
REMARK                         _______ _______ _______ _____ _____    ______ ____
ROOT
ATOM      1  N   UNL     1       5.434   6.490  18.014  0.00  0.00    +0.000 NA
ATOM      2  C   UNL     1       5.157   5.189  18.642  0.00  0.00    +0.000 C 
ATOM      3  C   UNL     1       3.792   5.212  19.422  0.00  0.00    +0.000 C 
ATOM      4  C   UNL     1       3.033   6.528  19.301  0.00  0.00    +0.000 A 
ATOM      5  C   UNL     1       2.123   7.013  20.251  0.00  0.00    +0.000 A 
ATOM      6  C   UNL     1       1.425   8.211  20.001  0.00  0.00    +0.000 A 
ATOM      7  C   UNL     1       1.587   8.856  18.770  0.00  0.00    +0.000 A 
ATOM      8  C   UNL     1       2.563   8.456  17.885  0.00  0.00    +0.000 A 
ATOM      9  C   UNL     1       3.258   7.288  18.138  0.00  0.00    +0.000 A 
ATOM     10  C   UNL     1       4.299   6.835  17.173  0.00  0.00    +0.000 C 
ATOM     11  O   UNL     1       0.668   9.697  18.211  0.00  0.00    +0.000 OA
ATOM     12  C   UNL     1       0.597  10.961  18.835  0.00  0.00    +0.000 C 
ATOM     13  C   UNL     1      -0.188  10.852  20.125  0.00  0.00    +0.000 C 
ATOM     14  C   UNL     1       0.611  10.080  21.169  0.00  0.00    +0.000 C 
ATOM     15  O   UNL     1       0.564   8.656  20.971  0.00  0.00    +0.000 OA
ENDROOT
BRANCH   1  16
ATOM     16  C   UNL     1       6.690   6.676  17.300  0.00  0.00    +0.000 C 
BRANCH  16  18
ATOM     17  N   UNL     1       6.306   5.673  15.101  0.00  0.00    +0.000 N 
ATOM     18  C   UNL     1       6.959   5.548  16.316  0.00  0.00    +0.000 C 
ATOM     19  O   UNL     1       7.668   4.603  16.678  0.00  0.00    +0.000 OA
ATOM     20  H   UNL     1       5.783   6.542  14.993  0.00  0.00    +0.000 HD
BRANCH  17  25
ATOM     21  C   UNL     1       6.749   2.025  10.697  0.00  0.00    +0.000 C 
ATOM     22  C   UNL     1       6.628   2.990  11.837  0.00  0.00    +0.000 A 
ATOM     23  C   UNL     1       5.554   2.893  12.719  0.00  0.00    +0.000 A 
ATOM     24  C   UNL     1       5.432   3.781  13.790  0.00  0.00    +0.000 A 
ATOM     25  C   UNL     1       6.379   4.784  14.008  0.00  0.00    +0.000 A 
ATOM     26  C   UNL     1       7.447   4.898  13.112  0.00  0.00    +0.000 A 
ATOM     27  C   UNL     1       7.573   4.004  12.036  0.00  0.00    +0.000 A 
ENDBRANCH  17  25
ENDBRANCH  16  18
ENDBRANCH   1  16
TORSDOF 3
ENDMDL
MODEL 4
REMARK VINA RESULT:      -8.8      6.588      9.147
REMARK  Name = 
REMARK  4 active torsions:
REMARK  status: ('A' for Active; 'I' for Inactive)
REMARK    1  A    between atoms: C_1  and  C_2
REMARK    2  A    between atoms: C_5  and  N_6
REMARK    3  A    between atoms: C_7  and  C_9
REMARK    4  A    between atoms: C_9  and  N_10
REMARK                            x       y       z     vdW  Elec       q    Type
REMARK                         _______ _______ _______ _____ _____    ______ ____
ROOT
ATOM      1  N   UNL     1       0.914   9.426  19.135  0.00  0.00    +0.000 NA
ATOM      2  C   UNL     1       0.961   9.599  20.595  0.00  0.00    +0.000 C 
ATOM      3  C   UNL     1       1.375   8.264  21.313  0.00  0.00    +0.000 C 
ATOM      4  C   UNL     1       1.701   7.122  20.358  0.00  0.00    +0.000 A 
ATOM      5  C   UNL     1       1.581   5.761  20.672  0.00  0.00    +0.000 A 
ATOM      6  C   UNL     1       1.978   4.790  19.731  0.00  0.00    +0.000 A 
ATOM      7  C   UNL     1       2.565   5.198  18.529  0.00  0.00    +0.000 A 
ATOM      8  C   UNL     1       2.576   6.525  18.162  0.00  0.00    +0.000 A 
ATOM      9  C   UNL     1       2.172   7.477  19.079  0.00  0.00    +0.000 A 
ATOM     10  C   UNL     1       2.204   8.918  18.699  0.00  0.00    +0.000 C 
ATOM     11  O   UNL     1       3.404   4.427  17.778  0.00  0.00    +0.000 OA
ATOM     12  C   UNL     1       2.752   3.389  17.078  0.00  0.00    +0.000 C 
ATOM     13  C   UNL     1       2.443   2.248  18.023  0.00  0.00    +0.000 C 
ATOM     14  C   UNL     1       1.341   2.651  18.997  0.00  0.00    +0.000 C 
ATOM     15  O   UNL     1       1.820   3.473  20.077  0.00  0.00    +0.000 OA
ENDROOT
BRANCH   1  16
ATOM     16  C   UNL     1       0.485  10.544  18.305  0.00  0.00    +0.000 C 
BRANCH  16  18
ATOM     17  N   UNL     1      -1.741  11.536  18.532  0.00  0.00    +0.000 N 
ATOM     18  C   UNL     1      -1.005  10.490  18.001  0.00  0.00    +0.000 C 
ATOM     19  O   UNL     1      -1.447   9.521  17.375  0.00  0.00    +0.000 OA
ATOM     20  H   UNL     1      -1.180  12.248  19.000  0.00  0.00    +0.000 HD
BRANCH  17  25
ATOM     21  C   UNL     1      -7.373  12.518  18.068  0.00  0.00    +0.000 C 
ATOM     22  C   UNL     1      -5.904  12.247  18.197  0.00  0.00    +0.000 A 
ATOM     23  C   UNL     1      -5.185  11.775  17.102  0.00  0.00    +0.000 A 
ATOM     24  C   UNL     1      -3.816  11.524  17.206  0.00  0.00    +0.000 A 
ATOM     25  C   UNL     1      -3.130  11.742  18.403  0.00  0.00    +0.000 A 
ATOM     26  C   UNL     1      -3.853  12.196  19.512  0.00  0.00    +0.000 A 
ATOM     27  C   UNL     1      -5.231  12.452  19.408  0.00  0.00    +0.000 A 
ENDBRANCH  17  25
ENDBRANCH  16  18
ENDBRANCH   1  16
TORSDOF 3
ENDMDL
MODEL 5
REMARK VINA RESULT:      -8.6      1.498      1.850
REMARK  Name = 
REMARK  4 active torsions:
REMARK  status: ('A' for Active; 'I' for Inactive)
REMARK    1  A    between atoms: C_1  and  C_2
REMARK    2  A    between atoms: C_5  and  N_6
REMARK    3  A    between atoms: C_7  and  C_9
REMARK    4  A    between atoms: C_9  and  N_10
REMARK                            x       y       z     vdW  Elec       q    Type
REMARK                         _______ _______ _______ _____ _____    ______ ____
ROOT
ATOM      1  N   UNL     1       6.123   6.715  16.962  0.00  0.00    +0.000 NA
ATOM      2  C   UNL     1       6.909   5.688  16.261  0.00  0.00    +0.000 C 
ATOM      3  C   UNL     1       6.400   4.243  16.612  0.00  0.00    +0.000 C 
ATOM      4  C   UNL     1       5.181   4.221  17.527  0.00  0.00    +0.000 A 
ATOM      5  C   UNL     1       4.851   3.168  18.392  0.00  0.00    +0.000 A 
ATOM      6  C   UNL     1       3.660   3.227  19.142  0.00  0.00    +0.000 A 
ATOM      7  C   UNL     1       2.780   4.297  18.950  0.00  0.00    +0.000 A 
ATOM      8  C   UNL     1       3.150   5.390  18.198  0.00  0.00    +0.000 A 
ATOM      9  C   UNL     1       4.326   5.339  17.474  0.00  0.00    +0.000 A 
ATOM     10  C   UNL     1       4.721   6.508  16.638  0.00  0.00    +0.000 C 
ATOM     11  O   UNL     1       1.441   4.253  19.211  0.00  0.00    +0.000 OA
ATOM     12  C   UNL     1       1.127   4.274  20.587  0.00  0.00    +0.000 C 
ATOM     13  C   UNL     1       1.356   2.903  21.186  0.00  0.00    +0.000 C 
ATOM     14  C   UNL     1       2.848   2.597  21.254  0.00  0.00    +0.000 C 
ATOM     15  O   UNL     1       3.394   2.183  19.989  0.00  0.00    +0.000 OA
ENDROOT
BRANCH   1  16
ATOM     16  C   UNL     1       6.494   8.115  16.808  0.00  0.00    +0.000 C 
BRANCH  16  18
ATOM     17  N   UNL     1       8.033   9.826  17.640  0.00  0.00    +0.000 N 
ATOM     18  C   UNL     1       7.702   8.482  17.657  0.00  0.00    +0.000 C 
ATOM     19  O   UNL     1       8.317   7.578  18.233  0.00  0.00    +0.000 OA
ATOM     20  H   UNL     1       7.382  10.412  17.116  0.00  0.00    +0.000 HD
BRANCH  17  25
ATOM     21  C   UNL     1      12.333  12.461  20.373  0.00  0.00    +0.000 C 
ATOM     22  C   UNL     1      11.219  11.759  19.657  0.00  0.00    +0.000 A 
ATOM     23  C   UNL     1      10.166  11.206  20.381  0.00  0.00    +0.000 A 
ATOM     24  C   UNL     1       9.119  10.555  19.727  0.00  0.00    +0.000 A 
ATOM     25  C   UNL     1       9.094  10.443  18.335  0.00  0.00    +0.000 A 
ATOM     26  C   UNL     1      10.161  10.979  17.605  0.00  0.00    +0.000 A 
ATOM     27  C   UNL     1      11.214  11.637  18.261  0.00  0.00    +0.000 A 
ENDBRANCH  17  25
ENDBRANCH  16  18
ENDBRANCH   1  16
TORSDOF 3
ENDMDL
MODEL 6
REMARK VINA RESULT:      -8.6      5.995      8.575
REMARK  Name = 
REMARK  4 active torsions:
REMARK  status: ('A' for Active; 'I' for Inactive)
REMARK    1  A    between atoms: C_1  and  C_2
REMARK    2  A    between atoms: C_5  and  N_6
REMARK    3  A    between atoms: C_7  and  C_9
REMARK    4  A    between atoms: C_9  and  N_10
REMARK                            x       y       z     vdW  Elec       q    Type
REMARK                         _______ _______ _______ _____ _____    ______ ____
ROOT
ATOM      1  N   UNL     1       1.524   8.691  18.844  0.00  0.00    +0.000 NA
ATOM      2  C   UNL     1       1.123   8.922  20.240  0.00  0.00    +0.000 C 
ATOM      3  C   UNL     1       1.266   7.612  21.097  0.00  0.00    +0.000 C 
ATOM      4  C   UNL     1       1.846   6.430  20.329  0.00  0.00    +0.000 A 
ATOM      5  C   UNL     1       1.606   5.083  20.637  0.00  0.00    +0.000 A 
ATOM      6  C   UNL     1       2.252   4.072  19.899  0.00  0.00    +0.000 A 
ATOM      7  C   UNL     1       3.190   4.427  18.923  0.00  0.00    +0.000 A 
ATOM      8  C   UNL     1       3.342   5.738  18.533  0.00  0.00    +0.000 A 
ATOM      9  C   UNL     1       2.696   6.730  19.247  0.00  0.00    +0.000 A 
ATOM     10  C   UNL     1       2.875   8.154  18.846  0.00  0.00    +0.000 C 
ATOM     11  O   UNL     1       4.203   3.618  18.495  0.00  0.00    +0.000 OA
ATOM     12  C   UNL     1       3.777   2.560  17.664  0.00  0.00    +0.000 C 
ATOM     13  C   UNL     1       3.167   1.461  18.507  0.00  0.00    +0.000 C 
ATOM     14  C   UNL     1       1.827   1.912  19.079  0.00  0.00    +0.000 C 
ATOM     15  O   UNL     1       1.967   2.771  20.224  0.00  0.00    +0.000 OA
ENDROOT
BRANCH   1  16
ATOM     16  C   UNL     1       1.396   9.780  17.884  0.00  0.00    +0.000 C 
BRANCH  16  18
ATOM     17  N   UNL     1      -0.978  10.149  17.417  0.00  0.00    +0.000 N 
ATOM     18  C   UNL     1       0.133  10.597  18.112  0.00  0.00    +0.000 C 
ATOM     19  O   UNL     1       0.200  11.601  18.829  0.00  0.00    +0.000 OA
ATOM     20  H   UNL     1      -0.826   9.286  16.895  0.00  0.00    +0.000 HD
BRANCH  17  25
ATOM     21  C   UNL     1      -6.301  12.287  17.471  0.00  0.00    +0.000 C 
ATOM     22  C   UNL     1      -4.904  11.742  17.449  0.00  0.00    +0.000 A 
ATOM     23  C   UNL     1      -4.127  11.773  18.605  0.00  0.00    +0.000 A 
ATOM     24  C   UNL     1      -2.828  11.263  18.601  0.00  0.00    +0.000 A 
ATOM     25  C   UNL     1      -2.273  10.707  17.446  0.00  0.00    +0.000 A 
ATOM     26  C   UNL     1      -3.042  10.694  16.278  0.00  0.00    +0.000 A 
ATOM     27  C   UNL     1      -4.351  11.204  16.280  0.00  0.00    +0.000 A 
ENDBRANCH  17  25
ENDBRANCH  16  18
ENDBRANCH   1  16
TORSDOF 3
ENDMDL
MODEL 7
REMARK VINA RESULT:      -8.5      6.012      8.505
REMARK  Name = 
REMARK  4 active torsions:
REMARK  status: ('A' for Active; 'I' for Inactive)
REMARK    1  A    between atoms: C_1  and  C_2
REMARK    2  A    between atoms: C_5  and  N_6
REMARK    3  A    between atoms: C_7  and  C_9
REMARK    4  A    between atoms: C_9  and  N_10
REMARK                            x       y       z     vdW  Elec       q    Type
REMARK                         _______ _______ _______ _____ _____    ______ ____
ROOT
ATOM      1  N   UNL     1       1.807   8.483  20.476  0.00  0.00    +0.000 NA
ATOM      2  C   UNL     1       1.096   9.186  19.396  0.00  0.00    +0.000 C 
ATOM      3  C   UNL     1       1.697   8.824  17.990  0.00  0.00    +0.000 C 
ATOM      4  C   UNL     1       2.815   7.789  18.041  0.00  0.00    +0.000 A 
ATOM      5  C   UNL     1       3.840   7.674  17.092  0.00  0.00    +0.000 A 
ATOM      6  C   UNL     1       4.783   6.633  17.204  0.00  0.00    +0.000 A 
ATOM      7  C   UNL     1       4.633   5.678  18.215  0.00  0.00    +0.000 A 
ATOM      8  C   UNL     1       3.707   5.850  19.218  0.00  0.00    +0.000 A 
ATOM      9  C   UNL     1       2.792   6.880  19.117  0.00  0.00    +0.000 A 
ATOM     10  C   UNL     1       1.770   7.058  20.187  0.00  0.00    +0.000 C 
ATOM     11  O   UNL     1       5.138   4.410  18.160  0.00  0.00    +0.000 OA
ATOM     12  C   UNL     1       6.536   4.344  18.339  0.00  0.00    +0.000 C 
ATOM     13  C   UNL     1       7.236   4.748  17.059  0.00  0.00    +0.000 C 
ATOM     14  C   UNL     1       7.066   6.243  16.811  0.00  0.00    +0.000 C 
ATOM     15  O   UNL     1       5.779   6.578  16.263  0.00  0.00    +0.000 OA
ENDROOT
BRANCH   1  16
ATOM     16  C   UNL     1       1.429   8.745  21.858  0.00  0.00    +0.000 C 
BRANCH  16  18
ATOM     17  N   UNL     1      -0.086  10.663  21.979  0.00  0.00    +0.000 N 
ATOM     18  C   UNL     1       0.010   9.282  21.969  0.00  0.00    +0.000 C 
ATOM     19  O   UNL     1      -0.919   8.477  22.098  0.00  0.00    +0.000 OA
ATOM     20  H   UNL     1       0.802  11.146  21.839  0.00  0.00    +0.000 HD
BRANCH  17  25
ATOM     21  C   UNL     1      -4.834  13.847  22.450  0.00  0.00    +0.000 C 
ATOM     22  C   UNL     1      -3.603  13.001  22.327  0.00  0.00    +0.000 A 
ATOM     23  C   UNL     1      -2.964  12.878  21.095  0.00  0.00    +0.000 A 
ATOM     24  C   UNL     1      -1.812  12.099  20.967  0.00  0.00    +0.000 A 
ATOM     25  C   UNL     1      -1.268  11.427  22.064  0.00  0.00    +0.000 A 
ATOM     26  C   UNL     1      -1.919  11.531  23.299  0.00  0.00    +0.000 A 
ATOM     27  C   UNL     1      -3.076  12.317  23.430  0.00  0.00    +0.000 A 
ENDBRANCH  17  25
ENDBRANCH  16  18
ENDBRANCH   1  16
TORSDOF 3
ENDMDL
MODEL 8
REMARK VINA RESULT:      -8.4      2.439      3.368
REMARK  Name = 
REMARK  4 active torsions:
REMARK  status: ('A' for Active; 'I' for Inactive)
REMARK    1  A    between atoms: C_1  and  C_2
REMARK    2  A    between atoms: C_5  and  N_6
REMARK    3  A    between atoms: C_7  and  C_9
REMARK    4  A    between atoms: C_9  and  N_10
REMARK                            x       y       z     vdW  Elec       q    Type
REMARK                         _______ _______ _______ _____ _____    ______ ____
ROOT
ATOM      1  N   UNL     1       6.295   6.291  18.263  0.00  0.00    +0.000 NA
ATOM      2  C   UNL     1       6.078   4.937  18.796  0.00  0.00    +0.000 C 
ATOM      3  C   UNL     1       4.624   4.778  19.372  0.00  0.00    +0.000 C 
ATOM      4  C   UNL     1       3.748   6.013  19.192  0.00  0.00    +0.000 A 
ATOM      5  C   UNL     1       2.668   6.351  20.019  0.00  0.00    +0.000 A 
ATOM      6  C   UNL     1       1.884   7.482  19.716  0.00  0.00    +0.000 A 
ATOM      7  C   UNL     1       2.144   8.204  18.546  0.00  0.00    +0.000 A 
ATOM      8  C   UNL     1       3.271   7.953  17.796  0.00  0.00    +0.000 A 
ATOM      9  C   UNL     1       4.049   6.853  18.103  0.00  0.00    +0.000 A 
ATOM     10  C   UNL     1       5.257   6.560  17.281  0.00  0.00    +0.000 C 
ATOM     11  O   UNL     1       1.224   8.973  17.893  0.00  0.00    +0.000 OA
ATOM     12  C   UNL     1       0.929  10.188  18.547  0.00  0.00    +0.000 C 
ATOM     13  C   UNL     1      -0.011   9.932  19.705  0.00  0.00    +0.000 C 
ATOM     14  C   UNL     1       0.715   9.192  20.824  0.00  0.00    +0.000 C 
ATOM     15  O   UNL     1       0.853   7.783  20.568  0.00  0.00    +0.000 OA
ENDROOT
BRANCH   1  16
ATOM     16  C   UNL     1       7.609   6.644  17.744  0.00  0.00    +0.000 C 
BRANCH  16  18
ATOM     17  N   UNL     1       8.767   8.539  18.773  0.00  0.00    +0.000 N 
ATOM     18  C   UNL     1       7.862   8.143  17.803  0.00  0.00    +0.000 C 
ATOM     19  O   UNL     1       7.221   8.881  17.047  0.00  0.00    +0.000 OA
ATOM     20  H   UNL     1       9.203   7.768  19.280  0.00  0.00    +0.000 HD
BRANCH  17  25
ATOM     21  C   UNL     1      10.592  13.840  19.986  0.00  0.00    +0.000 C 
ATOM     22  C   UNL     1      10.099  12.460  19.671  0.00  0.00    +0.000 A 
ATOM     23  C   UNL     1      10.076  12.014  18.352  0.00  0.00    +0.000 A 
ATOM     24  C   UNL     1       9.626  10.729  18.044  0.00  0.00    +0.000 A 
ATOM     25  C   UNL     1       9.191   9.856  19.045  0.00  0.00    +0.000 A 
ATOM     26  C   UNL     1       9.193  10.308  20.369  0.00  0.00    +0.000 A 
ATOM     27  C   UNL     1       9.648  11.600  20.680  0.00  0.00    +0.000 A 
ENDBRANCH  17  25
ENDBRANCH  16  18
ENDBRANCH   1  16
TORSDOF 3
ENDMDL
MODEL 9
REMARK VINA RESULT:      -8.4      7.875     10.673
REMARK  Name = 
REMARK  4 active torsions:
REMARK  status: ('A' for Active; 'I' for Inactive)
REMARK    1  A    between atoms: C_1  and  C_2
REMARK    2  A    between atoms: C_5  and  N_6
REMARK    3  A    between atoms: C_7  and  C_9
REMARK    4  A    between atoms: C_9  and  N_10
REMARK                            x       y       z     vdW  Elec       q    Type
REMARK                         _______ _______ _______ _____ _____    ______ ____
ROOT
ATOM      1  N   UNL     1      -0.057  10.775  21.276  0.00  0.00    +0.000 NA
ATOM      2  C   UNL     1       0.210  11.400  19.971  0.00  0.00    +0.000 C 
ATOM      3  C   UNL     1      -0.983  12.323  19.528  0.00  0.00    +0.000 C 
ATOM      4  C   UNL     1      -2.102  12.425  20.558  0.00  0.00    +0.000 A 
ATOM      5  C   UNL     1      -3.442  12.709  20.254  0.00  0.00    +0.000 A 
ATOM      6  C   UNL     1      -4.379  12.848  21.296  0.00  0.00    +0.000 A 
ATOM      7  C   UNL     1      -3.944  12.784  22.624  0.00  0.00    +0.000 A 
ATOM      8  C   UNL     1      -2.662  12.388  22.930  0.00  0.00    +0.000 A 
ATOM      9  C   UNL     1      -1.745  12.237  21.907  0.00  0.00    +0.000 A 
ATOM     10  C   UNL     1      -0.348  11.832  22.231  0.00  0.00    +0.000 C 
ATOM     11  O   UNL     1      -4.595  13.358  23.679  0.00  0.00    +0.000 OA
ATOM     12  C   UNL     1      -5.773  12.681  24.059  0.00  0.00    +0.000 C 
ATOM     13  C   UNL     1      -6.892  13.022  23.098  0.00  0.00    +0.000 C 
ATOM     14  C   UNL     1      -6.638  12.379  21.739  0.00  0.00    +0.000 C 
ATOM     15  O   UNL     1      -5.680  13.103  20.947  0.00  0.00    +0.000 OA
ENDROOT
BRANCH   1  16
ATOM     16  C   UNL     1       0.913   9.833  21.819  0.00  0.00    +0.000 C 
BRANCH  16  18
ATOM     17  N   UNL     1       1.836   7.908  20.622  0.00  0.00    +0.000 N 
ATOM     18  C   UNL     1       0.723   8.432  21.258  0.00  0.00    +0.000 C 
ATOM     19  O   UNL     1      -0.389   7.902  21.353  0.00  0.00    +0.000 OA
ATOM     20  H   UNL     1       2.665   8.501  20.672  0.00  0.00    +0.000 HD
BRANCH  17  25
ATOM     21  C   UNL     1       2.424   2.777  18.125  0.00  0.00    +0.000 C 
ATOM     22  C   UNL     1       2.256   4.121  18.770  0.00  0.00    +0.000 A 
ATOM     23  C   UNL     1       1.831   4.209  20.093  0.00  0.00    +0.000 A 
ATOM     24  C   UNL     1       1.677   5.452  20.708  0.00  0.00    +0.000 A 
ATOM     25  C   UNL     1       1.945   6.638  20.020  0.00  0.00    +0.000 A 
ATOM     26  C   UNL     1       2.351   6.554  18.684  0.00  0.00    +0.000 A 
ATOM     27  C   UNL     1       2.510   5.303  18.064  0.00  0.00    +0.000 A 
ENDBRANCH  17  25
ENDBRANCH  16  18
ENDBRANCH   1  16
TORSDOF 3
ENDMDL
