MODEL 1
REMARK VINA RESULT:      -7.3      0.000      0.000
REMARK  Name = 
REMARK  9 active torsions:
REMARK  status: ('A' for Active; 'I' for Inactive)
REMARK    1  A    between atoms: C_1  and  C_2
REMARK    2  A    between atoms: C_2  and  O_3
REMARK    3  A    between atoms: O_3  and  C_4
REMARK    4  A    between atoms: C_7  and  C_8
REMARK    5  A    between atoms: C_8  and  C_10
REMARK    6  A    between atoms: C_10  and  O_11
REMARK    7  A    between atoms: O_11  and  C_12
REMARK    8  A    between atoms: C_12  and  C_14
REMARK    9  A    between atoms: C_20  and  C_21
REMARK                            x       y       z     vdW  Elec       q    Type
REMARK                         _______ _______ _______ _____ _____    ______ ____
ROOT
ATOM      1  O   UNL     1       3.164   1.597  19.438  0.00  0.00    +0.000 OA
ENDROOT
BRANCH   1   2
ATOM      2  C   UNL     1       4.307   2.195  19.908  0.00  0.00    +0.000 C 
ATOM      3  O   UNL     1       4.764   1.971  21.026  0.00  0.00    +0.000 OA
BRANCH   2   4
ATOM      4  C   UNL     1       4.901   3.150  18.943  0.00  0.00    +0.000 A 
ATOM      5  N   UNL     1       4.540   3.199  17.612  0.00  0.00    +0.000 NA
ATOM      6  C   UNL     1       5.284   4.155  17.105  0.00  0.00    +0.000 A 
ATOM      7  N   UNL     1       5.334   4.615  15.821  0.00  0.00    +0.000 NA
ATOM      8  C   UNL     1       6.185   5.568  15.592  0.00  0.00    +0.000 A 
ATOM      9  C   UNL     1       7.097   6.193  16.589  0.00  0.00    +0.000 A 
ATOM     10  C   UNL     1       7.013   5.718  17.845  0.00  0.00    +0.000 A 
ATOM     11  C   UNL     1       7.870   6.236  18.958  0.00  0.00    +0.000 C 
ATOM     12  N   UNL     1       6.097   4.689  18.116  0.00  0.00    +0.000 N 
ATOM     13  N   UNL     1       5.832   4.062  19.288  0.00  0.00    +0.000 NA
ENDBRANCH   2   4
ENDBRANCH   1   2
BRANCH   1  14
ATOM     14  C   UNL     1       1.961   2.027  20.085  0.00  0.00    +0.000 C 
BRANCH  14  15
ATOM     15  C   UNL     1       1.152   2.989  19.219  0.00  0.00    +0.000 C 
ATOM     16  O   UNL     1       0.177   2.618  18.566  0.00  0.00    +0.000 OA
BRANCH  15  20
ATOM     17  C   UNL     1       2.261   7.136  18.968  0.00  0.00    +0.000 A 
ATOM     18  C   UNL     1       2.174   6.340  17.827  0.00  0.00    +0.000 A 
ATOM     19  C   UNL     1       1.815   4.994  17.929  0.00  0.00    +0.000 A 
ATOM     20  C   UNL     1       1.542   4.428  19.179  0.00  0.00    +0.000 A 
ATOM     21  C   UNL     1       1.660   5.216  20.330  0.00  0.00    +0.000 A 
ATOM     22  C   UNL     1       2.028   6.567  20.221  0.00  0.00    +0.000 A 
BRANCH  17  23
ATOM     23  O   UNL     1       2.599   8.441  18.737  0.00  0.00    +0.000 OA
BRANCH  23  25
ATOM     24  C   UNL     1       0.612   9.752  18.603  0.00  0.00    +0.000 C 
ATOM     25  C   UNL     1       1.772   9.159  17.821  0.00  0.00    +0.000 C 
ENDBRANCH  23  25
ENDBRANCH  17  23
ENDBRANCH  15  20
ENDBRANCH  14  15
ENDBRANCH   1  14
TORSDOF 7
ENDMDL
MODEL 2
REMARK VINA RESULT:      -7.1      4.762      6.624
REMARK  Name = 
REMARK  9 active torsions:
REMARK  status: ('A' for Active; 'I' for Inactive)
REMARK    1  A    between atoms: C_1  and  C_2
REMARK    2  A    between atoms: C_2  and  O_3
REMARK    3  A    between atoms: O_3  and  C_4
REMARK    4  A    between atoms: C_7  and  C_8
REMARK    5  A    between atoms: C_8  and  C_10
REMARK    6  A    between atoms: C_10  and  O_11
REMARK    7  A    between atoms: O_11  and  C_12
REMARK    8  A    between atoms: C_12  and  C_14
REMARK    9  A    between atoms: C_20  and  C_21
REMARK                            x       y       z     vdW  Elec       q    Type
REMARK                         _______ _______ _______ _____ _____    ______ ____
ROOT
ATOM      1  O   UNL     1       7.256   7.877  17.077  0.00  0.00    +0.000 OA
ENDROOT
BRANCH   1   2
ATOM      2  C   UNL     1       8.109   8.124  18.124  0.00  0.00    +0.000 C 
ATOM      3  O   UNL     1       8.489   7.245  18.894  0.00  0.00    +0.000 OA
BRANCH   2   4
ATOM      4  C   UNL     1       8.489   9.551  18.238  0.00  0.00    +0.000 A 
ATOM      5  N   UNL     1       7.901  10.550  17.490  0.00  0.00    +0.000 NA
ATOM      6  C   UNL     1       8.508  11.649  17.873  0.00  0.00    +0.000 A 
ATOM      7  N   UNL     1       8.316  12.930  17.445  0.00  0.00    +0.000 NA
ATOM      8  C   UNL     1       9.077  13.831  17.989  0.00  0.00    +0.000 A 
ATOM      9  C   UNL     1      10.122  13.594  19.022  0.00  0.00    +0.000 A 
ATOM     10  C   UNL     1      10.277  12.319  19.424  0.00  0.00    +0.000 A 
ATOM     11  C   UNL     1      11.292  11.917  20.448  0.00  0.00    +0.000 C 
ATOM     12  N   UNL     1       9.462  11.329  18.850  0.00  0.00    +0.000 N 
ATOM     13  N   UNL     1       9.429   9.996  19.096  0.00  0.00    +0.000 NA
ENDBRANCH   2   4
ENDBRANCH   1   2
BRANCH   1  14
ATOM     14  C   UNL     1       6.792   6.524  16.997  0.00  0.00    +0.000 C 
BRANCH  14  15
ATOM     15  C   UNL     1       5.417   6.423  16.343  0.00  0.00    +0.000 C 
ATOM     16  O   UNL     1       5.198   6.855  15.211  0.00  0.00    +0.000 OA
BRANCH  15  20
ATOM     17  C   UNL     1       2.276   4.392  18.464  0.00  0.00    +0.000 A 
ATOM     18  C   UNL     1       3.167   3.695  17.650  0.00  0.00    +0.000 A 
ATOM     19  C   UNL     1       4.180   4.372  16.967  0.00  0.00    +0.000 A 
ATOM     20  C   UNL     1       4.308   5.761  17.088  0.00  0.00    +0.000 A 
ATOM     21  C   UNL     1       3.394   6.467  17.878  0.00  0.00    +0.000 A 
ATOM     22  C   UNL     1       2.374   5.781  18.558  0.00  0.00    +0.000 A 
BRANCH  17  23
ATOM     23  O   UNL     1       1.345   3.615  19.097  0.00  0.00    +0.000 OA
BRANCH  23  25
ATOM     24  C   UNL     1       1.922   3.112  21.354  0.00  0.00    +0.000 C 
ATOM     25  C   UNL     1       1.044   3.959  20.450  0.00  0.00    +0.000 C 
ENDBRANCH  23  25
ENDBRANCH  17  23
ENDBRANCH  15  20
ENDBRANCH  14  15
ENDBRANCH   1  14
TORSDOF 7
ENDMDL
MODEL 3
REMARK VINA RESULT:      -7.0      2.537      4.663
REMARK  Name = 
REMARK  9 active torsions:
REMARK  status: ('A' for Active; 'I' for Inactive)
REMARK    1  A    between atoms: C_1  and  C_2
REMARK    2  A    between atoms: C_2  and  O_3
REMARK    3  A    between atoms: O_3  and  C_4
REMARK    4  A    between atoms: C_7  and  C_8
REMARK    5  A    between atoms: C_8  and  C_10
REMARK    6  A    between atoms: C_10  and  O_11
REMARK    7  A    between atoms: O_11  and  C_12
REMARK    8  A    between atoms: C_12  and  C_14
REMARK    9  A    between atoms: C_20  and  C_21
REMARK                            x       y       z     vdW  Elec       q    Type
REMARK                         _______ _______ _______ _____ _____    ______ ____
ROOT
ATOM      1  O   UNL     1       5.998   5.575  18.224  0.00  0.00    +0.000 OA
ENDROOT
BRANCH   1   2
ATOM      2  C   UNL     1       7.071   4.918  17.676  0.00  0.00    +0.000 C 
ATOM      3  O   UNL     1       8.059   4.594  18.331  0.00  0.00    +0.000 OA
BRANCH   2   4
ATOM      4  C   UNL     1       6.921   4.674  16.223  0.00  0.00    +0.000 A 
ATOM      5  N   UNL     1       6.017   3.772  15.699  0.00  0.00    +0.000 NA
ATOM      6  C   UNL     1       6.196   3.845  14.401  0.00  0.00    +0.000 A 
ATOM      7  N   UNL     1       5.563   3.156  13.406  0.00  0.00    +0.000 NA
ATOM      8  C   UNL     1       5.956   3.415  12.196  0.00  0.00    +0.000 A 
ATOM      9  C   UNL     1       7.018   4.381  11.803  0.00  0.00    +0.000 A 
ATOM     10  C   UNL     1       7.614   5.046  12.810  0.00  0.00    +0.000 A 
ATOM     11  C   UNL     1       8.706   6.043  12.579  0.00  0.00    +0.000 C 
ATOM     12  N   UNL     1       7.203   4.783  14.127  0.00  0.00    +0.000 N 
ATOM     13  N   UNL     1       7.643   5.325  15.289  0.00  0.00    +0.000 NA
ENDBRANCH   2   4
ENDBRANCH   1   2
BRANCH   1  14
ATOM     14  C   UNL     1       5.602   6.756  17.518  0.00  0.00    +0.000 C 
BRANCH  14  15
ATOM     15  C   UNL     1       4.087   6.855  17.364  0.00  0.00    +0.000 C 
ATOM     16  O   UNL     1       3.560   7.610  16.546  0.00  0.00    +0.000 OA
BRANCH  15  20
ATOM     17  C   UNL     1       1.585   4.275  19.726  0.00  0.00    +0.000 A 
ATOM     18  C   UNL     1       1.922   3.952  18.412  0.00  0.00    +0.000 A 
ATOM     19  C   UNL     1       2.734   4.804  17.660  0.00  0.00    +0.000 A 
ATOM     20  C   UNL     1       3.215   5.995  18.215  0.00  0.00    +0.000 A 
ATOM     21  C   UNL     1       2.852   6.338  19.522  0.00  0.00    +0.000 A 
ATOM     22  C   UNL     1       2.029   5.480  20.272  0.00  0.00    +0.000 A 
BRANCH  17  23
ATOM     23  O   UNL     1       0.805   3.352  20.365  0.00  0.00    +0.000 OA
BRANCH  23  25
ATOM     24  C   UNL     1       2.707   2.395  21.436  0.00  0.00    +0.000 C 
ATOM     25  C   UNL     1       1.281   2.881  21.626  0.00  0.00    +0.000 C 
ENDBRANCH  23  25
ENDBRANCH  17  23
ENDBRANCH  15  20
ENDBRANCH  14  15
ENDBRANCH   1  14
TORSDOF 7
ENDMDL
MODEL 4
REMARK VINA RESULT:      -7.0      3.391      6.770
REMARK  Name = 
REMARK  9 active torsions:
REMARK  status: ('A' for Active; 'I' for Inactive)
REMARK    1  A    between atoms: C_1  and  C_2
REMARK    2  A    between atoms: C_2  and  O_3
REMARK    3  A    between atoms: O_3  and  C_4
REMARK    4  A    between atoms: C_7  and  C_8
REMARK    5  A    between atoms: C_8  and  C_10
REMARK    6  A    between atoms: C_10  and  O_11
REMARK    7  A    between atoms: O_11  and  C_12
REMARK    8  A    between atoms: C_12  and  C_14
REMARK    9  A    between atoms: C_20  and  C_21
REMARK                            x       y       z     vdW  Elec       q    Type
REMARK                         _______ _______ _______ _____ _____    ______ ____
ROOT
ATOM      1  O   UNL     1       6.821   6.613  18.428  0.00  0.00    +0.000 OA
ENDROOT
BRANCH   1   2
ATOM      2  C   UNL     1       6.677   5.626  19.371  0.00  0.00    +0.000 C 
ATOM      3  O   UNL     1       7.579   5.306  20.143  0.00  0.00    +0.000 OA
BRANCH   2   4
ATOM      4  C   UNL     1       5.346   4.979  19.335  0.00  0.00    +0.000 A 
ATOM      5  N   UNL     1       4.174   5.648  19.626  0.00  0.00    +0.000 NA
ATOM      6  C   UNL     1       3.235   4.740  19.490  0.00  0.00    +0.000 A 
ATOM      7  N   UNL     1       1.888   4.865  19.667  0.00  0.00    +0.000 NA
ATOM      8  C   UNL     1       1.188   3.787  19.482  0.00  0.00    +0.000 A 
ATOM      9  C   UNL     1       1.716   2.449  19.099  0.00  0.00    +0.000 A 
ATOM     10  C   UNL     1       3.048   2.368  18.927  0.00  0.00    +0.000 A 
ATOM     11  C   UNL     1       3.733   1.090  18.550  0.00  0.00    +0.000 C 
ATOM     12  N   UNL     1       3.824   3.522  19.120  0.00  0.00    +0.000 N 
ATOM     13  N   UNL     1       5.164   3.686  18.999  0.00  0.00    +0.000 NA
ENDBRANCH   2   4
ENDBRANCH   1   2
BRANCH   1  14
ATOM     14  C   UNL     1       7.225   6.145  17.137  0.00  0.00    +0.000 C 
BRANCH  14  15
ATOM     15  C   UNL     1       6.075   6.153  16.134  0.00  0.00    +0.000 C 
ATOM     16  O   UNL     1       5.104   6.899  16.258  0.00  0.00    +0.000 OA
BRANCH  15  20
ATOM     17  C   UNL     1       6.390   3.563  12.715  0.00  0.00    +0.000 A 
ATOM     18  C   UNL     1       7.402   4.468  13.033  0.00  0.00    +0.000 A 
ATOM     19  C   UNL     1       7.281   5.302  14.147  0.00  0.00    +0.000 A 
ATOM     20  C   UNL     1       6.138   5.243  14.953  0.00  0.00    +0.000 A 
ATOM     21  C   UNL     1       5.106   4.360  14.617  0.00  0.00    +0.000 A 
ATOM     22  C   UNL     1       5.232   3.528  13.492  0.00  0.00    +0.000 A 
BRANCH  17  23
ATOM     23  O   UNL     1       6.636   2.786  11.617  0.00  0.00    +0.000 OA
BRANCH  23  25
ATOM     24  C   UNL     1       6.257   0.480  11.143  0.00  0.00    +0.000 C 
ATOM     25  C   UNL     1       5.616   1.853  11.257  0.00  0.00    +0.000 C 
ENDBRANCH  23  25
ENDBRANCH  17  23
ENDBRANCH  15  20
ENDBRANCH  14  15
ENDBRANCH   1  14
TORSDOF 7
ENDMDL
MODEL 5
REMARK VINA RESULT:      -7.0      3.362      6.776
REMARK  Name = 
REMARK  9 active torsions:
REMARK  status: ('A' for Active; 'I' for Inactive)
REMARK    1  A    between atoms: C_1  and  C_2
REMARK    2  A    between atoms: C_2  and  O_3
REMARK    3  A    between atoms: O_3  and  C_4
REMARK    4  A    between atoms: C_7  and  C_8
REMARK    5  A    between atoms: C_8  and  C_10
REMARK    6  A    between atoms: C_10  and  O_11
REMARK    7  A    between atoms: O_11  and  C_12
REMARK    8  A    between atoms: C_12  and  C_14
REMARK    9  A    between atoms: C_20  and  C_21
REMARK                            x       y       z     vdW  Elec       q    Type
REMARK                         _______ _______ _______ _____ _____    ______ ____
ROOT
ATOM      1  O   UNL     1       7.038   5.013  17.849  0.00  0.00    +0.000 OA
ENDROOT
BRANCH   1   2
ATOM      2  C   UNL     1       6.677   5.106  19.171  0.00  0.00    +0.000 C 
ATOM      3  O   UNL     1       7.445   5.503  20.044  0.00  0.00    +0.000 OA
BRANCH   2   4
ATOM      4  C   UNL     1       5.290   4.653  19.426  0.00  0.00    +0.000 A 
ATOM      5  N   UNL     1       4.900   3.332  19.333  0.00  0.00    +0.000 NA
ATOM      6  C   UNL     1       3.620   3.346  19.622  0.00  0.00    +0.000 A 
ATOM      7  N   UNL     1       2.738   2.306  19.671  0.00  0.00    +0.000 NA
ATOM      8  C   UNL     1       1.512   2.613  19.969  0.00  0.00    +0.000 A 
ATOM      9  C   UNL     1       0.992   3.977  20.260  0.00  0.00    +0.000 A 
ATOM     10  C   UNL     1       1.893   4.975  20.210  0.00  0.00    +0.000 A 
ATOM     11  C   UNL     1       1.524   6.403  20.468  0.00  0.00    +0.000 C 
ATOM     12  N   UNL     1       3.225   4.665  19.891  0.00  0.00    +0.000 N 
ATOM     13  N   UNL     1       4.297   5.488  19.789  0.00  0.00    +0.000 NA
ENDBRANCH   2   4
ENDBRANCH   1   2
BRANCH   1  14
ATOM     14  C   UNL     1       7.016   6.257  17.139  0.00  0.00    +0.000 C 
BRANCH  14  15
ATOM     15  C   UNL     1       5.946   6.281  16.052  0.00  0.00    +0.000 C 
ATOM     16  O   UNL     1       5.004   7.074  16.078  0.00  0.00    +0.000 OA
BRANCH  15  20
ATOM     17  C   UNL     1       6.395   3.566  12.747  0.00  0.00    +0.000 A 
ATOM     18  C   UNL     1       7.414   4.450  13.101  0.00  0.00    +0.000 A 
ATOM     19  C   UNL     1       7.248   5.325  14.177  0.00  0.00    +0.000 A 
ATOM     20  C   UNL     1       6.055   5.330  14.908  0.00  0.00    +0.000 A 
ATOM     21  C   UNL     1       5.018   4.468  14.534  0.00  0.00    +0.000 A 
ATOM     22  C   UNL     1       5.188   3.594  13.448  0.00  0.00    +0.000 A 
BRANCH  17  23
ATOM     23  O   UNL     1       6.685   2.744  11.693  0.00  0.00    +0.000 OA
BRANCH  23  25
ATOM     24  C   UNL     1       6.273   0.461  11.145  0.00  0.00    +0.000 C 
ATOM     25  C   UNL     1       5.655   1.841  11.289  0.00  0.00    +0.000 C 
ENDBRANCH  23  25
ENDBRANCH  17  23
ENDBRANCH  15  20
ENDBRANCH  14  15
ENDBRANCH   1  14
TORSDOF 7
ENDMDL
MODEL 6
REMARK VINA RESULT:      -7.0      2.391      3.566
REMARK  Name = 
REMARK  9 active torsions:
REMARK  status: ('A' for Active; 'I' for Inactive)
REMARK    1  A    between atoms: C_1  and  C_2
REMARK    2  A    between atoms: C_2  and  O_3
REMARK    3  A    between atoms: O_3  and  C_4
REMARK    4  A    between atoms: C_7  and  C_8
REMARK    5  A    between atoms: C_8  and  C_10
REMARK    6  A    between atoms: C_10  and  O_11
REMARK    7  A    between atoms: O_11  and  C_12
REMARK    8  A    between atoms: C_12  and  C_14
REMARK    9  A    between atoms: C_20  and  C_21
REMARK                            x       y       z     vdW  Elec       q    Type
REMARK                         _______ _______ _______ _____ _____    ______ ____
ROOT
ATOM      1  O   UNL     1       4.548   3.030  17.528  0.00  0.00    +0.000 OA
ENDROOT
BRANCH   1   2
ATOM      2  C   UNL     1       5.440   4.072  17.486  0.00  0.00    +0.000 C 
ATOM      3  O   UNL     1       5.695   4.770  18.466  0.00  0.00    +0.000 OA
BRANCH   2   4
ATOM      4  C   UNL     1       6.029   4.279  16.143  0.00  0.00    +0.000 A 
ATOM      5  N   UNL     1       7.125   5.086  15.917  0.00  0.00    +0.000 NA
ATOM      6  C   UNL     1       7.327   5.011  14.622  0.00  0.00    +0.000 A 
ATOM      7  N   UNL     1       8.282   5.624  13.864  0.00  0.00    +0.000 NA
ATOM      8  C   UNL     1       8.237   5.384  12.589  0.00  0.00    +0.000 A 
ATOM      9  C   UNL     1       7.251   4.513  11.891  0.00  0.00    +0.000 A 
ATOM     10  C   UNL     1       6.330   3.921  12.673  0.00  0.00    +0.000 A 
ATOM     11  C   UNL     1       5.265   3.024  12.121  0.00  0.00    +0.000 C 
ATOM     12  N   UNL     1       6.362   4.165  14.055  0.00  0.00    +0.000 N 
ATOM     13  N   UNL     1       5.554   3.683  15.031  0.00  0.00    +0.000 NA
ENDBRANCH   2   4
ENDBRANCH   1   2
BRANCH   1  14
ATOM     14  C   UNL     1       3.618   3.088  18.615  0.00  0.00    +0.000 C 
BRANCH  14  15
ATOM     15  C   UNL     1       2.378   3.909  18.271  0.00  0.00    +0.000 C 
ATOM     16  O   UNL     1       1.523   3.502  17.484  0.00  0.00    +0.000 OA
BRANCH  15  20
ATOM     17  C   UNL     1       1.798   7.670  20.274  0.00  0.00    +0.000 A 
ATOM     18  C   UNL     1       1.494   6.462  20.900  0.00  0.00    +0.000 A 
ATOM     19  C   UNL     1       1.688   5.251  20.232  0.00  0.00    +0.000 A 
ATOM     20  C   UNL     1       2.184   5.235  18.924  0.00  0.00    +0.000 A 
ATOM     21  C   UNL     1       2.458   6.447  18.281  0.00  0.00    +0.000 A 
ATOM     22  C   UNL     1       2.256   7.663  18.955  0.00  0.00    +0.000 A 
BRANCH  17  23
ATOM     23  O   UNL     1       1.588   8.784  21.037  0.00  0.00    +0.000 OA
BRANCH  23  25
ATOM     24  C   UNL     1      -0.266  10.025  21.879  0.00  0.00    +0.000 C 
ATOM     25  C   UNL     1       0.517   9.639  20.636  0.00  0.00    +0.000 C 
ENDBRANCH  23  25
ENDBRANCH  17  23
ENDBRANCH  15  20
ENDBRANCH  14  15
ENDBRANCH   1  14
TORSDOF 7
ENDMDL
MODEL 7
REMARK VINA RESULT:      -6.9      3.271      6.854
REMARK  Name = 
REMARK  9 active torsions:
REMARK  status: ('A' for Active; 'I' for Inactive)
REMARK    1  A    between atoms: C_1  and  C_2
REMARK    2  A    between atoms: C_2  and  O_3
REMARK    3  A    between atoms: O_3  and  C_4
REMARK    4  A    between atoms: C_7  and  C_8
REMARK    5  A    between atoms: C_8  and  C_10
REMARK    6  A    between atoms: C_10  and  O_11
REMARK    7  A    between atoms: O_11  and  C_12
REMARK    8  A    between atoms: C_12  and  C_14
REMARK    9  A    between atoms: C_20  and  C_21
REMARK                            x       y       z     vdW  Elec       q    Type
REMARK                         _______ _______ _______ _____ _____    ______ ____
ROOT
ATOM      1  O   UNL     1       4.629   6.790  16.623  0.00  0.00    +0.000 OA
ENDROOT
BRANCH   1   2
ATOM      2  C   UNL     1       3.592   7.130  17.455  0.00  0.00    +0.000 C 
ATOM      3  O   UNL     1       3.163   8.278  17.548  0.00  0.00    +0.000 OA
BRANCH   2   4
ATOM      4  C   UNL     1       3.078   5.984  18.240  0.00  0.00    +0.000 A 
ATOM      5  N   UNL     1       2.349   6.134  19.403  0.00  0.00    +0.000 NA
ATOM      6  C   UNL     1       2.092   4.906  19.789  0.00  0.00    +0.000 A 
ATOM      7  N   UNL     1       1.405   4.476  20.887  0.00  0.00    +0.000 NA
ATOM      8  C   UNL     1       1.316   3.190  21.036  0.00  0.00    +0.000 A 
ATOM      9  C   UNL     1       1.888   2.158  20.129  0.00  0.00    +0.000 A 
ATOM     10  C   UNL     1       2.552   2.619  19.053  0.00  0.00    +0.000 A 
ATOM     11  C   UNL     1       3.193   1.708  18.053  0.00  0.00    +0.000 C 
ATOM     12  N   UNL     1       2.658   4.008  18.872  0.00  0.00    +0.000 N 
ATOM     13  N   UNL     1       3.263   4.700  17.876  0.00  0.00    +0.000 NA
ENDBRANCH   2   4
ENDBRANCH   1   2
BRANCH   1  14
ATOM     14  C   UNL     1       5.931   6.962  17.195  0.00  0.00    +0.000 C 
BRANCH  14  15
ATOM     15  C   UNL     1       6.874   5.816  16.841  0.00  0.00    +0.000 C 
ATOM     16  O   UNL     1       7.792   5.470  17.584  0.00  0.00    +0.000 OA
BRANCH  15  20
ATOM     17  C   UNL     1       6.381   3.744  13.105  0.00  0.00    +0.000 A 
ATOM     18  C   UNL     1       7.278   4.803  13.232  0.00  0.00    +0.000 A 
ATOM     19  C   UNL     1       7.423   5.465  14.453  0.00  0.00    +0.000 A 
ATOM     20  C   UNL     1       6.664   5.076  15.563  0.00  0.00    +0.000 A 
ATOM     21  C   UNL     1       5.739   4.036  15.429  0.00  0.00    +0.000 A 
ATOM     22  C   UNL     1       5.593   3.377  14.197  0.00  0.00    +0.000 A 
BRANCH  17  23
ATOM     23  O   UNL     1       6.346   3.162  11.868  0.00  0.00    +0.000 OA
BRANCH  23  25
ATOM     24  C   UNL     1       4.088   3.358  11.131  0.00  0.00    +0.000 C 
ATOM     25  C   UNL     1       5.183   2.396  11.557  0.00  0.00    +0.000 C 
ENDBRANCH  23  25
ENDBRANCH  17  23
ENDBRANCH  15  20
ENDBRANCH  14  15
ENDBRANCH   1  14
TORSDOF 7
ENDMDL
MODEL 8
REMARK VINA RESULT:      -6.9      0.958      1.393
REMARK  Name = 
REMARK  9 active torsions:
REMARK  status: ('A' for Active; 'I' for Inactive)
REMARK    1  A    between atoms: C_1  and  C_2
REMARK    2  A    between atoms: C_2  and  O_3
REMARK    3  A    between atoms: O_3  and  C_4
REMARK    4  A    between atoms: C_7  and  C_8
REMARK    5  A    between atoms: C_8  and  C_10
REMARK    6  A    between atoms: C_10  and  O_11
REMARK    7  A    between atoms: O_11  and  C_12
REMARK    8  A    between atoms: C_12  and  C_14
REMARK    9  A    between atoms: C_20  and  C_21
REMARK                            x       y       z     vdW  Elec       q    Type
REMARK                         _______ _______ _______ _____ _____    ______ ____
ROOT
ATOM      1  O   UNL     1       3.163   2.215  20.736  0.00  0.00    +0.000 OA
ENDROOT
BRANCH   1   2
ATOM      2  C   UNL     1       4.509   2.201  20.463  0.00  0.00    +0.000 C 
ATOM      3  O   UNL     1       5.315   1.551  21.125  0.00  0.00    +0.000 OA
BRANCH   2   4
ATOM      4  C   UNL     1       4.878   3.067  19.320  0.00  0.00    +0.000 A 
ATOM      5  N   UNL     1       4.310   2.947  18.068  0.00  0.00    +0.000 NA
ATOM      6  C   UNL     1       4.900   3.873  17.349  0.00  0.00    +0.000 A 
ATOM      7  N   UNL     1       4.717   4.186  16.033  0.00  0.00    +0.000 NA
ATOM      8  C   UNL     1       5.456   5.148  15.570  0.00  0.00    +0.000 A 
ATOM      9  C   UNL     1       6.468   5.927  16.334  0.00  0.00    +0.000 A 
ATOM     10  C   UNL     1       6.614   5.595  17.629  0.00  0.00    +0.000 A 
ATOM     11  C   UNL     1       7.598   6.279  18.528  0.00  0.00    +0.000 C 
ATOM     12  N   UNL     1       5.823   4.559  18.152  0.00  0.00    +0.000 N 
ATOM     13  N   UNL     1       5.788   4.058  19.411  0.00  0.00    +0.000 NA
ENDBRANCH   2   4
ENDBRANCH   1   2
BRANCH   1  14
ATOM     14  C   UNL     1       2.668   3.472  21.211  0.00  0.00    +0.000 C 
BRANCH  14  15
ATOM     15  C   UNL     1       1.604   4.060  20.288  0.00  0.00    +0.000 C 
ATOM     16  O   UNL     1       0.548   3.474  20.049  0.00  0.00    +0.000 OA
BRANCH  15  20
ATOM     17  C   UNL     1       2.288   7.972  18.638  0.00  0.00    +0.000 A 
ATOM     18  C   UNL     1       1.955   7.801  19.981  0.00  0.00    +0.000 A 
ATOM     19  C   UNL     1       1.735   6.523  20.498  0.00  0.00    +0.000 A 
ATOM     20  C   UNL     1       1.841   5.398  19.673  0.00  0.00    +0.000 A 
ATOM     21  C   UNL     1       2.142   5.568  18.317  0.00  0.00    +0.000 A 
ATOM     22  C   UNL     1       2.357   6.857  17.801  0.00  0.00    +0.000 A 
BRANCH  17  23
ATOM     23  O   UNL     1       2.502   9.268  18.257  0.00  0.00    +0.000 OA
BRANCH  23  25
ATOM     24  C   UNL     1       1.308  11.268  18.760  0.00  0.00    +0.000 C 
ATOM     25  C   UNL     1       1.346  10.022  17.892  0.00  0.00    +0.000 C 
ENDBRANCH  23  25
ENDBRANCH  17  23
ENDBRANCH  15  20
ENDBRANCH  14  15
ENDBRANCH   1  14
TORSDOF 7
ENDMDL
MODEL 9
REMARK VINA RESULT:      -6.9      3.467      6.911
REMARK  Name = 
REMARK  9 active torsions:
REMARK  status: ('A' for Active; 'I' for Inactive)
REMARK    1  A    between atoms: C_1  and  C_2
REMARK    2  A    between atoms: C_2  and  O_3
REMARK    3  A    between atoms: O_3  and  C_4
REMARK    4  A    between atoms: C_7  and  C_8
REMARK    5  A    between atoms: C_8  and  C_10
REMARK    6  A    between atoms: C_10  and  O_11
REMARK    7  A    between atoms: O_11  and  C_12
REMARK    8  A    between atoms: C_12  and  C_14
REMARK    9  A    between atoms: C_20  and  C_21
REMARK                            x       y       z     vdW  Elec       q    Type
REMARK                         _______ _______ _______ _____ _____    ______ ____
ROOT
ATOM      1  O   UNL     1       6.907   6.175  18.272  0.00  0.00    +0.000 OA
ENDROOT
BRANCH   1   2
ATOM      2  C   UNL     1       6.748   5.434  19.417  0.00  0.00    +0.000 C 
ATOM      3  O   UNL     1       7.634   5.318  20.262  0.00  0.00    +0.000 OA
BRANCH   2   4
ATOM      4  C   UNL     1       5.425   4.774  19.503  0.00  0.00    +0.000 A 
ATOM      5  N   UNL     1       5.220   3.451  19.169  0.00  0.00    +0.000 NA
ATOM      6  C   UNL     1       3.938   3.256  19.372  0.00  0.00    +0.000 A 
ATOM      7  N   UNL     1       3.201   2.122  19.190  0.00  0.00    +0.000 NA
ATOM      8  C   UNL     1       1.934   2.218  19.454  0.00  0.00    +0.000 A 
ATOM      9  C   UNL     1       1.224   3.436  19.930  0.00  0.00    +0.000 A 
ATOM     10  C   UNL     1       1.984   4.533  20.104  0.00  0.00    +0.000 A 
ATOM     11  C   UNL     1       1.417   5.839  20.568  0.00  0.00    +0.000 C 
ATOM     12  N   UNL     1       3.358   4.450  19.827  0.00  0.00    +0.000 N 
ATOM     13  N   UNL     1       4.314   5.406  19.931  0.00  0.00    +0.000 NA
ENDBRANCH   2   4
ENDBRANCH   1   2
BRANCH   1  14
ATOM     14  C   UNL     1       7.182   5.402  17.098  0.00  0.00    +0.000 C 
BRANCH  14  15
ATOM     15  C   UNL     1       6.325   5.831  15.910  0.00  0.00    +0.000 C 
ATOM     16  O   UNL     1       5.591   6.818  15.956  0.00  0.00    +0.000 OA
BRANCH  15  20
ATOM     17  C   UNL     1       6.395   3.528  12.280  0.00  0.00    +0.000 A 
ATOM     18  C   UNL     1       5.312   3.466  13.155  0.00  0.00    +0.000 A 
ATOM     19  C   UNL     1       5.308   4.220  14.330  0.00  0.00    +0.000 A 
ATOM     20  C   UNL     1       6.395   5.043  14.646  0.00  0.00    +0.000 A 
ATOM     21  C   UNL     1       7.498   5.082  13.786  0.00  0.00    +0.000 A 
ATOM     22  C   UNL     1       7.499   4.316  12.608  0.00  0.00    +0.000 A 
BRANCH  17  23
ATOM     23  O   UNL     1       6.271   2.763  11.153  0.00  0.00    +0.000 OA
BRANCH  23  25
ATOM     24  C   UNL     1       6.420   0.383  11.164  0.00  0.00    +0.000 C 
ATOM     25  C   UNL     1       5.486   1.576  11.274  0.00  0.00    +0.000 C 
ENDBRANCH  23  25
ENDBRANCH  17  23
ENDBRANCH  15  20
ENDBRANCH  14  15
ENDBRANCH   1  14
TORSDOF 7
ENDMDL
