MODEL 1
REMARK VINA RESULT:      -7.9      0.000      0.000
REMARK  Name = 
REMARK  2 active torsions:
REMARK  status: ('A' for Active; 'I' for Inactive)
REMARK    1  A    between atoms: C_7  and  C_8
REMARK    2  A    between atoms: N_10  and  C_11
REMARK                            x       y       z     vdW  Elec       q    Type
REMARK                         _______ _______ _______ _____ _____    ______ ____
ROOT
ATOM      1  C   UNL     1       2.441   4.844  18.304  0.00  0.00    +0.000 C 
ATOM      2  O   UNL     1       1.411   4.819  17.642  0.00  0.00    +0.000 OA
ATOM      3  N   UNL     1       2.802   5.957  19.036  0.00  0.00    +0.000 N 
ATOM      4  H   UNL     1       3.550   5.875  19.715  0.00  0.00    +0.000 HD
ENDROOT
BRANCH   1  11
ATOM      5  N   UNL     1       7.843   4.451  16.335  0.00  0.00    +0.000 N 
ATOM      6  C   UNL     1       7.400   4.594  17.605  0.00  0.00    +0.000 C 
ATOM      7  O   UNL     1       8.216   4.634  18.524  0.00  0.00    +0.000 OA
ATOM      8  N   UNL     1       6.040   4.678  17.761  0.00  0.00    +0.000 N 
ATOM      9  C   UNL     1       5.484   4.921  19.087  0.00  0.00    +0.000 C 
ATOM     10  C   UNL     1       4.484   3.832  19.470  0.00  0.00    +0.000 C 
ATOM     11  C   UNL     1       3.402   3.651  18.393  0.00  0.00    +0.000 C 
ATOM     12  C   UNL     1       4.068   3.405  17.030  0.00  0.00    +0.000 C 
ATOM     13  C   UNL     1       5.067   4.509  16.682  0.00  0.00    +0.000 C 
ATOM     14  H   UNL     1       8.848   4.496  16.266  0.00  0.00    +0.000 HD
ATOM     15  H   UNL     1       7.366   5.010  15.641  0.00  0.00    +0.000 HD
ENDBRANCH   1  11
BRANCH   3  16
ATOM     16  C   UNL     1       1.957   7.152  19.031  0.00  0.00    +0.000 C 
ATOM     17  C   UNL     1       2.485   8.216  18.061  0.00  0.00    +0.000 C 
ATOM     18  C   UNL     1       1.483   9.369  17.933  0.00  0.00    +0.000 C 
ATOM     19  C   UNL     1       0.998   9.829  19.265  0.00  0.00    +0.000 A 
ATOM     20  N   UNL     1       0.392  10.963  19.544  0.00  0.00    +0.000 NA
ATOM     21  C   UNL     1       0.136  10.923  20.891  0.00  0.00    +0.000 A 
ATOM     22  C   UNL     1       0.587   9.746  21.441  0.00  0.00    +0.000 A 
ATOM     23  N   UNL     1       1.119   9.053  20.393  0.00  0.00    +0.000 N 
ATOM     24  C   UNL     1       1.769   7.758  20.438  0.00  0.00    +0.000 C 
ENDBRANCH   3  16
TORSDOF 2
ENDMDL
MODEL 2
REMARK VINA RESULT:      -7.8      1.141      1.234
REMARK  Name = 
REMARK  2 active torsions:
REMARK  status: ('A' for Active; 'I' for Inactive)
REMARK    1  A    between atoms: C_7  and  C_8
REMARK    2  A    between atoms: N_10  and  C_11
REMARK                            x       y       z     vdW  Elec       q    Type
REMARK                         _______ _______ _______ _____ _____    ______ ____
ROOT
ATOM      1  C   UNL     1       2.866   5.155  18.968  0.00  0.00    +0.000 C 
ATOM      2  O   UNL     1       1.722   4.750  18.802  0.00  0.00    +0.000 OA
ATOM      3  N   UNL     1       3.141   6.499  19.123  0.00  0.00    +0.000 N 
ATOM      4  H   UNL     1       4.060   6.777  19.445  0.00  0.00    +0.000 HD
ENDROOT
BRANCH   1  11
ATOM      5  N   UNL     1       6.385   3.547  14.698  0.00  0.00    +0.000 N 
ATOM      6  C   UNL     1       6.604   4.419  15.709  0.00  0.00    +0.000 C 
ATOM      7  O   UNL     1       7.700   4.971  15.799  0.00  0.00    +0.000 OA
ATOM      8  N   UNL     1       5.556   4.612  16.573  0.00  0.00    +0.000 N 
ATOM      9  C   UNL     1       5.678   5.601  17.637  0.00  0.00    +0.000 C 
ATOM     10  C   UNL     1       5.420   4.969  19.004  0.00  0.00    +0.000 C 
ATOM     11  C   UNL     1       4.079   4.219  19.037  0.00  0.00    +0.000 C 
ATOM     12  C   UNL     1       4.029   3.203  17.884  0.00  0.00    +0.000 C 
ATOM     13  C   UNL     1       4.299   3.866  16.534  0.00  0.00    +0.000 C 
ATOM     14  H   UNL     1       7.147   3.519  14.037  0.00  0.00    +0.000 HD
ATOM     15  H   UNL     1       5.476   3.605  14.261  0.00  0.00    +0.000 HD
ENDBRANCH   1  11
BRANCH   3  16
ATOM     16  C   UNL     1       2.059   7.485  19.082  0.00  0.00    +0.000 C 
ATOM     17  C   UNL     1       2.369   8.625  18.104  0.00  0.00    +0.000 C 
ATOM     18  C   UNL     1       1.146   9.535  17.938  0.00  0.00    +0.000 C 
ATOM     19  C   UNL     1       0.545   9.896  19.252  0.00  0.00    +0.000 A 
ATOM     20  N   UNL     1      -0.297  10.877  19.500  0.00  0.00    +0.000 NA
ATOM     21  C   UNL     1      -0.568  10.800  20.843  0.00  0.00    +0.000 A 
ATOM     22  C   UNL     1       0.113   9.754  21.421  0.00  0.00    +0.000 A 
ATOM     23  N   UNL     1       0.803   9.178  20.395  0.00  0.00    +0.000 N 
ATOM     24  C   UNL     1       1.715   8.053  20.474  0.00  0.00    +0.000 C 
ENDBRANCH   3  16
TORSDOF 2
ENDMDL
MODEL 3
REMARK VINA RESULT:      -7.0      1.432      1.637
REMARK  Name = 
REMARK  2 active torsions:
REMARK  status: ('A' for Active; 'I' for Inactive)
REMARK    1  A    between atoms: C_7  and  C_8
REMARK    2  A    between atoms: N_10  and  C_11
REMARK                            x       y       z     vdW  Elec       q    Type
REMARK                         _______ _______ _______ _____ _____    ______ ____
ROOT
ATOM      1  C   UNL     1       2.883   5.691  17.836  0.00  0.00    +0.000 C 
ATOM      2  O   UNL     1       1.887   5.073  18.190  0.00  0.00    +0.000 OA
ATOM      3  N   UNL     1       2.968   7.062  17.972  0.00  0.00    +0.000 N 
ATOM      4  H   UNL     1       3.869   7.511  17.849  0.00  0.00    +0.000 HD
ENDROOT
BRANCH   1  11
ATOM      5  N   UNL     1       8.440   6.963  18.682  0.00  0.00    +0.000 N 
ATOM      6  C   UNL     1       7.712   5.930  19.166  0.00  0.00    +0.000 C 
ATOM      7  O   UNL     1       8.259   5.094  19.882  0.00  0.00    +0.000 OA
ATOM      8  N   UNL     1       6.390   5.903  18.799  0.00  0.00    +0.000 N 
ATOM      9  C   UNL     1       5.515   4.874  19.347  0.00  0.00    +0.000 C 
ATOM     10  C   UNL     1       4.835   4.082  18.232  0.00  0.00    +0.000 C 
ATOM     11  C   UNL     1       4.118   5.007  17.236  0.00  0.00    +0.000 C 
ATOM     12  C   UNL     1       5.105   6.062  16.710  0.00  0.00    +0.000 C 
ATOM     13  C   UNL     1       5.772   6.830  17.851  0.00  0.00    +0.000 C 
ATOM     14  H   UNL     1       9.374   6.992  19.062  0.00  0.00    +0.000 HD
ATOM     15  H   UNL     1       7.977   7.861  18.684  0.00  0.00    +0.000 HD
ENDBRANCH   1  11
BRANCH   3  16
ATOM     16  C   UNL     1       1.852   7.820  18.539  0.00  0.00    +0.000 C 
ATOM     17  C   UNL     1       1.737   9.215  17.911  0.00  0.00    +0.000 C 
ATOM     18  C   UNL     1       0.453   9.909  18.381  0.00  0.00    +0.000 C 
ATOM     19  C   UNL     1       0.274   9.799  19.856  0.00  0.00    +0.000 A 
ATOM     20  N   UNL     1      -0.523  10.518  20.618  0.00  0.00    +0.000 NA
ATOM     21  C   UNL     1      -0.344  10.041  21.892  0.00  0.00    +0.000 A 
ATOM     22  C   UNL     1       0.570   9.014  21.907  0.00  0.00    +0.000 A 
ATOM     23  N   UNL     1       0.943   8.860  20.604  0.00  0.00    +0.000 N 
ATOM     24  C   UNL     1       1.923   7.930  20.076  0.00  0.00    +0.000 C 
ENDBRANCH   3  16
TORSDOF 2
ENDMDL
MODEL 4
REMARK VINA RESULT:      -6.9      0.897      1.574
REMARK  Name = 
REMARK  2 active torsions:
REMARK  status: ('A' for Active; 'I' for Inactive)
REMARK    1  A    between atoms: C_7  and  C_8
REMARK    2  A    between atoms: N_10  and  C_11
REMARK                            x       y       z     vdW  Elec       q    Type
REMARK                         _______ _______ _______ _____ _____    ______ ____
ROOT
ATOM      1  C   UNL     1       2.672   5.466  18.708  0.00  0.00    +0.000 C 
ATOM      2  O   UNL     1       1.887   5.921  17.886  0.00  0.00    +0.000 OA
ATOM      3  N   UNL     1       2.930   6.118  19.897  0.00  0.00    +0.000 N 
ATOM      4  H   UNL     1       3.431   5.625  20.628  0.00  0.00    +0.000 HD
ENDROOT
BRANCH   1  11
ATOM      5  N   UNL     1       7.612   4.536  15.891  0.00  0.00    +0.000 N 
ATOM      6  C   UNL     1       7.375   4.562  17.223  0.00  0.00    +0.000 C 
ATOM      7  O   UNL     1       8.301   4.345  18.002  0.00  0.00    +0.000 OA
ATOM      8  N   UNL     1       6.083   4.830  17.597  0.00  0.00    +0.000 N 
ATOM      9  C   UNL     1       5.760   4.963  19.013  0.00  0.00    +0.000 C 
ATOM     10  C   UNL     1       4.647   3.996  19.414  0.00  0.00    +0.000 C 
ATOM     11  C   UNL     1       3.416   4.140  18.505  0.00  0.00    +0.000 C 
ATOM     12  C   UNL     1       3.841   3.992  17.035  0.00  0.00    +0.000 C 
ATOM     13  C   UNL     1       4.960   4.968  16.670  0.00  0.00    +0.000 C 
ATOM     14  H   UNL     1       8.592   4.436  15.673  0.00  0.00    +0.000 HD
ATOM     15  H   UNL     1       7.151   5.255  15.352  0.00  0.00    +0.000 HD
ENDBRANCH   1  11
BRANCH   3  16
ATOM     16  C   UNL     1       2.271   7.389  20.202  0.00  0.00    +0.000 C 
ATOM     17  C   UNL     1       0.956   7.178  20.963  0.00  0.00    +0.000 C 
ATOM     18  C   UNL     1       0.389   8.522  21.435  0.00  0.00    +0.000 C 
ATOM     19  C   UNL     1       0.402   9.539  20.346  0.00  0.00    +0.000 A 
ATOM     20  N   UNL     1      -0.272  10.669  20.303  0.00  0.00    +0.000 NA
ATOM     21  C   UNL     1       0.075  11.261  19.116  0.00  0.00    +0.000 A 
ATOM     22  C   UNL     1       0.978  10.485  18.427  0.00  0.00    +0.000 A 
ATOM     23  N   UNL     1       1.189   9.402  19.228  0.00  0.00    +0.000 N 
ATOM     24  C   UNL     1       2.031   8.254  18.947  0.00  0.00    +0.000 C 
ENDBRANCH   3  16
TORSDOF 2
ENDMDL
MODEL 5
REMARK VINA RESULT:      -6.8      2.644      3.741
REMARK  Name = 
REMARK  2 active torsions:
REMARK  status: ('A' for Active; 'I' for Inactive)
REMARK    1  A    between atoms: C_7  and  C_8
REMARK    2  A    between atoms: N_10  and  C_11
REMARK                            x       y       z     vdW  Elec       q    Type
REMARK                         _______ _______ _______ _____ _____    ______ ____
ROOT
ATOM      1  C   UNL     1       2.063   7.150  19.795  0.00  0.00    +0.000 C 
ATOM      2  O   UNL     1       2.041   6.620  20.898  0.00  0.00    +0.000 OA
ATOM      3  N   UNL     1       1.624   8.445  19.605  0.00  0.00    +0.000 N 
ATOM      4  H   UNL     1       1.833   8.910  18.730  0.00  0.00    +0.000 HD
ENDROOT
BRANCH   1  11
ATOM      5  N   UNL     1       4.917   2.156  19.452  0.00  0.00    +0.000 N 
ATOM      6  C   UNL     1       3.631   2.433  19.138  0.00  0.00    +0.000 C 
ATOM      7  O   UNL     1       2.916   1.538  18.691  0.00  0.00    +0.000 OA
ATOM      8  N   UNL     1       3.228   3.728  19.346  0.00  0.00    +0.000 N 
ATOM      9  C   UNL     1       1.834   4.089  19.117  0.00  0.00    +0.000 C 
ATOM     10  C   UNL     1       1.724   5.242  18.120  0.00  0.00    +0.000 C 
ATOM     11  C   UNL     1       2.591   6.440  18.541  0.00  0.00    +0.000 C 
ATOM     12  C   UNL     1       4.038   5.974  18.767  0.00  0.00    +0.000 C 
ATOM     13  C   UNL     1       4.111   4.816  19.762  0.00  0.00    +0.000 C 
ATOM     14  H   UNL     1       5.133   1.173  19.376  0.00  0.00    +0.000 HD
ATOM     15  H   UNL     1       5.259   2.579  20.303  0.00  0.00    +0.000 HD
ENDBRANCH   1  11
BRANCH   3  16
ATOM     16  C   UNL     1       1.106   9.222  20.732  0.00  0.00    +0.000 C 
ATOM     17  C   UNL     1      -0.144   8.574  21.342  0.00  0.00    +0.000 C 
ATOM     18  C   UNL     1      -0.550   9.299  22.629  0.00  0.00    +0.000 C 
ATOM     19  C   UNL     1      -0.557  10.778  22.451  0.00  0.00    +0.000 A 
ATOM     20  N   UNL     1      -1.136  11.672  23.225  0.00  0.00    +0.000 NA
ATOM     21  C   UNL     1      -0.856  12.889  22.658  0.00  0.00    +0.000 A 
ATOM     22  C   UNL     1      -0.090  12.737  21.525  0.00  0.00    +0.000 A 
ATOM     23  N   UNL     1       0.106  11.392  21.415  0.00  0.00    +0.000 N 
ATOM     24  C   UNL     1       0.818  10.693  20.362  0.00  0.00    +0.000 C 
ENDBRANCH   3  16
TORSDOF 2
ENDMDL
MODEL 6
REMARK VINA RESULT:      -6.8      1.311      1.820
REMARK  Name = 
REMARK  2 active torsions:
REMARK  status: ('A' for Active; 'I' for Inactive)
REMARK    1  A    between atoms: C_7  and  C_8
REMARK    2  A    between atoms: N_10  and  C_11
REMARK                            x       y       z     vdW  Elec       q    Type
REMARK                         _______ _______ _______ _____ _____    ______ ____
ROOT
ATOM      1  C   UNL     1       2.995   5.500  19.452  0.00  0.00    +0.000 C 
ATOM      2  O   UNL     1       3.024   5.428  20.675  0.00  0.00    +0.000 OA
ATOM      3  N   UNL     1       2.575   6.644  18.806  0.00  0.00    +0.000 N 
ATOM      4  H   UNL     1       2.744   6.735  17.810  0.00  0.00    +0.000 HD
ENDROOT
BRANCH   1  11
ATOM      5  N   UNL     1       7.297   5.421  15.618  0.00  0.00    +0.000 N 
ATOM      6  C   UNL     1       7.225   4.845  16.841  0.00  0.00    +0.000 C 
ATOM      7  O   UNL     1       8.175   4.177  17.246  0.00  0.00    +0.000 OA
ATOM      8  N   UNL     1       6.063   5.058  17.537  0.00  0.00    +0.000 N 
ATOM      9  C   UNL     1       5.939   4.547  18.897  0.00  0.00    +0.000 C 
ATOM     10  C   UNL     1       4.712   3.646  19.033  0.00  0.00    +0.000 C 
ATOM     11  C   UNL     1       3.437   4.347  18.540  0.00  0.00    +0.000 C 
ATOM     12  C   UNL     1       3.651   4.860  17.107  0.00  0.00    +0.000 C 
ATOM     13  C   UNL     1       4.890   5.750  17.005  0.00  0.00    +0.000 C 
ATOM     14  H   UNL     1       8.207   5.319  15.193  0.00  0.00    +0.000 HD
ATOM     15  H   UNL     1       6.926   6.359  15.556  0.00  0.00    +0.000 HD
ENDBRANCH   1  11
BRANCH   3  16
ATOM     16  C   UNL     1       2.137   7.811  19.575  0.00  0.00    +0.000 C 
ATOM     17  C   UNL     1       1.086   7.434  20.627  0.00  0.00    +0.000 C 
ATOM     18  C   UNL     1       0.789   8.630  21.539  0.00  0.00    +0.000 C 
ATOM     19  C   UNL     1       0.568   9.879  20.758  0.00  0.00    +0.000 A 
ATOM     20  N   UNL     1       0.004  10.992  21.177  0.00  0.00    +0.000 NA
ATOM     21  C   UNL     1       0.039  11.849  20.106  0.00  0.00    +0.000 A 
ATOM     22  C   UNL     1       0.638  11.254  19.021  0.00  0.00    +0.000 A 
ATOM     23  N   UNL     1       0.984  10.008  19.454  0.00  0.00    +0.000 N 
ATOM     24  C   UNL     1       1.613   8.954  18.681  0.00  0.00    +0.000 C 
ENDBRANCH   3  16
TORSDOF 2
ENDMDL
MODEL 7
REMARK VINA RESULT:      -6.6      2.925      3.950
REMARK  Name = 
REMARK  2 active torsions:
REMARK  status: ('A' for Active; 'I' for Inactive)
REMARK    1  A    between atoms: C_7  and  C_8
REMARK    2  A    between atoms: N_10  and  C_11
REMARK                            x       y       z     vdW  Elec       q    Type
REMARK                         _______ _______ _______ _____ _____    ______ ____
ROOT
ATOM      1  C   UNL     1       2.163   7.249  19.777  0.00  0.00    +0.000 C 
ATOM      2  O   UNL     1       1.940   7.762  18.688  0.00  0.00    +0.000 OA
ATOM      3  N   UNL     1       1.548   7.700  20.928  0.00  0.00    +0.000 N 
ATOM      4  H   UNL     1       1.608   7.137  21.768  0.00  0.00    +0.000 HD
ENDROOT
BRANCH   1  11
ATOM      5  N   UNL     1       1.107   1.648  18.931  0.00  0.00    +0.000 N 
ATOM      6  C   UNL     1       1.820   2.512  18.171  0.00  0.00    +0.000 C 
ATOM      7  O   UNL     1       2.363   2.103  17.147  0.00  0.00    +0.000 OA
ATOM      8  N   UNL     1       1.879   3.804  18.628  0.00  0.00    +0.000 N 
ATOM      9  C   UNL     1       2.552   4.818  17.824  0.00  0.00    +0.000 C 
ATOM     10  C   UNL     1       3.651   5.512  18.626  0.00  0.00    +0.000 C 
ATOM     11  C   UNL     1       3.119   6.063  19.959  0.00  0.00    +0.000 C 
ATOM     12  C   UNL     1       2.422   4.937  20.740  0.00  0.00    +0.000 C 
ATOM     13  C   UNL     1       1.335   4.260  19.907  0.00  0.00    +0.000 C 
ATOM     14  H   UNL     1       1.011   0.740  18.500  0.00  0.00    +0.000 HD
ATOM     15  H   UNL     1       0.242   2.009  19.307  0.00  0.00    +0.000 HD
ENDBRANCH   1  11
BRANCH   3  16
ATOM     16  C   UNL     1       0.610   8.824  20.874  0.00  0.00    +0.000 C 
ATOM     17  C   UNL     1       1.209  10.028  20.136  0.00  0.00    +0.000 C 
ATOM     18  C   UNL     1       0.145  11.111  19.928  0.00  0.00    +0.000 C 
ATOM     19  C   UNL     1      -0.622  11.378  21.176  0.00  0.00    +0.000 A 
ATOM     20  N   UNL     1      -1.374  12.426  21.441  0.00  0.00    +0.000 NA
ATOM     21  C   UNL     1      -1.874  12.213  22.701  0.00  0.00    +0.000 A 
ATOM     22  C   UNL     1      -1.425  11.016  23.210  0.00  0.00    +0.000 A 
ATOM     23  N   UNL     1      -0.644  10.489  22.224  0.00  0.00    +0.000 N 
ATOM     24  C   UNL     1       0.106   9.248  22.269  0.00  0.00    +0.000 C 
ENDBRANCH   3  16
TORSDOF 2
ENDMDL
MODEL 8
REMARK VINA RESULT:      -6.5      2.102      2.684
REMARK  Name = 
REMARK  2 active torsions:
REMARK  status: ('A' for Active; 'I' for Inactive)
REMARK    1  A    between atoms: C_7  and  C_8
REMARK    2  A    between atoms: N_10  and  C_11
REMARK                            x       y       z     vdW  Elec       q    Type
REMARK                         _______ _______ _______ _____ _____    ______ ____
ROOT
ATOM      1  C   UNL     1       2.648   6.136  17.907  0.00  0.00    +0.000 C 
ATOM      2  O   UNL     1       1.523   5.653  17.903  0.00  0.00    +0.000 OA
ATOM      3  N   UNL     1       2.880   7.425  18.342  0.00  0.00    +0.000 N 
ATOM      4  H   UNL     1       3.834   7.722  18.510  0.00  0.00    +0.000 HD
ENDROOT
BRANCH   1  11
ATOM      5  N   UNL     1       5.189   1.644  20.471  0.00  0.00    +0.000 N 
ATOM      6  C   UNL     1       4.413   1.675  19.363  0.00  0.00    +0.000 C 
ATOM      7  O   UNL     1       4.194   0.628  18.755  0.00  0.00    +0.000 OA
ATOM      8  N   UNL     1       3.931   2.907  19.001  0.00  0.00    +0.000 N 
ATOM      9  C   UNL     1       3.016   3.015  17.871  0.00  0.00    +0.000 C 
ATOM     10  C   UNL     1       3.549   3.996  16.828  0.00  0.00    +0.000 C 
ATOM     11  C   UNL     1       3.890   5.358  17.452  0.00  0.00    +0.000 C 
ATOM     12  C   UNL     1       4.851   5.157  18.635  0.00  0.00    +0.000 C 
ATOM     13  C   UNL     1       4.291   4.165  19.655  0.00  0.00    +0.000 C 
ATOM     14  H   UNL     1       5.432   0.705  20.750  0.00  0.00    +0.000 HD
ATOM     15  H   UNL     1       4.876   2.224  21.238  0.00  0.00    +0.000 HD
ENDBRANCH   1  11
BRANCH   3  16
ATOM     16  C   UNL     1       1.770   8.260  18.806  0.00  0.00    +0.000 C 
ATOM     17  C   UNL     1       1.827   9.668  18.199  0.00  0.00    +0.000 C 
ATOM     18  C   UNL     1       0.557  10.452  18.547  0.00  0.00    +0.000 C 
ATOM     19  C   UNL     1       0.216  10.337  19.993  0.00  0.00    +0.000 A 
ATOM     20  N   UNL     1      -0.601  11.105  20.683  0.00  0.00    +0.000 NA
ATOM     21  C   UNL     1      -0.593  10.600  21.958  0.00  0.00    +0.000 A 
ATOM     22  C   UNL     1       0.235   9.505  22.046  0.00  0.00    +0.000 A 
ATOM     23  N   UNL     1       0.730   9.340  20.787  0.00  0.00    +0.000 N 
ATOM     24  C   UNL     1       1.688   8.344  20.344  0.00  0.00    +0.000 C 
ENDBRANCH   3  16
TORSDOF 2
ENDMDL
MODEL 9
REMARK VINA RESULT:      -6.5      1.540      2.244
REMARK  Name = 
REMARK  2 active torsions:
REMARK  status: ('A' for Active; 'I' for Inactive)
REMARK    1  A    between atoms: C_7  and  C_8
REMARK    2  A    between atoms: N_10  and  C_11
REMARK                            x       y       z     vdW  Elec       q    Type
REMARK                         _______ _______ _______ _____ _____    ______ ____
ROOT
ATOM      1  C   UNL     1       2.552   6.076  19.682  0.00  0.00    +0.000 C 
ATOM      2  O   UNL     1       2.594   5.776  20.868  0.00  0.00    +0.000 OA
ATOM      3  N   UNL     1       2.135   7.324  19.266  0.00  0.00    +0.000 N 
ATOM      4  H   UNL     1       2.294   7.598  18.303  0.00  0.00    +0.000 HD
ENDROOT
BRANCH   1  11
ATOM      5  N   UNL     1       7.390   6.112  16.552  0.00  0.00    +0.000 N 
ATOM      6  C   UNL     1       7.025   5.286  17.560  0.00  0.00    +0.000 C 
ATOM      7  O   UNL     1       7.784   4.378  17.896  0.00  0.00    +0.000 OA
ATOM      8  N   UNL     1       5.804   5.540  18.131  0.00  0.00    +0.000 N 
ATOM      9  C   UNL     1       5.375   4.753  19.281  0.00  0.00    +0.000 C 
ATOM     10  C   UNL     1       4.025   4.089  19.017  0.00  0.00    +0.000 C 
ATOM     11  C   UNL     1       2.970   5.110  18.564  0.00  0.00    +0.000 C 
ATOM     12  C   UNL     1       3.500   5.898  17.356  0.00  0.00    +0.000 C 
ATOM     13  C   UNL     1       4.854   6.543  17.652  0.00  0.00    +0.000 C 
ATOM     14  H   UNL     1       8.334   5.947  16.236  0.00  0.00    +0.000 HD
ATOM     15  H   UNL     1       7.177   7.090  16.690  0.00  0.00    +0.000 HD
ENDBRANCH   1  11
BRANCH   3  16
ATOM     16  C   UNL     1       1.719   8.329  20.245  0.00  0.00    +0.000 C 
ATOM     17  C   UNL     1       0.539   7.839  21.094  0.00  0.00    +0.000 C 
ATOM     18  C   UNL     1       0.250   8.827  22.230  0.00  0.00    +0.000 C 
ATOM     19  C   UNL     1       0.213  10.234  21.743  0.00  0.00    +0.000 A 
ATOM     20  N   UNL     1      -0.298  11.278  22.360  0.00  0.00    +0.000 NA
ATOM     21  C   UNL     1      -0.084  12.344  21.522  0.00  0.00    +0.000 A 
ATOM     22  C   UNL     1       0.572  11.945  20.381  0.00  0.00    +0.000 A 
ATOM     23  N   UNL     1       0.769  10.605  20.541  0.00  0.00    +0.000 N 
ATOM     24  C   UNL     1       1.385   9.690  19.600  0.00  0.00    +0.000 C 
ENDBRANCH   3  16
TORSDOF 2
ENDMDL
