MODEL 1
REMARK VINA RESULT:      -6.5      0.000      0.000
REMARK  Name = 
REMARK  11 active torsions:
REMARK  status: ('A' for Active; 'I' for Inactive)
REMARK    1  A    between atoms: C_1  and  O_2
REMARK    2  A    between atoms: O_2  and  C_3
REMARK    3  A    between atoms: C_3  and  C_4
REMARK    4  A    between atoms: C_4  and  N_5
REMARK    5  A    between atoms: C_6  and  C_7
REMARK    6  A    between atoms: C_9  and  C_10
REMARK    7  A    between atoms: C_10  and  C_12
REMARK    8  A    between atoms: C_12  and  S_13
REMARK    9  A    between atoms: S_13  and  C_14
REMARK   10  A    between atoms: N_18  and  C_19
REMARK   11  A    between atoms: C_25  and  C_26
REMARK                            x       y       z     vdW  Elec       q    Type
REMARK                         _______ _______ _______ _____ _____    ______ ____
ROOT
ATOM      1  C   UNL     1       2.306   6.979  19.412  0.00  0.00    +0.000 C 
ATOM      2  O   UNL     1       2.523   5.940  20.039  0.00  0.00    +0.000 OA
ENDROOT
BRANCH   1   7
ATOM      3  N   UNL     1       0.621  10.093  20.410  0.00  0.00    +0.000 N 
ATOM      4  C   UNL     1       0.524   9.392  21.596  0.00  0.00    +0.000 A 
ATOM      5  C   UNL     1      -0.138   9.889  22.835  0.00  0.00    +0.000 C 
ATOM      6  C   UNL     1       1.149   8.175  21.408  0.00  0.00    +0.000 A 
ATOM      7  C   UNL     1       1.611   8.100  20.065  0.00  0.00    +0.000 A 
ATOM      8  C   UNL     1       1.266   9.313  19.465  0.00  0.00    +0.000 A 
ATOM      9  C   UNL     1       1.486   9.792  18.062  0.00  0.00    +0.000 C 
BRANCH   3  10
ATOM     10  C   UNL     1       0.074  11.423  20.166  0.00  0.00    +0.000 C 
BRANCH  10  11
ATOM     11  C   UNL     1      -1.345  11.411  19.610  0.00  0.00    +0.000 C 
BRANCH  11  13
ATOM     12  C   UNL     1      -0.445  13.162  18.316  0.00  0.00    +0.000 C 
ATOM     13  O   UNL     1      -1.347  12.062  18.336  0.00  0.00    +0.000 OA
ENDBRANCH  11  13
ENDBRANCH  10  11
ENDBRANCH   3  10
ENDBRANCH   1   7
BRANCH   1  14
ATOM     14  C   UNL     1       2.735   7.139  17.950  0.00  0.00    +0.000 C 
BRANCH  14  15
ATOM     15  S   UNL     1       4.546   7.052  17.866  0.00  0.00    +0.000 S 
BRANCH  15  16
ATOM     16  C   UNL     1       4.883   5.992  16.554  0.00  0.00    +0.000 A 
ATOM     17  N   UNL     1       5.537   6.303  15.458  0.00  0.00    +0.000 NA
ATOM     18  N   UNL     1       5.789   5.136  14.776  0.00  0.00    +0.000 NA
ATOM     19  C   UNL     1       5.284   4.147  15.482  0.00  0.00    +0.000 A 
ATOM     20  N   UNL     1       4.649   4.625  16.606  0.00  0.00    +0.000 N 
BRANCH  20  21
ATOM     21  C   UNL     1       3.947   3.845  17.564  0.00  0.00    +0.000 A 
ATOM     22  C   UNL     1       2.612   3.488  17.330  0.00  0.00    +0.000 A 
ATOM     23  C   UNL     1       1.929   2.695  18.257  0.00  0.00    +0.000 A 
ATOM     24  C   UNL     1       2.560   2.275  19.427  0.00  0.00    +0.000 A 
ATOM     25  C   UNL     1       3.879   2.650  19.674  0.00  0.00    +0.000 A 
ATOM     26  C   UNL     1       4.569   3.430  18.750  0.00  0.00    +0.000 A 
ENDBRANCH  20  21
ENDBRANCH  15  16
ENDBRANCH  14  15
ENDBRANCH   1  14
TORSDOF 8
ENDMDL
MODEL 2
REMARK VINA RESULT:      -6.5      0.913      1.287
REMARK  Name = 
REMARK  11 active torsions:
REMARK  status: ('A' for Active; 'I' for Inactive)
REMARK    1  A    between atoms: C_1  and  O_2
REMARK    2  A    between atoms: O_2  and  C_3
REMARK    3  A    between atoms: C_3  and  C_4
REMARK    4  A    between atoms: C_4  and  N_5
REMARK    5  A    between atoms: C_6  and  C_7
REMARK    6  A    between atoms: C_9  and  C_10
REMARK    7  A    between atoms: C_10  and  C_12
REMARK    8  A    between atoms: C_12  and  S_13
REMARK    9  A    between atoms: S_13  and  C_14
REMARK   10  A    between atoms: N_18  and  C_19
REMARK   11  A    between atoms: C_25  and  C_26
REMARK                            x       y       z     vdW  Elec       q    Type
REMARK                         _______ _______ _______ _____ _____    ______ ____
ROOT
ATOM      1  C   UNL     1       2.485   6.736  19.306  0.00  0.00    +0.000 C 
ATOM      2  O   UNL     1       1.907   5.668  19.092  0.00  0.00    +0.000 OA
ENDROOT
BRANCH   1   7
ATOM      3  N   UNL     1       0.717   9.822  20.247  0.00  0.00    +0.000 N 
ATOM      4  C   UNL     1       0.639   9.140  21.446  0.00  0.00    +0.000 A 
ATOM      5  C   UNL     1      -0.036   9.642  22.675  0.00  0.00    +0.000 C 
ATOM      6  C   UNL     1       1.296   7.937  21.280  0.00  0.00    +0.000 A 
ATOM      7  C   UNL     1       1.760   7.849  19.939  0.00  0.00    +0.000 A 
ATOM      8  C   UNL     1       1.383   9.042  19.316  0.00  0.00    +0.000 A 
ATOM      9  C   UNL     1       1.591   9.499  17.905  0.00  0.00    +0.000 C 
BRANCH   3  10
ATOM     10  C   UNL     1       0.135  11.131  19.979  0.00  0.00    +0.000 C 
BRANCH  10  11
ATOM     11  C   UNL     1      -1.287  11.071  19.434  0.00  0.00    +0.000 C 
BRANCH  11  13
ATOM     12  C   UNL     1      -0.447  12.997  18.369  0.00  0.00    +0.000 C 
ATOM     13  O   UNL     1      -1.380  11.927  18.291  0.00  0.00    +0.000 OA
ENDBRANCH  11  13
ENDBRANCH  10  11
ENDBRANCH   3  10
ENDBRANCH   1   7
BRANCH   1  14
ATOM     14  C   UNL     1       3.952   6.945  18.921  0.00  0.00    +0.000 C 
BRANCH  14  15
ATOM     15  S   UNL     1       4.085   6.922  17.111  0.00  0.00    +0.000 S 
BRANCH  15  16
ATOM     16  C   UNL     1       5.451   5.931  16.775  0.00  0.00    +0.000 A 
ATOM     17  N   UNL     1       6.578   6.330  16.231  0.00  0.00    +0.000 NA
ATOM     18  N   UNL     1       7.483   5.301  16.343  0.00  0.00    +0.000 NA
ATOM     19  C   UNL     1       6.880   4.307  16.959  0.00  0.00    +0.000 A 
ATOM     20  N   UNL     1       5.566   4.623  17.221  0.00  0.00    +0.000 N 
BRANCH  20  21
ATOM     21  C   UNL     1       4.606   3.767  17.826  0.00  0.00    +0.000 A 
ATOM     22  C   UNL     1       4.732   3.423  19.179  0.00  0.00    +0.000 A 
ATOM     23  C   UNL     1       3.773   2.605  19.783  0.00  0.00    +0.000 A 
ATOM     24  C   UNL     1       2.702   2.108  19.042  0.00  0.00    +0.000 A 
ATOM     25  C   UNL     1       2.588   2.426  17.691  0.00  0.00    +0.000 A 
ATOM     26  C   UNL     1       3.534   3.250  17.085  0.00  0.00    +0.000 A 
ENDBRANCH  20  21
ENDBRANCH  15  16
ENDBRANCH  14  15
ENDBRANCH   1  14
TORSDOF 8
ENDMDL
MODEL 3
REMARK VINA RESULT:      -6.5      2.688      7.651
REMARK  Name = 
REMARK  11 active torsions:
REMARK  status: ('A' for Active; 'I' for Inactive)
REMARK    1  A    between atoms: C_1  and  O_2
REMARK    2  A    between atoms: O_2  and  C_3
REMARK    3  A    between atoms: C_3  and  C_4
REMARK    4  A    between atoms: C_4  and  N_5
REMARK    5  A    between atoms: C_6  and  C_7
REMARK    6  A    between atoms: C_9  and  C_10
REMARK    7  A    between atoms: C_10  and  C_12
REMARK    8  A    between atoms: C_12  and  S_13
REMARK    9  A    between atoms: S_13  and  C_14
REMARK   10  A    between atoms: N_18  and  C_19
REMARK   11  A    between atoms: C_25  and  C_26
REMARK                            x       y       z     vdW  Elec       q    Type
REMARK                         _______ _______ _______ _____ _____    ______ ____
ROOT
ATOM      1  C   UNL     1       3.009   3.988  19.869  0.00  0.00    +0.000 C 
ATOM      2  O   UNL     1       3.036   3.159  20.781  0.00  0.00    +0.000 OA
ENDROOT
BRANCH   1   7
ATOM      3  N   UNL     1       5.563   4.149  17.226  0.00  0.00    +0.000 N 
ATOM      4  C   UNL     1       6.249   4.781  18.244  0.00  0.00    +0.000 A 
ATOM      5  C   UNL     1       7.624   5.344  18.132  0.00  0.00    +0.000 C 
ATOM      6  C   UNL     1       5.428   4.784  19.355  0.00  0.00    +0.000 A 
ATOM      7  C   UNL     1       4.190   4.176  19.011  0.00  0.00    +0.000 A 
ATOM      8  C   UNL     1       4.302   3.789  17.674  0.00  0.00    +0.000 A 
ATOM      9  C   UNL     1       3.308   3.117  16.778  0.00  0.00    +0.000 C 
BRANCH   3  10
ATOM     10  C   UNL     1       6.059   3.947  15.870  0.00  0.00    +0.000 C 
BRANCH  10  11
ATOM     11  C   UNL     1       6.052   5.211  15.019  0.00  0.00    +0.000 C 
BRANCH  11  13
ATOM     12  C   UNL     1       7.578   5.000  13.235  0.00  0.00    +0.000 C 
ATOM     13  O   UNL     1       7.385   5.468  14.564  0.00  0.00    +0.000 OA
ENDBRANCH  11  13
ENDBRANCH  10  11
ENDBRANCH   3  10
ENDBRANCH   1   7
BRANCH   1  14
ATOM     14  C   UNL     1       1.769   4.848  19.603  0.00  0.00    +0.000 C 
BRANCH  14  15
ATOM     15  S   UNL     1       1.896   6.367  20.588  0.00  0.00    +0.000 S 
BRANCH  15  16
ATOM     16  C   UNL     1       2.060   7.634  19.436  0.00  0.00    +0.000 A 
ATOM     17  N   UNL     1       2.631   7.536  18.256  0.00  0.00    +0.000 NA
ATOM     18  N   UNL     1       2.355   8.690  17.562  0.00  0.00    +0.000 NA
ATOM     19  C   UNL     1       1.618   9.455  18.339  0.00  0.00    +0.000 A 
ATOM     20  N   UNL     1       1.431   8.864  19.568  0.00  0.00    +0.000 N 
BRANCH  20  21
ATOM     21  C   UNL     1       0.733   9.429  20.669  0.00  0.00    +0.000 A 
ATOM     22  C   UNL     1      -0.194  10.459  20.452  0.00  0.00    +0.000 A 
ATOM     23  C   UNL     1      -0.904  10.996  21.530  0.00  0.00    +0.000 A 
ATOM     24  C   UNL     1      -0.680  10.531  22.825  0.00  0.00    +0.000 A 
ATOM     25  C   UNL     1       0.260   9.526  23.047  0.00  0.00    +0.000 A 
ATOM     26  C   UNL     1       0.962   8.978  21.976  0.00  0.00    +0.000 A 
ENDBRANCH  20  21
ENDBRANCH  15  16
ENDBRANCH  14  15
ENDBRANCH   1  14
TORSDOF 8
ENDMDL
MODEL 4
REMARK VINA RESULT:      -6.4      2.118      3.309
REMARK  Name = 
REMARK  11 active torsions:
REMARK  status: ('A' for Active; 'I' for Inactive)
REMARK    1  A    between atoms: C_1  and  O_2
REMARK    2  A    between atoms: O_2  and  C_3
REMARK    3  A    between atoms: C_3  and  C_4
REMARK    4  A    between atoms: C_4  and  N_5
REMARK    5  A    between atoms: C_6  and  C_7
REMARK    6  A    between atoms: C_9  and  C_10
REMARK    7  A    between atoms: C_10  and  C_12
REMARK    8  A    between atoms: C_12  and  S_13
REMARK    9  A    between atoms: S_13  and  C_14
REMARK   10  A    between atoms: N_18  and  C_19
REMARK   11  A    between atoms: C_25  and  C_26
REMARK                            x       y       z     vdW  Elec       q    Type
REMARK                         _______ _______ _______ _____ _____    ______ ____
ROOT
ATOM      1  C   UNL     1       2.316   7.810  18.686  0.00  0.00    +0.000 C 
ATOM      2  O   UNL     1       3.110   8.407  17.955  0.00  0.00    +0.000 OA
ENDROOT
BRANCH   1   7
ATOM      3  N   UNL     1       0.091  10.046  20.579  0.00  0.00    +0.000 N 
ATOM      4  C   UNL     1       0.558   9.260  21.614  0.00  0.00    +0.000 A 
ATOM      5  C   UNL     1       0.150   9.390  23.041  0.00  0.00    +0.000 C 
ATOM      6  C   UNL     1       1.454   8.358  21.075  0.00  0.00    +0.000 A 
ATOM      7  C   UNL     1       1.518   8.560  19.669  0.00  0.00    +0.000 A 
ATOM      8  C   UNL     1       0.655   9.622  19.387  0.00  0.00    +0.000 A 
ATOM      9  C   UNL     1       0.310  10.261  18.078  0.00  0.00    +0.000 C 
BRANCH   3  10
ATOM     10  C   UNL     1      -0.891  11.117  20.706  0.00  0.00    +0.000 C 
BRANCH  10  11
ATOM     11  C   UNL     1      -0.273  12.505  20.835  0.00  0.00    +0.000 C 
BRANCH  11  13
ATOM     12  C   UNL     1      -1.162  12.940  22.973  0.00  0.00    +0.000 C 
ATOM     13  O   UNL     1       0.025  12.751  22.213  0.00  0.00    +0.000 OA
ENDBRANCH  11  13
ENDBRANCH  10  11
ENDBRANCH   3  10
ENDBRANCH   1   7
BRANCH   1  14
ATOM     14  C   UNL     1       2.140   6.291  18.609  0.00  0.00    +0.000 C 
BRANCH  14  15
ATOM     15  S   UNL     1       3.359   5.510  19.703  0.00  0.00    +0.000 S 
BRANCH  15  16
ATOM     16  C   UNL     1       3.354   3.847  19.264  0.00  0.00    +0.000 A 
ATOM     17  N   UNL     1       2.576   2.916  19.770  0.00  0.00    +0.000 NA
ATOM     18  N   UNL     1       2.722   1.786  19.001  0.00  0.00    +0.000 NA
ATOM     19  C   UNL     1       3.581   2.064  18.044  0.00  0.00    +0.000 A 
ATOM     20  N   UNL     1       4.062   3.348  18.180  0.00  0.00    +0.000 N 
BRANCH  20  21
ATOM     21  C   UNL     1       5.044   3.962  17.357  0.00  0.00    +0.000 A 
ATOM     22  C   UNL     1       4.765   4.213  16.007  0.00  0.00    +0.000 A 
ATOM     23  C   UNL     1       5.718   4.845  15.203  0.00  0.00    +0.000 A 
ATOM     24  C   UNL     1       6.957   5.208  15.729  0.00  0.00    +0.000 A 
ATOM     25  C   UNL     1       7.247   4.936  17.065  0.00  0.00    +0.000 A 
ATOM     26  C   UNL     1       6.298   4.317  17.874  0.00  0.00    +0.000 A 
ENDBRANCH  20  21
ENDBRANCH  15  16
ENDBRANCH  14  15
ENDBRANCH   1  14
TORSDOF 8
ENDMDL
MODEL 5
REMARK VINA RESULT:      -6.4      1.169      1.250
REMARK  Name = 
REMARK  11 active torsions:
REMARK  status: ('A' for Active; 'I' for Inactive)
REMARK    1  A    between atoms: C_1  and  O_2
REMARK    2  A    between atoms: O_2  and  C_3
REMARK    3  A    between atoms: C_3  and  C_4
REMARK    4  A    between atoms: C_4  and  N_5
REMARK    5  A    between atoms: C_6  and  C_7
REMARK    6  A    between atoms: C_9  and  C_10
REMARK    7  A    between atoms: C_10  and  C_12
REMARK    8  A    between atoms: C_12  and  S_13
REMARK    9  A    between atoms: S_13  and  C_14
REMARK   10  A    between atoms: N_18  and  C_19
REMARK   11  A    between atoms: C_25  and  C_26
REMARK                            x       y       z     vdW  Elec       q    Type
REMARK                         _______ _______ _______ _____ _____    ______ ____
ROOT
ATOM      1  C   UNL     1       2.469   6.670  19.413  0.00  0.00    +0.000 C 
ATOM      2  O   UNL     1       1.881   5.609  19.193  0.00  0.00    +0.000 OA
ENDROOT
BRANCH   1   7
ATOM      3  N   UNL     1       0.678   9.753  20.320  0.00  0.00    +0.000 N 
ATOM      4  C   UNL     1       0.679   9.120  21.547  0.00  0.00    +0.000 A 
ATOM      5  C   UNL     1       0.056   9.657  22.790  0.00  0.00    +0.000 C 
ATOM      6  C   UNL     1       1.356   7.926  21.396  0.00  0.00    +0.000 A 
ATOM      7  C   UNL     1       1.751   7.792  20.037  0.00  0.00    +0.000 A 
ATOM      8  C   UNL     1       1.314   8.949  19.387  0.00  0.00    +0.000 A 
ATOM      9  C   UNL     1       1.437   9.353  17.950  0.00  0.00    +0.000 C 
BRANCH   3  10
ATOM     10  C   UNL     1       0.052  11.037  20.030  0.00  0.00    +0.000 C 
BRANCH  10  11
ATOM     11  C   UNL     1       0.997  12.226  20.165  0.00  0.00    +0.000 C 
BRANCH  11  13
ATOM     12  C   UNL     1       1.548  14.204  19.011  0.00  0.00    +0.000 C 
ATOM     13  O   UNL     1       1.142  12.847  18.884  0.00  0.00    +0.000 OA
ENDBRANCH  11  13
ENDBRANCH  10  11
ENDBRANCH   3  10
ENDBRANCH   1   7
BRANCH   1  14
ATOM     14  C   UNL     1       3.943   6.861  19.042  0.00  0.00    +0.000 C 
BRANCH  14  15
ATOM     15  S   UNL     1       4.078   6.958  17.235  0.00  0.00    +0.000 S 
BRANCH  15  16
ATOM     16  C   UNL     1       5.427   5.968  16.833  0.00  0.00    +0.000 A 
ATOM     17  N   UNL     1       6.549   6.378  16.287  0.00  0.00    +0.000 NA
ATOM     18  N   UNL     1       7.444   5.336  16.339  0.00  0.00    +0.000 NA
ATOM     19  C   UNL     1       6.841   4.323  16.924  0.00  0.00    +0.000 A 
ATOM     20  N   UNL     1       5.535   4.641  17.223  0.00  0.00    +0.000 N 
BRANCH  20  21
ATOM     21  C   UNL     1       4.577   3.770  17.807  0.00  0.00    +0.000 A 
ATOM     22  C   UNL     1       3.482   3.329  17.051  0.00  0.00    +0.000 A 
ATOM     23  C   UNL     1       2.554   2.448  17.615  0.00  0.00    +0.000 A 
ATOM     24  C   UNL     1       2.697   2.022  18.934  0.00  0.00    +0.000 A 
ATOM     25  C   UNL     1       3.770   2.479  19.697  0.00  0.00    +0.000 A 
ATOM     26  C   UNL     1       4.704   3.347  19.138  0.00  0.00    +0.000 A 
ENDBRANCH  20  21
ENDBRANCH  15  16
ENDBRANCH  14  15
ENDBRANCH   1  14
TORSDOF 8
ENDMDL
MODEL 6
REMARK VINA RESULT:      -6.4      2.633      8.064
REMARK  Name = 
REMARK  11 active torsions:
REMARK  status: ('A' for Active; 'I' for Inactive)
REMARK    1  A    between atoms: C_1  and  O_2
REMARK    2  A    between atoms: O_2  and  C_3
REMARK    3  A    between atoms: C_3  and  C_4
REMARK    4  A    between atoms: C_4  and  N_5
REMARK    5  A    between atoms: C_6  and  C_7
REMARK    6  A    between atoms: C_9  and  C_10
REMARK    7  A    between atoms: C_10  and  C_12
REMARK    8  A    between atoms: C_12  and  S_13
REMARK    9  A    between atoms: S_13  and  C_14
REMARK   10  A    between atoms: N_18  and  C_19
REMARK   11  A    between atoms: C_25  and  C_26
REMARK                            x       y       z     vdW  Elec       q    Type
REMARK                         _______ _______ _______ _____ _____    ______ ____
ROOT
ATOM      1  C   UNL     1       1.828   7.720  20.078  0.00  0.00    +0.000 C 
ATOM      2  O   UNL     1       1.865   8.411  19.058  0.00  0.00    +0.000 OA
ENDROOT
BRANCH   1   7
ATOM      3  N   UNL     1       3.212   4.358  19.519  0.00  0.00    +0.000 N 
ATOM      4  C   UNL     1       2.131   4.030  20.312  0.00  0.00    +0.000 A 
ATOM      5  C   UNL     1       1.778   2.652  20.755  0.00  0.00    +0.000 C 
ATOM      6  C   UNL     1       1.459   5.202  20.601  0.00  0.00    +0.000 A 
ATOM      7  C   UNL     1       2.160   6.289  20.008  0.00  0.00    +0.000 A 
ATOM      8  C   UNL     1       3.252   5.731  19.339  0.00  0.00    +0.000 A 
ATOM      9  C   UNL     1       4.340   6.394  18.551  0.00  0.00    +0.000 C 
BRANCH   3  10
ATOM     10  C   UNL     1       4.199   3.418  19.003  0.00  0.00    +0.000 C 
BRANCH  10  11
ATOM     11  C   UNL     1       4.018   3.086  17.526  0.00  0.00    +0.000 C 
BRANCH  11  13
ATOM     12  C   UNL     1       4.975   4.321  15.762  0.00  0.00    +0.000 C 
ATOM     13  O   UNL     1       5.224   3.413  16.828  0.00  0.00    +0.000 OA
ENDBRANCH  11  13
ENDBRANCH  10  11
ENDBRANCH   3  10
ENDBRANCH   1   7
BRANCH   1  14
ATOM     14  C   UNL     1       1.432   8.313  21.434  0.00  0.00    +0.000 C 
BRANCH  14  15
ATOM     15  S   UNL     1      -0.164   9.157  21.254  0.00  0.00    +0.000 S 
BRANCH  15  16
ATOM     16  C   UNL     1       0.232  10.799  20.930  0.00  0.00    +0.000 A 
ATOM     17  N   UNL     1       1.150  11.509  21.548  0.00  0.00    +0.000 NA
ATOM     18  N   UNL     1       1.311  12.682  20.850  0.00  0.00    +0.000 NA
ATOM     19  C   UNL     1       0.490  12.649  19.822  0.00  0.00    +0.000 A 
ATOM     20  N   UNL     1      -0.264  11.497  19.838  0.00  0.00    +0.000 N 
BRANCH  20  21
ATOM     21  C   UNL     1      -1.287  11.156  18.913  0.00  0.00    +0.000 A 
ATOM     22  C   UNL     1      -2.541  11.776  19.000  0.00  0.00    +0.000 A 
ATOM     23  C   UNL     1      -3.539  11.464  18.072  0.00  0.00    +0.000 A 
ATOM     24  C   UNL     1      -3.304  10.522  17.072  0.00  0.00    +0.000 A 
ATOM     25  C   UNL     1      -2.067   9.885  16.999  0.00  0.00    +0.000 A 
ATOM     26  C   UNL     1      -1.064  10.199  17.913  0.00  0.00    +0.000 A 
ENDBRANCH  20  21
ENDBRANCH  15  16
ENDBRANCH  14  15
ENDBRANCH   1  14
TORSDOF 8
ENDMDL
MODEL 7
REMARK VINA RESULT:      -6.4      2.247      3.425
REMARK  Name = 
REMARK  11 active torsions:
REMARK  status: ('A' for Active; 'I' for Inactive)
REMARK    1  A    between atoms: C_1  and  O_2
REMARK    2  A    between atoms: O_2  and  C_3
REMARK    3  A    between atoms: C_3  and  C_4
REMARK    4  A    between atoms: C_4  and  N_5
REMARK    5  A    between atoms: C_6  and  C_7
REMARK    6  A    between atoms: C_9  and  C_10
REMARK    7  A    between atoms: C_10  and  C_12
REMARK    8  A    between atoms: C_12  and  S_13
REMARK    9  A    between atoms: S_13  and  C_14
REMARK   10  A    between atoms: N_18  and  C_19
REMARK   11  A    between atoms: C_25  and  C_26
REMARK                            x       y       z     vdW  Elec       q    Type
REMARK                         _______ _______ _______ _____ _____    ______ ____
ROOT
ATOM      1  C   UNL     1       2.063   8.343  18.577  0.00  0.00    +0.000 C 
ATOM      2  O   UNL     1       1.837   8.709  17.422  0.00  0.00    +0.000 OA
ENDROOT
BRANCH   1   7
ATOM      3  N   UNL     1       0.461  10.631  20.971  0.00  0.00    +0.000 N 
ATOM      4  C   UNL     1       0.446   9.472  21.720  0.00  0.00    +0.000 A 
ATOM      5  C   UNL     1      -0.127   9.342  23.089  0.00  0.00    +0.000 C 
ATOM      6  C   UNL     1       1.053   8.485  20.967  0.00  0.00    +0.000 A 
ATOM      7  C   UNL     1       1.419   9.032  19.706  0.00  0.00    +0.000 A 
ATOM      8  C   UNL     1       1.037  10.376  19.737  0.00  0.00    +0.000 A 
ATOM      9  C   UNL     1       1.159  11.437  18.687  0.00  0.00    +0.000 C 
BRANCH   3  10
ATOM     10  C   UNL     1      -0.097  11.913  21.384  0.00  0.00    +0.000 C 
BRANCH  10  11
ATOM     11  C   UNL     1      -1.569  12.086  21.026  0.00  0.00    +0.000 C 
BRANCH  11  13
ATOM     12  C   UNL     1      -2.539  12.107  23.174  0.00  0.00    +0.000 C 
ATOM     13  O   UNL     1      -2.197  12.885  22.033  0.00  0.00    +0.000 OA
ENDBRANCH  11  13
ENDBRANCH  10  11
ENDBRANCH   3  10
ENDBRANCH   1   7
BRANCH   1  14
ATOM     14  C   UNL     1       3.015   7.181  18.878  0.00  0.00    +0.000 C 
BRANCH  14  15
ATOM     15  S   UNL     1       2.256   5.642  18.286  0.00  0.00    +0.000 S 
BRANCH  15  16
ATOM     16  C   UNL     1       2.960   4.399  19.244  0.00  0.00    +0.000 A 
ATOM     17  N   UNL     1       2.397   3.805  20.272  0.00  0.00    +0.000 NA
ATOM     18  N   UNL     1       3.181   2.728  20.613  0.00  0.00    +0.000 NA
ATOM     19  C   UNL     1       4.196   2.695  19.776  0.00  0.00    +0.000 A 
ATOM     20  N   UNL     1       4.144   3.760  18.905  0.00  0.00    +0.000 N 
BRANCH  20  21
ATOM     21  C   UNL     1       5.105   4.068  17.905  0.00  0.00    +0.000 A 
ATOM     22  C   UNL     1       4.841   3.755  16.564  0.00  0.00    +0.000 A 
ATOM     23  C   UNL     1       5.772   4.085  15.575  0.00  0.00    +0.000 A 
ATOM     24  C   UNL     1       6.975   4.702  15.915  0.00  0.00    +0.000 A 
ATOM     25  C   UNL     1       7.251   4.991  17.249  0.00  0.00    +0.000 A 
ATOM     26  C   UNL     1       6.323   4.677  18.239  0.00  0.00    +0.000 A 
ENDBRANCH  20  21
ENDBRANCH  15  16
ENDBRANCH  14  15
ENDBRANCH   1  14
TORSDOF 8
ENDMDL
MODEL 8
REMARK VINA RESULT:      -6.4      2.108      2.668
REMARK  Name = 
REMARK  11 active torsions:
REMARK  status: ('A' for Active; 'I' for Inactive)
REMARK    1  A    between atoms: C_1  and  O_2
REMARK    2  A    between atoms: O_2  and  C_3
REMARK    3  A    between atoms: C_3  and  C_4
REMARK    4  A    between atoms: C_4  and  N_5
REMARK    5  A    between atoms: C_6  and  C_7
REMARK    6  A    between atoms: C_9  and  C_10
REMARK    7  A    between atoms: C_10  and  C_12
REMARK    8  A    between atoms: C_12  and  S_13
REMARK    9  A    between atoms: S_13  and  C_14
REMARK   10  A    between atoms: N_18  and  C_19
REMARK   11  A    between atoms: C_25  and  C_26
REMARK                            x       y       z     vdW  Elec       q    Type
REMARK                         _______ _______ _______ _____ _____    ______ ____
ROOT
ATOM      1  C   UNL     1       1.827   8.702  18.743  0.00  0.00    +0.000 C 
ATOM      2  O   UNL     1       1.856   9.257  17.642  0.00  0.00    +0.000 OA
ENDROOT
BRANCH   1   7
ATOM      3  N   UNL     1      -0.261  10.693  21.026  0.00  0.00    +0.000 N 
ATOM      4  C   UNL     1       0.104   9.674  21.882  0.00  0.00    +0.000 A 
ATOM      5  C   UNL     1      -0.337   9.544  23.300  0.00  0.00    +0.000 C 
ATOM      6  C   UNL     1       0.938   8.824  21.181  0.00  0.00    +0.000 A 
ATOM      7  C   UNL     1       1.064   9.303  19.848  0.00  0.00    +0.000 A 
ATOM      8  C   UNL     1       0.304  10.473  19.780  0.00  0.00    +0.000 A 
ATOM      9  C   UNL     1       0.055  11.395  18.626  0.00  0.00    +0.000 C 
BRANCH   3  10
ATOM     10  C   UNL     1      -1.152  11.798  21.357  0.00  0.00    +0.000 C 
BRANCH  10  11
ATOM     11  C   UNL     1      -0.466  12.939  22.101  0.00  0.00    +0.000 C 
BRANCH  11  13
ATOM     12  C   UNL     1      -2.492  12.587  23.252  0.00  0.00    +0.000 C 
ATOM     13  O   UNL     1      -1.245  13.271  23.255  0.00  0.00    +0.000 OA
ENDBRANCH  11  13
ENDBRANCH  10  11
ENDBRANCH   3  10
ENDBRANCH   1   7
BRANCH   1  14
ATOM     14  C   UNL     1       2.580   7.394  19.002  0.00  0.00    +0.000 C 
BRANCH  14  15
ATOM     15  S   UNL     1       3.539   6.974  17.519  0.00  0.00    +0.000 S 
BRANCH  15  16
ATOM     16  C   UNL     1       4.721   5.845  18.056  0.00  0.00    +0.000 A 
ATOM     17  N   UNL     1       6.024   5.995  17.974  0.00  0.00    +0.000 NA
ATOM     18  N   UNL     1       6.607   4.990  18.710  0.00  0.00    +0.000 NA
ATOM     19  C   UNL     1       5.639   4.261  19.223  0.00  0.00    +0.000 A 
ATOM     20  N   UNL     1       4.409   4.721  18.807  0.00  0.00    +0.000 N 
BRANCH  20  21
ATOM     21  C   UNL     1       3.151   4.143  19.123  0.00  0.00    +0.000 A 
ATOM     22  C   UNL     1       2.643   4.246  20.425  0.00  0.00    +0.000 A 
ATOM     23  C   UNL     1       1.391   3.703  20.731  0.00  0.00    +0.000 A 
ATOM     24  C   UNL     1       0.653   3.038  19.753  0.00  0.00    +0.000 A 
ATOM     25  C   UNL     1       1.166   2.911  18.464  0.00  0.00    +0.000 A 
ATOM     26  C   UNL     1       2.408   3.459  18.150  0.00  0.00    +0.000 A 
ENDBRANCH  20  21
ENDBRANCH  15  16
ENDBRANCH  14  15
ENDBRANCH   1  14
TORSDOF 8
ENDMDL
MODEL 9
REMARK VINA RESULT:      -6.3      1.813      3.189
REMARK  Name = 
REMARK  11 active torsions:
REMARK  status: ('A' for Active; 'I' for Inactive)
REMARK    1  A    between atoms: C_1  and  O_2
REMARK    2  A    between atoms: O_2  and  C_3
REMARK    3  A    between atoms: C_3  and  C_4
REMARK    4  A    between atoms: C_4  and  N_5
REMARK    5  A    between atoms: C_6  and  C_7
REMARK    6  A    between atoms: C_9  and  C_10
REMARK    7  A    between atoms: C_10  and  C_12
REMARK    8  A    between atoms: C_12  and  S_13
REMARK    9  A    between atoms: S_13  and  C_14
REMARK   10  A    between atoms: N_18  and  C_19
REMARK   11  A    between atoms: C_25  and  C_26
REMARK                            x       y       z     vdW  Elec       q    Type
REMARK                         _______ _______ _______ _____ _____    ______ ____
ROOT
ATOM      1  C   UNL     1       1.997   6.815  20.284  0.00  0.00    +0.000 C 
ATOM      2  O   UNL     1       1.684   5.901  21.051  0.00  0.00    +0.000 OA
ENDROOT
BRANCH   1   7
ATOM      3  N   UNL     1       0.645  10.226  20.019  0.00  0.00    +0.000 N 
ATOM      4  C   UNL     1       0.402   9.989  21.357  0.00  0.00    +0.000 A 
ATOM      5  C   UNL     1      -0.261  10.941  22.291  0.00  0.00    +0.000 C 
ATOM      6  C   UNL     1       0.886   8.728  21.648  0.00  0.00    +0.000 A 
ATOM      7  C   UNL     1       1.406   8.152  20.456  0.00  0.00    +0.000 A 
ATOM      8  C   UNL     1       1.242   9.111  19.454  0.00  0.00    +0.000 A 
ATOM      9  C   UNL     1       1.592   9.054  17.999  0.00  0.00    +0.000 C 
BRANCH   3  10
ATOM     10  C   UNL     1       0.275  11.435  19.293  0.00  0.00    +0.000 C 
BRANCH  10  11
ATOM     11  C   UNL     1      -1.212  11.524  18.965  0.00  0.00    +0.000 C 
BRANCH  11  13
ATOM     12  C   UNL     1      -2.038  10.287  17.137  0.00  0.00    +0.000 C 
ATOM     13  O   UNL     1      -1.660  10.244  18.507  0.00  0.00    +0.000 OA
ENDBRANCH  11  13
ENDBRANCH  10  11
ENDBRANCH   3  10
ENDBRANCH   1   7
BRANCH   1  14
ATOM     14  C   UNL     1       2.987   6.596  19.137  0.00  0.00    +0.000 C 
BRANCH  14  15
ATOM     15  S   UNL     1       2.218   5.505  17.908  0.00  0.00    +0.000 S 
BRANCH  15  16
ATOM     16  C   UNL     1       2.696   3.915  18.359  0.00  0.00    +0.000 A 
ATOM     17  N   UNL     1       1.948   3.031  18.980  0.00  0.00    +0.000 NA
ATOM     18  N   UNL     1       2.612   1.828  18.950  0.00  0.00    +0.000 NA
ATOM     19  C   UNL     1       3.743   2.014  18.305  0.00  0.00    +0.000 A 
ATOM     20  N   UNL     1       3.885   3.334  17.941  0.00  0.00    +0.000 N 
BRANCH  20  21
ATOM     21  C   UNL     1       5.006   3.902  17.279  0.00  0.00    +0.000 A 
ATOM     22  C   UNL     1       6.072   4.417  18.030  0.00  0.00    +0.000 A 
ATOM     23  C   UNL     1       7.190   4.949  17.380  0.00  0.00    +0.000 A 
ATOM     24  C   UNL     1       7.243   4.993  15.988  0.00  0.00    +0.000 A 
ATOM     25  C   UNL     1       6.174   4.506  15.239  0.00  0.00    +0.000 A 
ATOM     26  C   UNL     1       5.062   3.964  15.879  0.00  0.00    +0.000 A 
ENDBRANCH  20  21
ENDBRANCH  15  16
ENDBRANCH  14  15
ENDBRANCH   1  14
TORSDOF 8
ENDMDL
