MODEL 1
REMARK VINA RESULT:      -8.0      0.000      0.000
REMARK  Name = 
REMARK  5 active torsions:
REMARK  status: ('A' for Active; 'I' for Inactive)
REMARK    1  A    between atoms: C_1  and  C_2
REMARK    2  A    between atoms: C_2  and  O_3
REMARK    3  A    between atoms: O_3  and  C_4
REMARK    4  A    between atoms: C_4  and  C_6
REMARK    5  A    between atoms: C_15  and  C_16
REMARK                            x       y       z     vdW  Elec       q    Type
REMARK                         _______ _______ _______ _____ _____    ______ ____
ROOT
ATOM      1  C   UNL     1       4.092   3.211  19.555  0.00  0.00    +0.000 A 
ATOM      2  N   UNL     1       3.353   3.435  20.700  0.00  0.00    +0.000 NA
ATOM      3  C   UNL     1       2.916   4.664  20.559  0.00  0.00    +0.000 A 
ATOM      4  N   UNL     1       3.389   5.220  19.390  0.00  0.00    +0.000 N 
ATOM      5  C   UNL     1       4.530   4.473  19.150  0.00  0.00    +0.000 A 
ATOM      6  C   UNL     1       5.822   5.251  19.249  0.00  0.00    +0.000 C 
ATOM      7  C   UNL     1       6.088   5.928  17.942  0.00  0.00    +0.000 A 
ATOM      8  C   UNL     1       7.284   5.734  17.304  0.00  0.00    +0.000 A 
ATOM      9  N   UNL     1       7.320   5.464  16.002  0.00  0.00    +0.000 NA
ATOM     10  C   UNL     1       6.118   5.338  15.402  0.00  0.00    +0.000 A 
ATOM     11  N   UNL     1       5.012   5.981  15.854  0.00  0.00    +0.000 NA
ATOM     12  C   UNL     1       5.029   6.339  17.152  0.00  0.00    +0.000 A 
ATOM     13  C   UNL     1       3.828   6.998  17.741  0.00  0.00    +0.000 A 
ATOM     14  C   UNL     1       3.521   8.321  17.366  0.00  0.00    +0.000 A 
ATOM     15  C   UNL     1       2.470   9.036  17.968  0.00  0.00    +0.000 A 
ATOM     16  C   UNL     1       1.644   8.433  18.904  0.00  0.00    +0.000 A 
ATOM     17  C   UNL     1       1.921   7.125  19.306  0.00  0.00    +0.000 A 
ATOM     18  C   UNL     1       3.040   6.447  18.786  0.00  0.00    +0.000 A 
ENDROOT
BRANCH  10  19
ATOM     19  C   UNL     1       5.970   4.055  14.601  0.00  0.00    +0.000 C 
ATOM     20  C   UNL     1       5.089   3.890  13.404  0.00  0.00    +0.000 C 
ATOM     21  C   UNL     1       6.580   3.959  13.225  0.00  0.00    +0.000 C 
ENDBRANCH  10  19
BRANCH   1  22
ATOM     22  C   UNL     1       3.769   2.022  18.720  0.00  0.00    +0.000 C 
ATOM     23  O   UNL     1       4.133   0.880  18.962  0.00  0.00    +0.000 OA
BRANCH  22  24
ATOM     24  O   UNL     1       3.130   2.422  17.571  0.00  0.00    +0.000 OA
BRANCH  24  26
ATOM     25  C   UNL     1       0.938   2.154  18.572  0.00  0.00    +0.000 C 
ATOM     26  C   UNL     1       1.811   2.973  17.633  0.00  0.00    +0.000 C 
ENDBRANCH  24  26
ENDBRANCH  22  24
ENDBRANCH   1  22
TORSDOF 4
ENDMDL
MODEL 2
REMARK VINA RESULT:      -6.9      7.285     10.295
REMARK  Name = 
REMARK  5 active torsions:
REMARK  status: ('A' for Active; 'I' for Inactive)
REMARK    1  A    between atoms: C_1  and  C_2
REMARK    2  A    between atoms: C_2  and  O_3
REMARK    3  A    between atoms: O_3  and  C_4
REMARK    4  A    between atoms: C_4  and  C_6
REMARK    5  A    between atoms: C_15  and  C_16
REMARK                            x       y       z     vdW  Elec       q    Type
REMARK                         _______ _______ _______ _____ _____    ______ ____
ROOT
ATOM      1  C   UNL     1      -2.613  13.222  21.854  0.00  0.00    +0.000 A 
ATOM      2  N   UNL     1      -3.783  13.942  21.715  0.00  0.00    +0.000 NA
ATOM      3  C   UNL     1      -4.241  13.575  20.541  0.00  0.00    +0.000 A 
ATOM      4  N   UNL     1      -3.378  12.688  19.934  0.00  0.00    +0.000 N 
ATOM      5  C   UNL     1      -2.174  12.981  20.551  0.00  0.00    +0.000 A 
ATOM      6  C   UNL     1      -1.129  13.577  19.635  0.00  0.00    +0.000 C 
ATOM      7  C   UNL     1      -0.408  12.471  18.931  0.00  0.00    +0.000 A 
ATOM      8  C   UNL     1       0.959  12.403  18.991  0.00  0.00    +0.000 A 
ATOM      9  N   UNL     1       1.567  11.249  19.254  0.00  0.00    +0.000 NA
ATOM     10  C   UNL     1       0.748  10.208  19.511  0.00  0.00    +0.000 A 
ATOM     11  N   UNL     1      -0.503  10.125  18.994  0.00  0.00    +0.000 NA
ATOM     12  C   UNL     1      -1.070  11.294  18.638  0.00  0.00    +0.000 A 
ATOM     13  C   UNL     1      -2.468  11.296  18.117  0.00  0.00    +0.000 A 
ATOM     14  C   UNL     1      -2.720  10.767  16.835  0.00  0.00    +0.000 A 
ATOM     15  C   UNL     1      -3.992  10.840  16.241  0.00  0.00    +0.000 A 
ATOM     16  C   UNL     1      -5.070  11.371  16.932  0.00  0.00    +0.000 A 
ATOM     17  C   UNL     1      -4.858  11.911  18.203  0.00  0.00    +0.000 A 
ATOM     18  C   UNL     1      -3.562  11.938  18.753  0.00  0.00    +0.000 A 
ENDROOT
BRANCH  10  19
ATOM     19  C   UNL     1       1.081   9.476  20.801  0.00  0.00    +0.000 C 
ATOM     20  C   UNL     1       0.189   8.487  21.479  0.00  0.00    +0.000 C 
ATOM     21  C   UNL     1       1.419   8.007  20.762  0.00  0.00    +0.000 C 
ENDBRANCH  10  19
BRANCH   1  22
ATOM     22  C   UNL     1      -2.433  12.383  23.070  0.00  0.00    +0.000 C 
ATOM     23  O   UNL     1      -1.351  12.060  23.541  0.00  0.00    +0.000 OA
BRANCH  22  24
ATOM     24  O   UNL     1      -3.652  11.911  23.493  0.00  0.00    +0.000 OA
BRANCH  24  26
ATOM     25  C   UNL     1      -5.782  12.610  24.415  0.00  0.00    +0.000 C 
ATOM     26  C   UNL     1      -4.284  12.476  24.646  0.00  0.00    +0.000 C 
ENDBRANCH  24  26
ENDBRANCH  22  24
ENDBRANCH   1  22
TORSDOF 4
ENDMDL
MODEL 3
REMARK VINA RESULT:      -6.7      8.232     10.887
REMARK  Name = 
REMARK  5 active torsions:
REMARK  status: ('A' for Active; 'I' for Inactive)
REMARK    1  A    between atoms: C_1  and  C_2
REMARK    2  A    between atoms: C_2  and  O_3
REMARK    3  A    between atoms: O_3  and  C_4
REMARK    4  A    between atoms: C_4  and  C_6
REMARK    5  A    between atoms: C_15  and  C_16
REMARK                            x       y       z     vdW  Elec       q    Type
REMARK                         _______ _______ _______ _____ _____    ______ ____
ROOT
ATOM      1  C   UNL     1      -3.811  13.155  21.310  0.00  0.00    +0.000 A 
ATOM      2  N   UNL     1      -4.783  13.884  20.655  0.00  0.00    +0.000 NA
ATOM      3  C   UNL     1      -4.768  13.403  19.433  0.00  0.00    +0.000 A 
ATOM      4  N   UNL     1      -3.798  12.434  19.300  0.00  0.00    +0.000 N 
ATOM      5  C   UNL     1      -2.914  12.763  20.314  0.00  0.00    +0.000 A 
ATOM      6  C   UNL     1      -1.557  13.229  19.837  0.00  0.00    +0.000 C 
ATOM      7  C   UNL     1      -0.692  12.036  19.579  0.00  0.00    +0.000 A 
ATOM      8  C   UNL     1       0.534  11.941  20.181  0.00  0.00    +0.000 A 
ATOM      9  N   UNL     1       0.913  10.808  20.766  0.00  0.00    +0.000 NA
ATOM     10  C   UNL     1      -0.007   9.821  20.770  0.00  0.00    +0.000 A 
ATOM     11  N   UNL     1      -0.959   9.714  19.810  0.00  0.00    +0.000 NA
ATOM     12  C   UNL     1      -1.264  10.851  19.155  0.00  0.00    +0.000 A 
ATOM     13  C   UNL     1      -2.342  10.831  18.125  0.00  0.00    +0.000 A 
ATOM     14  C   UNL     1      -2.107  10.172  16.902  0.00  0.00    +0.000 A 
ATOM     15  C   UNL     1      -3.037  10.212  15.848  0.00  0.00    +0.000 A 
ATOM     16  C   UNL     1      -4.263  10.842  16.006  0.00  0.00    +0.000 A 
ATOM     17  C   UNL     1      -4.530  11.511  17.202  0.00  0.00    +0.000 A 
ATOM     18  C   UNL     1      -3.553  11.566  18.216  0.00  0.00    +0.000 A 
ENDROOT
BRANCH  10  19
ATOM     19  C   UNL     1      -0.254   9.226  22.147  0.00  0.00    +0.000 C 
ATOM     20  C   UNL     1       0.612   9.449  23.345  0.00  0.00    +0.000 C 
ATOM     21  C   UNL     1      -0.733  10.113  23.269  0.00  0.00    +0.000 C 
ENDBRANCH  10  19
BRANCH   1  22
ATOM     22  C   UNL     1      -4.176  12.448  22.568  0.00  0.00    +0.000 C 
ATOM     23  O   UNL     1      -3.376  11.935  23.338  0.00  0.00    +0.000 OA
BRANCH  22  24
ATOM     24  O   UNL     1      -5.543  12.335  22.657  0.00  0.00    +0.000 OA
BRANCH  24  26
ATOM     25  C   UNL     1      -7.710  12.935  23.563  0.00  0.00    +0.000 C 
ATOM     26  C   UNL     1      -6.226  12.746  23.845  0.00  0.00    +0.000 C 
ENDBRANCH  24  26
ENDBRANCH  22  24
ENDBRANCH   1  22
TORSDOF 4
ENDMDL
MODEL 4
REMARK VINA RESULT:      -6.7      0.881      1.614
REMARK  Name = 
REMARK  5 active torsions:
REMARK  status: ('A' for Active; 'I' for Inactive)
REMARK    1  A    between atoms: C_1  and  C_2
REMARK    2  A    between atoms: C_2  and  O_3
REMARK    3  A    between atoms: O_3  and  C_4
REMARK    4  A    between atoms: C_4  and  C_6
REMARK    5  A    between atoms: C_15  and  C_16
REMARK                            x       y       z     vdW  Elec       q    Type
REMARK                         _______ _______ _______ _____ _____    ______ ____
ROOT
ATOM      1  C   UNL     1       3.979   3.217  19.552  0.00  0.00    +0.000 A 
ATOM      2  N   UNL     1       3.180   3.438  20.657  0.00  0.00    +0.000 NA
ATOM      3  C   UNL     1       2.741   4.664  20.487  0.00  0.00    +0.000 A 
ATOM      4  N   UNL     1       3.269   5.219  19.342  0.00  0.00    +0.000 N 
ATOM      5  C   UNL     1       4.426   4.481  19.165  0.00  0.00    +0.000 A 
ATOM      6  C   UNL     1       5.705   5.271  19.328  0.00  0.00    +0.000 C 
ATOM      7  C   UNL     1       6.032   5.945  18.033  0.00  0.00    +0.000 A 
ATOM      8  C   UNL     1       7.262   5.759  17.459  0.00  0.00    +0.000 A 
ATOM      9  N   UNL     1       7.367   5.484  16.162  0.00  0.00    +0.000 NA
ATOM     10  C   UNL     1       6.199   5.345  15.501  0.00  0.00    +0.000 A 
ATOM     11  N   UNL     1       5.066   5.981  15.892  0.00  0.00    +0.000 NA
ATOM     12  C   UNL     1       5.013   6.343  17.188  0.00  0.00    +0.000 A 
ATOM     13  C   UNL     1       3.777   6.994  17.711  0.00  0.00    +0.000 A 
ATOM     14  C   UNL     1       3.479   8.313  17.314  0.00  0.00    +0.000 A 
ATOM     15  C   UNL     1       2.392   9.022  17.858  0.00  0.00    +0.000 A 
ATOM     16  C   UNL     1       1.524   8.415  18.752  0.00  0.00    +0.000 A 
ATOM     17  C   UNL     1       1.791   7.111  19.174  0.00  0.00    +0.000 A 
ATOM     18  C   UNL     1       2.941   6.440  18.716  0.00  0.00    +0.000 A 
ENDROOT
BRANCH  10  19
ATOM     19  C   UNL     1       6.104   4.058  14.698  0.00  0.00    +0.000 C 
ATOM     20  C   UNL     1       5.202   3.845  13.525  0.00  0.00    +0.000 C 
ATOM     21  C   UNL     1       6.680   4.001  13.306  0.00  0.00    +0.000 C 
ENDBRANCH  10  19
BRANCH   1  22
ATOM     22  C   UNL     1       3.710   2.022  18.707  0.00  0.00    +0.000 C 
ATOM     23  O   UNL     1       2.866   1.969  17.822  0.00  0.00    +0.000 OA
BRANCH  22  24
ATOM     24  O   UNL     1       4.444   0.954  19.164  0.00  0.00    +0.000 OA
BRANCH  24  26
ATOM     25  C   UNL     1       5.800  -0.297  20.736  0.00  0.00    +0.000 C 
ATOM     26  C   UNL     1       5.097   1.018  20.435  0.00  0.00    +0.000 C 
ENDBRANCH  24  26
ENDBRANCH  22  24
ENDBRANCH   1  22
TORSDOF 4
ENDMDL
MODEL 5
REMARK VINA RESULT:      -6.7      7.500     10.670
REMARK  Name = 
REMARK  5 active torsions:
REMARK  status: ('A' for Active; 'I' for Inactive)
REMARK    1  A    between atoms: C_1  and  C_2
REMARK    2  A    between atoms: C_2  and  O_3
REMARK    3  A    between atoms: O_3  and  C_4
REMARK    4  A    between atoms: C_4  and  C_6
REMARK    5  A    between atoms: C_15  and  C_16
REMARK                            x       y       z     vdW  Elec       q    Type
REMARK                         _______ _______ _______ _____ _____    ______ ____
ROOT
ATOM      1  C   UNL     1      -2.765  13.513  21.985  0.00  0.00    +0.000 A 
ATOM      2  N   UNL     1      -3.924  14.247  21.829  0.00  0.00    +0.000 NA
ATOM      3  C   UNL     1      -4.412  13.827  20.685  0.00  0.00    +0.000 A 
ATOM      4  N   UNL     1      -3.579  12.892  20.111  0.00  0.00    +0.000 N 
ATOM      5  C   UNL     1      -2.358  13.194  20.688  0.00  0.00    +0.000 A 
ATOM      6  C   UNL     1      -1.319  13.718  19.722  0.00  0.00    +0.000 C 
ATOM      7  C   UNL     1      -0.633  12.562  19.066  0.00  0.00    +0.000 A 
ATOM      8  C   UNL     1       0.732  12.469  19.104  0.00  0.00    +0.000 A 
ATOM      9  N   UNL     1       1.323  11.319  19.417  0.00  0.00    +0.000 NA
ATOM     10  C   UNL     1       0.491  10.310  19.745  0.00  0.00    +0.000 A 
ATOM     11  N   UNL     1      -0.772  10.225  19.257  0.00  0.00    +0.000 NA
ATOM     12  C   UNL     1      -1.324  11.384  18.850  0.00  0.00    +0.000 A 
ATOM     13  C   UNL     1      -2.731  11.386  18.355  0.00  0.00    +0.000 A 
ATOM     14  C   UNL     1      -3.018  10.795  17.108  0.00  0.00    +0.000 A 
ATOM     15  C   UNL     1      -4.301  10.862  16.535  0.00  0.00    +0.000 A 
ATOM     16  C   UNL     1      -5.355  11.451  17.217  0.00  0.00    +0.000 A 
ATOM     17  C   UNL     1      -5.107  12.054  18.452  0.00  0.00    +0.000 A 
ATOM     18  C   UNL     1      -3.800  12.084  18.976  0.00  0.00    +0.000 A 
ENDROOT
BRANCH  10  19
ATOM     19  C   UNL     1       0.835   9.642  21.066  0.00  0.00    +0.000 C 
ATOM     20  C   UNL     1      -0.046   8.677  21.793  0.00  0.00    +0.000 C 
ATOM     21  C   UNL     1       1.185   8.176  21.094  0.00  0.00    +0.000 C 
ENDBRANCH  10  19
BRANCH   1  22
ATOM     22  C   UNL     1      -2.577  12.736  23.241  0.00  0.00    +0.000 C 
ATOM     23  O   UNL     1      -3.372  11.916  23.679  0.00  0.00    +0.000 OA
BRANCH  22  24
ATOM     24  O   UNL     1      -1.457  13.183  23.900  0.00  0.00    +0.000 OA
BRANCH  24  26
ATOM     25  C   UNL     1      -2.178  15.072  25.237  0.00  0.00    +0.000 C 
ATOM     26  C   UNL     1      -1.262  14.583  24.125  0.00  0.00    +0.000 C 
ENDBRANCH  24  26
ENDBRANCH  22  24
ENDBRANCH   1  22
TORSDOF 4
ENDMDL
MODEL 6
REMARK VINA RESULT:      -6.6      8.033     11.001
REMARK  Name = 
REMARK  5 active torsions:
REMARK  status: ('A' for Active; 'I' for Inactive)
REMARK    1  A    between atoms: C_1  and  C_2
REMARK    2  A    between atoms: C_2  and  O_3
REMARK    3  A    between atoms: O_3  and  C_4
REMARK    4  A    between atoms: C_4  and  C_6
REMARK    5  A    between atoms: C_15  and  C_16
REMARK                            x       y       z     vdW  Elec       q    Type
REMARK                         _______ _______ _______ _____ _____    ______ ____
ROOT
ATOM      1  C   UNL     1      -3.708  13.467  21.973  0.00  0.00    +0.000 A 
ATOM      2  N   UNL     1      -4.885  14.030  21.522  0.00  0.00    +0.000 NA
ATOM      3  C   UNL     1      -5.002  13.576  20.296  0.00  0.00    +0.000 A 
ATOM      4  N   UNL     1      -3.922  12.788  19.961  0.00  0.00    +0.000 N 
ATOM      5  C   UNL     1      -2.944  13.247  20.826  0.00  0.00    +0.000 A 
ATOM      6  C   UNL     1      -1.785  13.945  20.149  0.00  0.00    +0.000 C 
ATOM      7  C   UNL     1      -0.793  12.920  19.699  0.00  0.00    +0.000 A 
ATOM      8  C   UNL     1       0.518  13.025  20.083  0.00  0.00    +0.000 A 
ATOM      9  N   UNL     1       1.173  11.964  20.546  0.00  0.00    +0.000 NA
ATOM     10  C   UNL     1       0.443  10.835  20.661  0.00  0.00    +0.000 A 
ATOM     11  N   UNL     1      -0.629  10.583  19.870  0.00  0.00    +0.000 NA
ATOM     12  C   UNL     1      -1.225  11.661  19.325  0.00  0.00    +0.000 A 
ATOM     13  C   UNL     1      -2.446  11.473  18.490  0.00  0.00    +0.000 A 
ATOM     14  C   UNL     1      -2.320  10.882  17.217  0.00  0.00    +0.000 A 
ATOM     15  C   UNL     1      -3.412  10.779  16.337  0.00  0.00    +0.000 A 
ATOM     16  C   UNL     1      -4.679  11.188  16.724  0.00  0.00    +0.000 A 
ATOM     17  C   UNL     1      -4.842  11.785  17.976  0.00  0.00    +0.000 A 
ATOM     18  C   UNL     1      -3.729  11.990  18.814  0.00  0.00    +0.000 A 
ENDROOT
BRANCH  10  19
ATOM     19  C   UNL     1       0.538  10.187  22.033  0.00  0.00    +0.000 C 
ATOM     20  C   UNL     1      -0.310   9.048  22.502  0.00  0.00    +0.000 C 
ATOM     21  C   UNL     1       1.136   8.809  22.169  0.00  0.00    +0.000 C 
ENDBRANCH  10  19
BRANCH   1  22
ATOM     22  C   UNL     1      -3.730  12.690  23.243  0.00  0.00    +0.000 C 
ATOM     23  O   UNL     1      -3.060  11.691  23.461  0.00  0.00    +0.000 OA
BRANCH  22  24
ATOM     24  O   UNL     1      -4.714  13.178  24.069  0.00  0.00    +0.000 OA
BRANCH  24  26
ATOM     25  C   UNL     1      -7.113  12.836  24.011  0.00  0.00    +0.000 C 
ATOM     26  C   UNL     1      -5.772  12.324  24.515  0.00  0.00    +0.000 C 
ENDBRANCH  24  26
ENDBRANCH  22  24
ENDBRANCH   1  22
TORSDOF 4
ENDMDL
MODEL 7
REMARK VINA RESULT:      -6.6      8.639     11.116
REMARK  Name = 
REMARK  5 active torsions:
REMARK  status: ('A' for Active; 'I' for Inactive)
REMARK    1  A    between atoms: C_1  and  C_2
REMARK    2  A    between atoms: C_2  and  O_3
REMARK    3  A    between atoms: O_3  and  C_4
REMARK    4  A    between atoms: C_4  and  C_6
REMARK    5  A    between atoms: C_15  and  C_16
REMARK                            x       y       z     vdW  Elec       q    Type
REMARK                         _______ _______ _______ _____ _____    ______ ____
ROOT
ATOM      1  C   UNL     1      -4.447  13.313  21.417  0.00  0.00    +0.000 A 
ATOM      2  N   UNL     1      -5.546  13.731  20.692  0.00  0.00    +0.000 NA
ATOM      3  C   UNL     1      -5.361  13.199  19.506  0.00  0.00    +0.000 A 
ATOM      4  N   UNL     1      -4.172  12.503  19.461  0.00  0.00    +0.000 N 
ATOM      5  C   UNL     1      -3.442  13.105  20.472  0.00  0.00    +0.000 A 
ATOM      6  C   UNL     1      -2.229  13.873  19.997  0.00  0.00    +0.000 C 
ATOM      7  C   UNL     1      -1.081  12.926  19.840  0.00  0.00    +0.000 A 
ATOM      8  C   UNL     1       0.105  13.181  20.476  0.00  0.00    +0.000 A 
ATOM      9  N   UNL     1       0.734  12.219  21.144  0.00  0.00    +0.000 NA
ATOM     10  C   UNL     1       0.094  11.032  21.192  0.00  0.00    +0.000 A 
ATOM     11  N   UNL     1      -0.761  10.631  20.219  0.00  0.00    +0.000 NA
ATOM     12  C   UNL     1      -1.317  11.612  19.483  0.00  0.00    +0.000 A 
ATOM     13  C   UNL     1      -2.313  11.258  18.431  0.00  0.00    +0.000 A 
ATOM     14  C   UNL     1      -1.870  10.610  17.260  0.00  0.00    +0.000 A 
ATOM     15  C   UNL     1      -2.738  10.351  16.184  0.00  0.00    +0.000 A 
ATOM     16  C   UNL     1      -4.088  10.655  16.270  0.00  0.00    +0.000 A 
ATOM     17  C   UNL     1      -4.563  11.304  17.412  0.00  0.00    +0.000 A 
ATOM     18  C   UNL     1      -3.673  11.664  18.443  0.00  0.00    +0.000 A 
ENDROOT
BRANCH  10  19
ATOM     19  C   UNL     1      -0.050  10.475  22.599  0.00  0.00    +0.000 C 
ATOM     20  C   UNL     1      -0.653   9.150  22.938  0.00  0.00    +0.000 C 
ATOM     21  C   UNL     1       0.833   9.338  23.047  0.00  0.00    +0.000 C 
ENDBRANCH  10  19
BRANCH   1  22
ATOM     22  C   UNL     1      -4.673  12.611  22.711  0.00  0.00    +0.000 C 
ATOM     23  O   UNL     1      -5.768  12.272  23.139  0.00  0.00    +0.000 OA
BRANCH  22  24
ATOM     24  O   UNL     1      -3.492  12.534  23.409  0.00  0.00    +0.000 OA
BRANCH  24  26
ATOM     25  C   UNL     1      -1.548  13.949  23.720  0.00  0.00    +0.000 C 
ATOM     26  C   UNL     1      -2.993  13.676  24.112  0.00  0.00    +0.000 C 
ENDBRANCH  24  26
ENDBRANCH  22  24
ENDBRANCH   1  22
TORSDOF 4
ENDMDL
MODEL 8
REMARK VINA RESULT:      -6.4      8.591     10.933
REMARK  Name = 
REMARK  5 active torsions:
REMARK  status: ('A' for Active; 'I' for Inactive)
REMARK    1  A    between atoms: C_1  and  C_2
REMARK    2  A    between atoms: C_2  and  O_3
REMARK    3  A    between atoms: O_3  and  C_4
REMARK    4  A    between atoms: C_4  and  C_6
REMARK    5  A    between atoms: C_15  and  C_16
REMARK                            x       y       z     vdW  Elec       q    Type
REMARK                         _______ _______ _______ _____ _____    ______ ____
ROOT
ATOM      1  C   UNL     1      -4.093  12.771  21.890  0.00  0.00    +0.000 A 
ATOM      2  N   UNL     1      -4.147  13.781  22.830  0.00  0.00    +0.000 NA
ATOM      3  C   UNL     1      -3.237  14.637  22.426  0.00  0.00    +0.000 A 
ATOM      4  N   UNL     1      -2.599  14.175  21.295  0.00  0.00    +0.000 N 
ATOM      5  C   UNL     1      -2.792  12.808  21.387  0.00  0.00    +0.000 A 
ATOM      6  C   UNL     1      -1.526  12.009  21.607  0.00  0.00    +0.000 C 
ATOM      7  C   UNL     1      -0.877  11.748  20.284  0.00  0.00    +0.000 A 
ATOM      8  C   UNL     1      -0.570  10.465  19.918  0.00  0.00    +0.000 A 
ATOM      9  N   UNL     1      -0.872  10.019  18.701  0.00  0.00    +0.000 NA
ATOM     10  C   UNL     1      -1.540  10.888  17.914  0.00  0.00    +0.000 A 
ATOM     11  N   UNL     1      -1.414  12.232  18.049  0.00  0.00    +0.000 NA
ATOM     12  C   UNL     1      -1.011  12.666  19.259  0.00  0.00    +0.000 A 
ATOM     13  C   UNL     1      -0.904  14.132  19.507  0.00  0.00    +0.000 A 
ATOM     14  C   UNL     1       0.132  14.858  18.886  0.00  0.00    +0.000 A 
ATOM     15  C   UNL     1       0.355  16.218  19.166  0.00  0.00    +0.000 A 
ATOM     16  C   UNL     1      -0.492  16.918  20.012  0.00  0.00    +0.000 A 
ATOM     17  C   UNL     1      -1.526  16.231  20.652  0.00  0.00    +0.000 A 
ATOM     18  C   UNL     1      -1.682  14.845  20.458  0.00  0.00    +0.000 A 
ENDROOT
BRANCH  10  19
ATOM     19  C   UNL     1      -2.804  10.307  17.302  0.00  0.00    +0.000 C 
ATOM     20  C   UNL     1      -3.682  11.012  16.319  0.00  0.00    +0.000 C 
ATOM     21  C   UNL     1      -2.808   9.882  15.855  0.00  0.00    +0.000 C 
ENDBRANCH  10  19
BRANCH   1  22
ATOM     22  C   UNL     1      -5.351  12.375  21.199  0.00  0.00    +0.000 C 
ATOM     23  O   UNL     1      -6.403  12.110  21.763  0.00  0.00    +0.000 OA
BRANCH  22  24
ATOM     24  O   UNL     1      -5.111  12.212  19.856  0.00  0.00    +0.000 OA
BRANCH  24  26
ATOM     25  C   UNL     1      -6.625  10.894  18.497  0.00  0.00    +0.000 C 
ATOM     26  C   UNL     1      -6.186  12.290  18.915  0.00  0.00    +0.000 C 
ENDBRANCH  24  26
ENDBRANCH  22  24
ENDBRANCH   1  22
TORSDOF 4
ENDMDL
MODEL 9
REMARK VINA RESULT:      -6.4      8.012     11.452
REMARK  Name = 
REMARK  5 active torsions:
REMARK  status: ('A' for Active; 'I' for Inactive)
REMARK    1  A    between atoms: C_1  and  C_2
REMARK    2  A    between atoms: C_2  and  O_3
REMARK    3  A    between atoms: O_3  and  C_4
REMARK    4  A    between atoms: C_4  and  C_6
REMARK    5  A    between atoms: C_15  and  C_16
REMARK                            x       y       z     vdW  Elec       q    Type
REMARK                         _______ _______ _______ _____ _____    ______ ____
ROOT
ATOM      1  C   UNL     1      -2.426  11.517  17.697  0.00  0.00    +0.000 A 
ATOM      2  N   UNL     1      -1.457  10.711  17.133  0.00  0.00    +0.000 NA
ATOM      3  C   UNL     1      -0.798  10.240  18.166  0.00  0.00    +0.000 A 
ATOM      4  N   UNL     1      -1.298  10.756  19.342  0.00  0.00    +0.000 N 
ATOM      5  C   UNL     1      -1.892  11.932  18.918  0.00  0.00    +0.000 A 
ATOM      6  C   UNL     1      -1.232  13.190  19.437  0.00  0.00    +0.000 C 
ATOM      7  C   UNL     1      -1.774  13.501  20.796  0.00  0.00    +0.000 A 
ATOM      8  C   UNL     1      -2.309  14.736  21.050  0.00  0.00    +0.000 A 
ATOM      9  N   UNL     1      -3.472  14.850  21.686  0.00  0.00    +0.000 NA
ATOM     10  C   UNL     1      -4.085  13.687  21.988  0.00  0.00    +0.000 A 
ATOM     11  N   UNL     1      -3.395  12.538  22.195  0.00  0.00    +0.000 NA
ATOM     12  C   UNL     1      -2.176  12.473  21.629  0.00  0.00    +0.000 A 
ATOM     13  C   UNL     1      -1.377  11.220  21.760  0.00  0.00    +0.000 A 
ATOM     14  C   UNL     1      -0.828  10.888  23.015  0.00  0.00    +0.000 A 
ATOM     15  C   UNL     1       0.026   9.783  23.180  0.00  0.00    +0.000 A 
ATOM     16  C   UNL     1       0.297   8.929  22.122  0.00  0.00    +0.000 A 
ATOM     17  C   UNL     1      -0.224   9.229  20.861  0.00  0.00    +0.000 A 
ATOM     18  C   UNL     1      -0.988  10.397  20.671  0.00  0.00    +0.000 A 
ENDROOT
BRANCH  10  19
ATOM     19  C   UNL     1      -5.533  13.626  21.529  0.00  0.00    +0.000 C 
ATOM     20  C   UNL     1      -6.514  12.571  21.928  0.00  0.00    +0.000 C 
ATOM     21  C   UNL     1      -6.639  13.955  22.499  0.00  0.00    +0.000 C 
ENDBRANCH  10  19
BRANCH   1  22
ATOM     22  C   UNL     1      -3.850  11.279  17.333  0.00  0.00    +0.000 C 
ATOM     23  O   UNL     1      -4.261  11.120  16.192  0.00  0.00    +0.000 OA
BRANCH  22  24
ATOM     24  O   UNL     1      -4.642  11.411  18.448  0.00  0.00    +0.000 OA
BRANCH  24  26
ATOM     25  C   UNL     1      -6.793  10.378  18.874  0.00  0.00    +0.000 C 
ATOM     26  C   UNL     1      -6.056  11.585  18.313  0.00  0.00    +0.000 C 
ENDBRANCH  24  26
ENDBRANCH  22  24
ENDBRANCH   1  22
TORSDOF 4
ENDMDL
