MODEL 1
REMARK VINA RESULT:      -7.8      0.000      0.000
REMARK  Name = 
REMARK  5 active torsions:
REMARK  status: ('A' for Active; 'I' for Inactive)
REMARK    1  A    between atoms: C_2  and  C_12
REMARK    2  A    between atoms: N_3  and  C_4
REMARK    3  A    between atoms: C_4  and  C_5
REMARK    4  A    between atoms: C_5  and  C_6
REMARK    5  A    between atoms: C_21  and  C_23
REMARK                            x       y       z     vdW  Elec       q    Type
REMARK                         _______ _______ _______ _____ _____    ______ ____
ROOT
ATOM      1  C   UNL     1       3.813   3.013  19.768  0.00  0.00    +0.000 A 
ATOM      2  N   UNL     1       4.918   3.735  19.631  0.00  0.00    +0.000 NA
ATOM      3  C   UNL     1       5.121   4.047  18.315  0.00  0.00    +0.000 A 
ATOM      4  C   UNL     1       4.247   3.407  17.455  0.00  0.00    +0.000 A 
ATOM      5  S   UNL     1       3.156   2.407  18.311  0.00  0.00    +0.000 S 
ATOM      6  C   UNL     1       4.191   3.597  15.983  0.00  0.00    +0.000 C 
ATOM      7  C   UNL     1       5.502   4.225  15.515  0.00  0.00    +0.000 C 
ATOM      8  C   UNL     1       5.893   5.398  16.417  0.00  0.00    +0.000 C 
ATOM      9  N   UNL     1       6.063   4.987  17.824  0.00  0.00    +0.000 N 
ATOM     10  C   UNL     1       7.017   5.588  18.674  0.00  0.00    +0.000 C 
ATOM     11  O   UNL     1       7.182   5.310  19.851  0.00  0.00    +0.000 OA
ENDROOT
BRANCH   1  13
ATOM     12  O   UNL     1       3.192   2.332  21.906  0.00  0.00    +0.000 OA
ATOM     13  C   UNL     1       3.022   3.137  20.979  0.00  0.00    +0.000 C 
ATOM     14  N   UNL     1       2.098   4.115  21.296  0.00  0.00    +0.000 N 
ATOM     15  H   UNL     1       1.620   3.871  22.157  0.00  0.00    +0.000 HD
BRANCH  14  16
ATOM     16  C   UNL     1       1.387   5.117  20.520  0.00  0.00    +0.000 C 
BRANCH  16  17
ATOM     17  C   UNL     1       1.879   6.554  20.863  0.00  0.00    +0.000 C 
BRANCH  17  18
ATOM     18  C   UNL     1       1.832   7.633  19.799  0.00  0.00    +0.000 A 
ATOM     19  C   UNL     1       2.444   7.516  18.544  0.00  0.00    +0.000 A 
ATOM     20  C   UNL     1       2.398   8.584  17.642  0.00  0.00    +0.000 A 
ATOM     21  C   UNL     1       1.744   9.748  18.016  0.00  0.00    +0.000 A 
ATOM     22  N   UNL     1       1.171   9.915  19.218  0.00  0.00    +0.000 NA
ATOM     23  C   UNL     1       1.229   8.866  20.073  0.00  0.00    +0.000 A 
ENDBRANCH  17  18
ENDBRANCH  16  17
ENDBRANCH  14  16
ENDBRANCH   1  13
BRANCH  10  24
ATOM     24  C   UNL     1       7.953   6.598  18.050  0.00  0.00    +0.000 C 
ATOM     25  C   UNL     1       7.497   7.965  17.590  0.00  0.00    +0.000 C 
ATOM     26  C   UNL     1       8.300   7.842  18.849  0.00  0.00    +0.000 C 
ENDBRANCH  10  24
TORSDOF 5
ENDMDL
MODEL 2
REMARK VINA RESULT:      -7.7      3.081      6.622
REMARK  Name = 
REMARK  5 active torsions:
REMARK  status: ('A' for Active; 'I' for Inactive)
REMARK    1  A    between atoms: C_2  and  C_12
REMARK    2  A    between atoms: N_3  and  C_4
REMARK    3  A    between atoms: C_4  and  C_5
REMARK    4  A    between atoms: C_5  and  C_6
REMARK    5  A    between atoms: C_21  and  C_23
REMARK                            x       y       z     vdW  Elec       q    Type
REMARK                         _______ _______ _______ _____ _____    ______ ____
ROOT
ATOM      1  C   UNL     1       5.632   5.633  16.868  0.00  0.00    +0.000 A 
ATOM      2  N   UNL     1       4.665   6.531  17.012  0.00  0.00    +0.000 NA
ATOM      3  C   UNL     1       3.879   6.213  18.085  0.00  0.00    +0.000 A 
ATOM      4  C   UNL     1       4.169   4.978  18.636  0.00  0.00    +0.000 A 
ATOM      5  S   UNL     1       5.448   4.212  17.799  0.00  0.00    +0.000 S 
ATOM      6  C   UNL     1       3.522   4.397  19.840  0.00  0.00    +0.000 C 
ATOM      7  C   UNL     1       2.207   5.131  20.098  0.00  0.00    +0.000 C 
ATOM      8  C   UNL     1       2.404   6.646  19.999  0.00  0.00    +0.000 C 
ATOM      9  N   UNL     1       2.900   7.058  18.671  0.00  0.00    +0.000 N 
ATOM     10  C   UNL     1       2.532   8.284  18.076  0.00  0.00    +0.000 C 
ATOM     11  O   UNL     1       2.934   8.689  16.997  0.00  0.00    +0.000 OA
ENDROOT
BRANCH   1  13
ATOM     12  O   UNL     1       7.359   5.497  15.313  0.00  0.00    +0.000 OA
ATOM     13  C   UNL     1       6.917   6.045  16.333  0.00  0.00    +0.000 C 
ATOM     14  N   UNL     1       7.741   7.059  16.782  0.00  0.00    +0.000 N 
ATOM     15  H   UNL     1       8.624   7.031  16.285  0.00  0.00    +0.000 HD
BRANCH  14  16
ATOM     16  C   UNL     1       7.810   7.829  18.013  0.00  0.00    +0.000 C 
BRANCH  16  17
ATOM     17  C   UNL     1       7.865   9.358  17.723  0.00  0.00    +0.000 C 
BRANCH  17  18
ATOM     18  C   UNL     1       8.923  10.208  18.401  0.00  0.00    +0.000 A 
ATOM     19  C   UNL     1       9.901  10.933  17.708  0.00  0.00    +0.000 A 
ATOM     20  C   UNL     1      10.874  11.647  18.415  0.00  0.00    +0.000 A 
ATOM     21  C   UNL     1      10.850  11.617  19.801  0.00  0.00    +0.000 A 
ATOM     22  N   UNL     1       9.952  10.911  20.505  0.00  0.00    +0.000 NA
ATOM     23  C   UNL     1       9.019  10.229  19.796  0.00  0.00    +0.000 A 
ENDBRANCH  17  18
ENDBRANCH  16  17
ENDBRANCH  14  16
ENDBRANCH   1  13
BRANCH  10  24
ATOM     24  C   UNL     1       1.502   9.117  18.803  0.00  0.00    +0.000 C 
ATOM     25  C   UNL     1       1.309  10.595  18.544  0.00  0.00    +0.000 C 
ATOM     26  C   UNL     1       0.302   9.618  18.018  0.00  0.00    +0.000 C 
ENDBRANCH  10  24
TORSDOF 5
ENDMDL
MODEL 3
REMARK VINA RESULT:      -7.6      0.691      1.307
REMARK  Name = 
REMARK  5 active torsions:
REMARK  status: ('A' for Active; 'I' for Inactive)
REMARK    1  A    between atoms: C_2  and  C_12
REMARK    2  A    between atoms: N_3  and  C_4
REMARK    3  A    between atoms: C_4  and  C_5
REMARK    4  A    between atoms: C_5  and  C_6
REMARK    5  A    between atoms: C_21  and  C_23
REMARK                            x       y       z     vdW  Elec       q    Type
REMARK                         _______ _______ _______ _____ _____    ______ ____
ROOT
ATOM      1  C   UNL     1       3.647   3.108  19.782  0.00  0.00    +0.000 A 
ATOM      2  N   UNL     1       4.762   3.814  19.642  0.00  0.00    +0.000 NA
ATOM      3  C   UNL     1       5.016   4.041  18.317  0.00  0.00    +0.000 A 
ATOM      4  C   UNL     1       4.170   3.353  17.466  0.00  0.00    +0.000 A 
ATOM      5  S   UNL     1       3.039   2.416  18.342  0.00  0.00    +0.000 S 
ATOM      6  C   UNL     1       4.170   3.450  15.984  0.00  0.00    +0.000 C 
ATOM      7  C   UNL     1       5.504   4.039  15.528  0.00  0.00    +0.000 C 
ATOM      8  C   UNL     1       5.870   5.265  16.368  0.00  0.00    +0.000 C 
ATOM      9  N   UNL     1       5.985   4.942  17.804  0.00  0.00    +0.000 N 
ATOM     10  C   UNL     1       6.912   5.589  18.650  0.00  0.00    +0.000 C 
ATOM     11  O   UNL     1       7.030   5.385  19.847  0.00  0.00    +0.000 OA
ENDROOT
BRANCH   1  13
ATOM     12  O   UNL     1       2.890   2.526  21.905  0.00  0.00    +0.000 OA
ATOM     13  C   UNL     1       2.812   3.314  20.952  0.00  0.00    +0.000 C 
ATOM     14  N   UNL     1       1.938   4.355  21.202  0.00  0.00    +0.000 N 
ATOM     15  H   UNL     1       1.409   4.164  22.046  0.00  0.00    +0.000 HD
BRANCH  14  16
ATOM     16  C   UNL     1       1.327   5.377  20.370  0.00  0.00    +0.000 C 
BRANCH  16  17
ATOM     17  C   UNL     1       2.251   6.623  20.231  0.00  0.00    +0.000 C 
BRANCH  17  18
ATOM     18  C   UNL     1       1.657   8.011  20.368  0.00  0.00    +0.000 A 
ATOM     19  C   UNL     1       1.202   8.547  21.580  0.00  0.00    +0.000 A 
ATOM     20  C   UNL     1       0.616   9.817  21.606  0.00  0.00    +0.000 A 
ATOM     21  C   UNL     1       0.494  10.522  20.419  0.00  0.00    +0.000 A 
ATOM     22  N   UNL     1       0.888  10.036  19.232  0.00  0.00    +0.000 NA
ATOM     23  C   UNL     1       1.453   8.804  19.233  0.00  0.00    +0.000 A 
ENDBRANCH  17  18
ENDBRANCH  16  17
ENDBRANCH  14  16
ENDBRANCH   1  13
BRANCH  10  24
ATOM     24  C   UNL     1       7.878   6.552  17.999  0.00  0.00    +0.000 C 
ATOM     25  C   UNL     1       7.500   7.967  17.623  0.00  0.00    +0.000 C 
ATOM     26  C   UNL     1       8.374   7.731  18.817  0.00  0.00    +0.000 C 
ENDBRANCH  10  24
TORSDOF 5
ENDMDL
MODEL 4
REMARK VINA RESULT:      -7.6      2.655      6.764
REMARK  Name = 
REMARK  5 active torsions:
REMARK  status: ('A' for Active; 'I' for Inactive)
REMARK    1  A    between atoms: C_2  and  C_12
REMARK    2  A    between atoms: N_3  and  C_4
REMARK    3  A    between atoms: C_4  and  C_5
REMARK    4  A    between atoms: C_5  and  C_6
REMARK    5  A    between atoms: C_21  and  C_23
REMARK                            x       y       z     vdW  Elec       q    Type
REMARK                         _______ _______ _______ _____ _____    ______ ____
ROOT
ATOM      1  C   UNL     1       2.222   6.468  19.994  0.00  0.00    +0.000 A 
ATOM      2  N   UNL     1       1.543   7.374  20.687  0.00  0.00    +0.000 NA
ATOM      3  C   UNL     1       1.372   8.509  19.942  0.00  0.00    +0.000 A 
ATOM      4  C   UNL     1       2.076   8.500  18.752  0.00  0.00    +0.000 A 
ATOM      5  S   UNL     1       2.957   7.047  18.564  0.00  0.00    +0.000 S 
ATOM      6  C   UNL     1       2.036   9.565  17.718  0.00  0.00    +0.000 C 
ATOM      7  C   UNL     1       1.490  10.846  18.348  0.00  0.00    +0.000 C 
ATOM      8  C   UNL     1       0.240  10.549  19.180  0.00  0.00    +0.000 C 
ATOM      9  N   UNL     1       0.510   9.588  20.268  0.00  0.00    +0.000 N 
ATOM     10  C   UNL     1      -0.152   9.654  21.513  0.00  0.00    +0.000 C 
ATOM     11  O   UNL     1       0.008   8.871  22.435  0.00  0.00    +0.000 OA
ENDROOT
BRANCH   1  13
ATOM     12  O   UNL     1       1.927   4.608  21.364  0.00  0.00    +0.000 OA
ATOM     13  C   UNL     1       1.956   5.057  20.208  0.00  0.00    +0.000 C 
ATOM     14  N   UNL     1       1.649   4.094  19.265  0.00  0.00    +0.000 N 
ATOM     15  H   UNL     1       1.635   3.178  19.700  0.00  0.00    +0.000 HD
BRANCH  14  16
ATOM     16  C   UNL     1       1.766   4.032  17.818  0.00  0.00    +0.000 C 
BRANCH  16  17
ATOM     17  C   UNL     1       2.970   3.145  17.383  0.00  0.00    +0.000 C 
BRANCH  17  18
ATOM     18  C   UNL     1       4.363   3.745  17.347  0.00  0.00    +0.000 A 
ATOM     19  C   UNL     1       5.039   4.074  16.165  0.00  0.00    +0.000 A 
ATOM     20  C   UNL     1       6.345   4.572  16.223  0.00  0.00    +0.000 A 
ATOM     21  C   UNL     1       6.948   4.726  17.461  0.00  0.00    +0.000 A 
ATOM     22  N   UNL     1       6.350   4.395  18.616  0.00  0.00    +0.000 NA
ATOM     23  C   UNL     1       5.085   3.916  18.534  0.00  0.00    +0.000 A 
ENDBRANCH  17  18
ENDBRANCH  16  17
ENDBRANCH  14  16
ENDBRANCH   1  13
BRANCH  10  24
ATOM     24  C   UNL     1      -1.070  10.832  21.740  0.00  0.00    +0.000 C 
ATOM     25  C   UNL     1      -1.497  11.288  23.118  0.00  0.00    +0.000 C 
ATOM     26  C   UNL     1      -0.483  12.089  22.359  0.00  0.00    +0.000 C 
ENDBRANCH  10  24
TORSDOF 5
ENDMDL
MODEL 5
REMARK VINA RESULT:      -7.5      3.157      6.627
REMARK  Name = 
REMARK  5 active torsions:
REMARK  status: ('A' for Active; 'I' for Inactive)
REMARK    1  A    between atoms: C_2  and  C_12
REMARK    2  A    between atoms: N_3  and  C_4
REMARK    3  A    between atoms: C_4  and  C_5
REMARK    4  A    between atoms: C_5  and  C_6
REMARK    5  A    between atoms: C_21  and  C_23
REMARK                            x       y       z     vdW  Elec       q    Type
REMARK                         _______ _______ _______ _____ _____    ______ ____
ROOT
ATOM      1  C   UNL     1       4.971   5.914  17.130  0.00  0.00    +0.000 A 
ATOM      2  N   UNL     1       4.045   6.853  17.277  0.00  0.00    +0.000 NA
ATOM      3  C   UNL     1       3.301   6.613  18.401  0.00  0.00    +0.000 A 
ATOM      4  C   UNL     1       3.575   5.394  18.994  0.00  0.00    +0.000 A 
ATOM      5  S   UNL     1       4.783   4.543  18.134  0.00  0.00    +0.000 S 
ATOM      6  C   UNL     1       2.968   4.892  20.253  0.00  0.00    +0.000 C 
ATOM      7  C   UNL     1       1.694   5.685  20.539  0.00  0.00    +0.000 C 
ATOM      8  C   UNL     1       1.938   7.185  20.360  0.00  0.00    +0.000 C 
ATOM      9  N   UNL     1       2.383   7.519  18.993  0.00  0.00    +0.000 N 
ATOM     10  C   UNL     1       2.030   8.730  18.360  0.00  0.00    +0.000 C 
ATOM     11  O   UNL     1       2.392   9.071  17.245  0.00  0.00    +0.000 OA
ENDROOT
BRANCH   1  13
ATOM     12  O   UNL     1       6.704   5.526  15.624  0.00  0.00    +0.000 OA
ATOM     13  C   UNL     1       6.242   6.253  16.516  0.00  0.00    +0.000 C 
ATOM     14  N   UNL     1       7.030   7.365  16.747  0.00  0.00    +0.000 N 
ATOM     15  H   UNL     1       7.914   7.267  16.260  0.00  0.00    +0.000 HD
BRANCH  14  16
ATOM     16  C   UNL     1       7.070   8.369  17.797  0.00  0.00    +0.000 C 
BRANCH  16  17
ATOM     17  C   UNL     1       8.532   8.665  18.243  0.00  0.00    +0.000 C 
BRANCH  17  18
ATOM     18  C   UNL     1       8.911  10.070  18.670  0.00  0.00    +0.000 A 
ATOM     19  C   UNL     1       9.451  10.384  19.924  0.00  0.00    +0.000 A 
ATOM     20  C   UNL     1       9.720  11.716  20.256  0.00  0.00    +0.000 A 
ATOM     21  C   UNL     1       9.439  12.706  19.327  0.00  0.00    +0.000 A 
ATOM     22  N   UNL     1       8.893  12.455  18.128  0.00  0.00    +0.000 NA
ATOM     23  C   UNL     1       8.643  11.157  17.830  0.00  0.00    +0.000 A 
ENDBRANCH  17  18
ENDBRANCH  16  17
ENDBRANCH  14  16
ENDBRANCH   1  13
BRANCH  10  24
ATOM     24  C   UNL     1       1.066   9.633  19.096  0.00  0.00    +0.000 C 
ATOM     25  C   UNL     1       0.806  11.065  18.685  0.00  0.00    +0.000 C 
ATOM     26  C   UNL     1      -0.227  10.019  18.399  0.00  0.00    +0.000 C 
ENDBRANCH  10  24
TORSDOF 5
ENDMDL
MODEL 6
REMARK VINA RESULT:      -7.4      3.273      6.603
REMARK  Name = 
REMARK  5 active torsions:
REMARK  status: ('A' for Active; 'I' for Inactive)
REMARK    1  A    between atoms: C_2  and  C_12
REMARK    2  A    between atoms: N_3  and  C_4
REMARK    3  A    between atoms: C_4  and  C_5
REMARK    4  A    between atoms: C_5  and  C_6
REMARK    5  A    between atoms: C_21  and  C_23
REMARK                            x       y       z     vdW  Elec       q    Type
REMARK                         _______ _______ _______ _____ _____    ______ ____
ROOT
ATOM      1  C   UNL     1       6.519   5.940  18.308  0.00  0.00    +0.000 A 
ATOM      2  N   UNL     1       5.486   5.445  18.978  0.00  0.00    +0.000 NA
ATOM      3  C   UNL     1       4.769   4.593  18.182  0.00  0.00    +0.000 A 
ATOM      4  C   UNL     1       5.184   4.590  16.862  0.00  0.00    +0.000 A 
ATOM      5  S   UNL     1       6.492   5.666  16.622  0.00  0.00    +0.000 S 
ATOM      6  C   UNL     1       4.635   3.726  15.787  0.00  0.00    +0.000 C 
ATOM      7  C   UNL     1       3.272   3.193  16.228  0.00  0.00    +0.000 C 
ATOM      8  C   UNL     1       3.335   2.669  17.665  0.00  0.00    +0.000 C 
ATOM      9  N   UNL     1       3.745   3.715  18.622  0.00  0.00    +0.000 N 
ATOM     10  C   UNL     1       3.252   3.761  19.944  0.00  0.00    +0.000 C 
ATOM     11  O   UNL     1       3.577   4.583  20.786  0.00  0.00    +0.000 OA
ENDROOT
BRANCH   1  13
ATOM     12  O   UNL     1       8.210   5.449  19.831  0.00  0.00    +0.000 OA
ATOM     13  C   UNL     1       7.744   6.261  19.019  0.00  0.00    +0.000 C 
ATOM     14  N   UNL     1       8.548   7.375  18.870  0.00  0.00    +0.000 N 
ATOM     15  H   UNL     1       9.267   7.379  19.585  0.00  0.00    +0.000 HD
BRANCH  14  16
ATOM     16  C   UNL     1       8.360   8.675  18.250  0.00  0.00    +0.000 C 
BRANCH  16  17
ATOM     17  C   UNL     1       8.967   9.813  19.123  0.00  0.00    +0.000 C 
BRANCH  17  18
ATOM     18  C   UNL     1       9.602  11.014  18.447  0.00  0.00    +0.000 A 
ATOM     19  C   UNL     1      10.982  11.158  18.251  0.00  0.00    +0.000 A 
ATOM     20  C   UNL     1      11.486  12.325  17.668  0.00  0.00    +0.000 A 
ATOM     21  C   UNL     1      10.600  13.325  17.298  0.00  0.00    +0.000 A 
ATOM     22  N   UNL     1       9.276  13.242  17.495  0.00  0.00    +0.000 NA
ATOM     23  C   UNL     1       8.811  12.102  18.060  0.00  0.00    +0.000 A 
ENDBRANCH  17  18
ENDBRANCH  16  17
ENDBRANCH  14  16
ENDBRANCH   1  13
BRANCH  10  24
ATOM     24  C   UNL     1       2.183   2.759  20.313  0.00  0.00    +0.000 C 
ATOM     25  C   UNL     1       1.415   2.818  21.615  0.00  0.00    +0.000 C 
ATOM     26  C   UNL     1       0.739   3.231  20.344  0.00  0.00    +0.000 C 
ENDBRANCH  10  24
TORSDOF 5
ENDMDL
MODEL 7
REMARK VINA RESULT:      -7.4      2.588      6.800
REMARK  Name = 
REMARK  5 active torsions:
REMARK  status: ('A' for Active; 'I' for Inactive)
REMARK    1  A    between atoms: C_2  and  C_12
REMARK    2  A    between atoms: N_3  and  C_4
REMARK    3  A    between atoms: C_4  and  C_5
REMARK    4  A    between atoms: C_5  and  C_6
REMARK    5  A    between atoms: C_21  and  C_23
REMARK                            x       y       z     vdW  Elec       q    Type
REMARK                         _______ _______ _______ _____ _____    ______ ____
ROOT
ATOM      1  C   UNL     1       2.346   6.310  19.917  0.00  0.00    +0.000 A 
ATOM      2  N   UNL     1       1.678   7.224  20.610  0.00  0.00    +0.000 NA
ATOM      3  C   UNL     1       1.478   8.343  19.848  0.00  0.00    +0.000 A 
ATOM      4  C   UNL     1       2.151   8.316  18.640  0.00  0.00    +0.000 A 
ATOM      5  S   UNL     1       3.039   6.866  18.457  0.00  0.00    +0.000 S 
ATOM      6  C   UNL     1       2.075   9.361  17.587  0.00  0.00    +0.000 C 
ATOM      7  C   UNL     1       1.535  10.649  18.206  0.00  0.00    +0.000 C 
ATOM      8  C   UNL     1       0.310  10.359  19.077  0.00  0.00    +0.000 C 
ATOM      9  N   UNL     1       0.616   9.421  20.175  0.00  0.00    +0.000 N 
ATOM     10  C   UNL     1      -0.014   9.507  21.436  0.00  0.00    +0.000 C 
ATOM     11  O   UNL     1       0.177   8.743  22.368  0.00  0.00    +0.000 OA
ENDROOT
BRANCH   1  13
ATOM     12  O   UNL     1       1.091   4.561  20.805  0.00  0.00    +0.000 OA
ATOM     13  C   UNL     1       2.097   4.901  20.166  0.00  0.00    +0.000 C 
ATOM     14  N   UNL     1       2.825   3.815  19.717  0.00  0.00    +0.000 N 
ATOM     15  H   UNL     1       2.479   2.966  20.151  0.00  0.00    +0.000 HD
BRANCH  14  16
ATOM     16  C   UNL     1       4.153   3.660  19.150  0.00  0.00    +0.000 C 
BRANCH  16  17
ATOM     17  C   UNL     1       4.091   3.465  17.606  0.00  0.00    +0.000 C 
BRANCH  17  18
ATOM     18  C   UNL     1       5.199   4.031  16.737  0.00  0.00    +0.000 A 
ATOM     19  C   UNL     1       5.160   4.045  15.337  0.00  0.00    +0.000 A 
ATOM     20  C   UNL     1       6.251   4.536  14.613  0.00  0.00    +0.000 A 
ATOM     21  C   UNL     1       7.361   4.998  15.305  0.00  0.00    +0.000 A 
ATOM     22  N   UNL     1       7.453   4.974  16.644  0.00  0.00    +0.000 NA
ATOM     23  C   UNL     1       6.382   4.495  17.322  0.00  0.00    +0.000 A 
ENDBRANCH  17  18
ENDBRANCH  16  17
ENDBRANCH  14  16
ENDBRANCH   1  13
BRANCH  10  24
ATOM     24  C   UNL     1      -0.936  10.682  21.664  0.00  0.00    +0.000 C 
ATOM     25  C   UNL     1      -1.326  11.165  23.043  0.00  0.00    +0.000 C 
ATOM     26  C   UNL     1      -0.342  11.957  22.238  0.00  0.00    +0.000 C 
ENDBRANCH  10  24
TORSDOF 5
ENDMDL
MODEL 8
REMARK VINA RESULT:      -7.3      3.189      7.513
REMARK  Name = 
REMARK  5 active torsions:
REMARK  status: ('A' for Active; 'I' for Inactive)
REMARK    1  A    between atoms: C_2  and  C_12
REMARK    2  A    between atoms: N_3  and  C_4
REMARK    3  A    between atoms: C_4  and  C_5
REMARK    4  A    between atoms: C_5  and  C_6
REMARK    5  A    between atoms: C_21  and  C_23
REMARK                            x       y       z     vdW  Elec       q    Type
REMARK                         _______ _______ _______ _____ _____    ______ ____
ROOT
ATOM      1  C   UNL     1       5.119   6.039  17.274  0.00  0.00    +0.000 A 
ATOM      2  N   UNL     1       4.149   6.937  17.388  0.00  0.00    +0.000 NA
ATOM      3  C   UNL     1       3.358   6.646  18.467  0.00  0.00    +0.000 A 
ATOM      4  C   UNL     1       3.651   5.428  19.052  0.00  0.00    +0.000 A 
ATOM      5  S   UNL     1       4.936   4.643  18.243  0.00  0.00    +0.000 S 
ATOM      6  C   UNL     1       3.000   4.878  20.269  0.00  0.00    +0.000 C 
ATOM      7  C   UNL     1       1.682   5.614  20.501  0.00  0.00    +0.000 C 
ATOM      8  C   UNL     1       1.873   7.126  20.361  0.00  0.00    +0.000 C 
ATOM      9  N   UNL     1       2.374   7.503  19.025  0.00  0.00    +0.000 N 
ATOM     10  C   UNL     1       2.005   8.711  18.395  0.00  0.00    +0.000 C 
ATOM     11  O   UNL     1       2.410   9.087  17.307  0.00  0.00    +0.000 OA
ENDROOT
BRANCH   1  13
ATOM     12  O   UNL     1       6.892   7.534  17.059  0.00  0.00    +0.000 OA
ATOM     13  C   UNL     1       6.405   6.441  16.733  0.00  0.00    +0.000 C 
ATOM     14  N   UNL     1       7.247   5.717  15.910  0.00  0.00    +0.000 N 
ATOM     15  H   UNL     1       8.015   6.304  15.602  0.00  0.00    +0.000 HD
BRANCH  14  16
ATOM     16  C   UNL     1       7.075   4.532  15.087  0.00  0.00    +0.000 C 
BRANCH  16  17
ATOM     17  C   UNL     1       6.708   4.908  13.621  0.00  0.00    +0.000 C 
BRANCH  17  18
ATOM     18  C   UNL     1       6.339   3.811  12.640  0.00  0.00    +0.000 A 
ATOM     19  C   UNL     1       5.022   3.508  12.271  0.00  0.00    +0.000 A 
ATOM     20  C   UNL     1       4.769   2.442  11.402  0.00  0.00    +0.000 A 
ATOM     21  C   UNL     1       5.837   1.700  10.923  0.00  0.00    +0.000 A 
ATOM     22  N   UNL     1       7.111   1.936  11.274  0.00  0.00    +0.000 NA
ATOM     23  C   UNL     1       7.331   2.974  12.117  0.00  0.00    +0.000 A 
ENDBRANCH  17  18
ENDBRANCH  16  17
ENDBRANCH  14  16
ENDBRANCH   1  13
BRANCH  10  24
ATOM     24  C   UNL     1       0.968   9.560  19.094  0.00  0.00    +0.000 C 
ATOM     25  C   UNL     1       0.776  11.031  18.799  0.00  0.00    +0.000 C 
ATOM     26  C   UNL     1      -0.226  10.041  18.288  0.00  0.00    +0.000 C 
ENDBRANCH  10  24
TORSDOF 5
ENDMDL
MODEL 9
REMARK VINA RESULT:      -7.3      3.361      7.577
REMARK  Name = 
REMARK  5 active torsions:
REMARK  status: ('A' for Active; 'I' for Inactive)
REMARK    1  A    between atoms: C_2  and  C_12
REMARK    2  A    between atoms: N_3  and  C_4
REMARK    3  A    between atoms: C_4  and  C_5
REMARK    4  A    between atoms: C_5  and  C_6
REMARK    5  A    between atoms: C_21  and  C_23
REMARK                            x       y       z     vdW  Elec       q    Type
REMARK                         _______ _______ _______ _____ _____    ______ ____
ROOT
ATOM      1  C   UNL     1       6.411   5.410  17.417  0.00  0.00    +0.000 A 
ATOM      2  N   UNL     1       5.388   4.721  17.906  0.00  0.00    +0.000 NA
ATOM      3  C   UNL     1       4.270   5.508  17.963  0.00  0.00    +0.000 A 
ATOM      4  C   UNL     1       4.515   6.837  17.669  0.00  0.00    +0.000 A 
ATOM      5  S   UNL     1       6.167   7.099  17.313  0.00  0.00    +0.000 S 
ATOM      6  C   UNL     1       3.488   7.907  17.594  0.00  0.00    +0.000 C 
ATOM      7  C   UNL     1       2.230   7.438  18.324  0.00  0.00    +0.000 C 
ATOM      8  C   UNL     1       1.867   6.008  17.914  0.00  0.00    +0.000 C 
ATOM      9  N   UNL     1       2.950   5.051  18.213  0.00  0.00    +0.000 N 
ATOM     10  C   UNL     1       2.691   3.716  18.595  0.00  0.00    +0.000 C 
ATOM     11  O   UNL     1       3.544   2.875  18.826  0.00  0.00    +0.000 OA
ENDROOT
BRANCH   1  13
ATOM     12  O   UNL     1       8.333   4.112  17.214  0.00  0.00    +0.000 OA
ATOM     13  C   UNL     1       7.426   4.727  16.635  0.00  0.00    +0.000 C 
ATOM     14  N   UNL     1       7.500   4.601  15.261  0.00  0.00    +0.000 N 
ATOM     15  H   UNL     1       8.383   4.174  15.002  0.00  0.00    +0.000 HD
BRANCH  14  16
ATOM     16  C   UNL     1       6.854   5.282  14.152  0.00  0.00    +0.000 C 
BRANCH  16  17
ATOM     17  C   UNL     1       7.408   4.789  12.783  0.00  0.00    +0.000 C 
BRANCH  17  18
ATOM     18  C   UNL     1       6.838   3.531  12.157  0.00  0.00    +0.000 A 
ATOM     19  C   UNL     1       7.620   2.534  11.559  0.00  0.00    +0.000 A 
ATOM     20  C   UNL     1       7.006   1.432  10.955  0.00  0.00    +0.000 A 
ATOM     21  C   UNL     1       5.622   1.352  10.959  0.00  0.00    +0.000 A 
ATOM     22  N   UNL     1       4.833   2.297  11.493  0.00  0.00    +0.000 NA
ATOM     23  C   UNL     1       5.452   3.354  12.072  0.00  0.00    +0.000 A 
ENDBRANCH  17  18
ENDBRANCH  16  17
ENDBRANCH  14  16
ENDBRANCH   1  13
BRANCH  10  24
ATOM     24  C   UNL     1       1.245   3.332  18.807  0.00  0.00    +0.000 C 
ATOM     25  C   UNL     1       0.823   1.980  19.339  0.00  0.00    +0.000 C 
ATOM     26  C   UNL     1       0.746   3.180  20.233  0.00  0.00    +0.000 C 
ENDBRANCH  10  24
TORSDOF 5
ENDMDL
