MODEL 1
REMARK VINA RESULT:      -8.3      0.000      0.000
REMARK  Name = 
REMARK  9 active torsions:
REMARK  status: ('A' for Active; 'I' for Inactive)
REMARK    1  A    between atoms: N_1  and  C_2
REMARK    2  A    between atoms: N_10  and  C_11
REMARK    3  A    between atoms: C_13  and  C_14
REMARK    4  A    between atoms: C_14  and  O_15
REMARK    5  A    between atoms: O_15  and  S_16
REMARK    6  A    between atoms: S_16  and  N_19
REMARK    7  A    between atoms: C_20  and  C_22
REMARK    8  A    between atoms: C_29  and  O_30
REMARK    9  A    between atoms: C_31  and  O_32
REMARK                            x       y       z     vdW  Elec       q    Type
REMARK                         _______ _______ _______ _____ _____    ______ ____
ROOT
ATOM      1  C   UNL     1       2.603   5.630  19.972  0.00  0.00    +0.000 C 
ATOM      2  O   UNL     1       4.042   5.505  20.009  0.00  0.00    +0.000 OA
ATOM      3  C   UNL     1       4.406   4.155  19.615  0.00  0.00    +0.000 C 
ATOM      4  C   UNL     1       3.109   3.343  19.612  0.00  0.00    +0.000 C 
ATOM      5  C   UNL     1       2.035   4.377  19.307  0.00  0.00    +0.000 C 
ENDROOT
BRANCH   1  14
ATOM      6  C   UNL     1       1.079  10.193  19.317  0.00  0.00    +0.000 A 
ATOM      7  N   UNL     1       0.617  10.354  20.578  0.00  0.00    +0.000 NA
ATOM      8  C   UNL     1       0.709   9.313  21.434  0.00  0.00    +0.000 A 
ATOM      9  N   UNL     1       1.206   8.083  21.197  0.00  0.00    +0.000 NA
ATOM     10  C   UNL     1       1.631   7.964  19.925  0.00  0.00    +0.000 A 
ATOM     11  C   UNL     1       1.600   8.940  18.945  0.00  0.00    +0.000 A 
ATOM     12  N   UNL     1       2.129   8.457  17.769  0.00  0.00    +0.000 NA
ATOM     13  C   UNL     1       2.496   7.224  18.043  0.00  0.00    +0.000 A 
ATOM     14  N   UNL     1       2.215   6.878  19.343  0.00  0.00    +0.000 N 
BRANCH   6  15
ATOM     15  N   UNL     1       1.045  11.277  18.461  0.00  0.00    +0.000 N 
ATOM     16  H   UNL     1       0.366  11.991  18.677  0.00  0.00    +0.000 HD
ATOM     17  H   UNL     1       1.360  11.127  17.513  0.00  0.00    +0.000 HD
ENDBRANCH   6  15
ENDBRANCH   1  14
BRANCH   4  18
ATOM     18  O   UNL     1       2.830   2.798  20.921  0.00  0.00    +0.000 OA
ATOM     19  H   UNL     1       2.179   3.366  21.371  0.00  0.00    +0.000 HD
ENDBRANCH   4  18
BRANCH   5  20
ATOM     20  O   UNL     1       0.770   4.017  19.868  0.00  0.00    +0.000 OA
ATOM     21  H   UNL     1       0.751   4.393  20.773  0.00  0.00    +0.000 HD
ENDBRANCH   5  20
BRANCH   3  22
ATOM     22  C   UNL     1       5.135   4.217  18.272  0.00  0.00    +0.000 C 
BRANCH  22  23
ATOM     23  O   UNL     1       5.747   5.475  18.017  0.00  0.00    +0.000 OA
BRANCH  23  24
ATOM     24  S   UNL     1       7.303   5.392  17.533  0.00  0.00    +0.000 S 
ATOM     25  O   UNL     1       7.806   6.739  17.368  0.00  0.00    +0.000 OA
ATOM     26  O   UNL     1       7.978   4.465  18.416  0.00  0.00    +0.000 OA
BRANCH  24  27
ATOM     27  N   UNL     1       7.255   4.668  16.038  0.00  0.00    +0.000 N 
ATOM     28  C   UNL     1       6.440   5.158  15.023  0.00  0.00    +0.000 C 
ATOM     29  O   UNL     1       5.678   6.104  15.195  0.00  0.00    +0.000 OA
ATOM     30  H   UNL     1       7.805   3.815  15.952  0.00  0.00    +0.000 HD
BRANCH  28  31
ATOM     31  C   UNL     1       6.488   4.526  13.685  0.00  0.00    +0.000 A 
ATOM     32  C   UNL     1       5.493   3.557  13.432  0.00  0.00    +0.000 A 
ATOM     33  C   UNL     1       5.459   2.857  12.226  0.00  0.00    +0.000 A 
ATOM     34  C   UNL     1       6.423   3.111  11.258  0.00  0.00    +0.000 A 
ATOM     35  C   UNL     1       7.414   4.066  11.495  0.00  0.00    +0.000 A 
ATOM     36  C   UNL     1       7.447   4.780  12.702  0.00  0.00    +0.000 A 
ATOM     37 CL   UNL     1       8.755   5.890  12.913  0.00  0.00    +0.000 Cl
ENDBRANCH  28  31
ENDBRANCH  24  27
ENDBRANCH  23  24
ENDBRANCH  22  23
ENDBRANCH   3  22
TORSDOF 9
ENDMDL
MODEL 2
REMARK VINA RESULT:      -8.1      3.794      7.903
REMARK  Name = 
REMARK  9 active torsions:
REMARK  status: ('A' for Active; 'I' for Inactive)
REMARK    1  A    between atoms: N_1  and  C_2
REMARK    2  A    between atoms: N_10  and  C_11
REMARK    3  A    between atoms: C_13  and  C_14
REMARK    4  A    between atoms: C_14  and  O_15
REMARK    5  A    between atoms: O_15  and  S_16
REMARK    6  A    between atoms: S_16  and  N_19
REMARK    7  A    between atoms: C_20  and  C_22
REMARK    8  A    between atoms: C_29  and  O_30
REMARK    9  A    between atoms: C_31  and  O_32
REMARK                            x       y       z     vdW  Elec       q    Type
REMARK                         _______ _______ _______ _____ _____    ______ ____
ROOT
ATOM      1  C   UNL     1       4.355   3.430  17.552  0.00  0.00    +0.000 C 
ATOM      2  O   UNL     1       3.041   3.419  16.952  0.00  0.00    +0.000 OA
ATOM      3  C   UNL     1       2.096   2.860  17.903  0.00  0.00    +0.000 C 
ATOM      4  C   UNL     1       2.931   2.243  19.027  0.00  0.00    +0.000 C 
ATOM      5  C   UNL     1       4.205   3.075  19.030  0.00  0.00    +0.000 C 
ENDROOT
BRANCH   1  14
ATOM      6  C   UNL     1       7.523   7.104  17.761  0.00  0.00    +0.000 A 
ATOM      7  N   UNL     1       8.119   6.693  18.904  0.00  0.00    +0.000 NA
ATOM      8  C   UNL     1       7.654   5.576  19.504  0.00  0.00    +0.000 A 
ATOM      9  N   UNL     1       6.633   4.787  19.116  0.00  0.00    +0.000 NA
ATOM     10  C   UNL     1       6.057   5.248  17.990  0.00  0.00    +0.000 A 
ATOM     11  C   UNL     1       6.426   6.371  17.271  0.00  0.00    +0.000 A 
ATOM     12  N   UNL     1       5.614   6.524  16.170  0.00  0.00    +0.000 NA
ATOM     13  C   UNL     1       4.791   5.499  16.210  0.00  0.00    +0.000 A 
ATOM     14  N   UNL     1       5.022   4.693  17.298  0.00  0.00    +0.000 N 
BRANCH   6  15
ATOM     15  N   UNL     1       8.038   8.209  17.112  0.00  0.00    +0.000 N 
ATOM     16  H   UNL     1       9.044   8.266  17.063  0.00  0.00    +0.000 HD
ATOM     17  H   UNL     1       7.467   9.043  17.095  0.00  0.00    +0.000 HD
ENDBRANCH   6  15
ENDBRANCH   1  14
BRANCH   4  18
ATOM     18  O   UNL     1       3.300   0.881  18.718  0.00  0.00    +0.000 OA
ATOM     19  H   UNL     1       3.385   0.784  17.752  0.00  0.00    +0.000 HD
ENDBRANCH   4  18
BRANCH   5  20
ATOM     20  O   UNL     1       5.330   2.330  19.505  0.00  0.00    +0.000 OA
ATOM     21  H   UNL     1       5.282   1.451  19.072  0.00  0.00    +0.000 HD
ENDBRANCH   5  20
BRANCH   3  22
ATOM     22  C   UNL     1       1.132   3.964  18.341  0.00  0.00    +0.000 C 
BRANCH  22  23
ATOM     23  O   UNL     1       1.497   4.580  19.569  0.00  0.00    +0.000 OA
BRANCH  23  24
ATOM     24  S   UNL     1       2.220   6.034  19.416  0.00  0.00    +0.000 S 
ATOM     25  O   UNL     1       3.563   5.939  19.948  0.00  0.00    +0.000 OA
ATOM     26  O   UNL     1       2.006   6.477  18.055  0.00  0.00    +0.000 OA
BRANCH  24  27
ATOM     27  N   UNL     1       1.346   7.059  20.388  0.00  0.00    +0.000 N 
ATOM     28  C   UNL     1       1.406   8.439  20.223  0.00  0.00    +0.000 C 
ATOM     29  O   UNL     1       2.146   8.967  19.399  0.00  0.00    +0.000 OA
ATOM     30  H   UNL     1       0.831   6.607  21.142  0.00  0.00    +0.000 HD
BRANCH  28  31
ATOM     31  C   UNL     1       0.552   9.309  21.063  0.00  0.00    +0.000 A 
ATOM     32  C   UNL     1       0.617   9.069  22.452  0.00  0.00    +0.000 A 
ATOM     33  C   UNL     1      -0.175   9.791  23.345  0.00  0.00    +0.000 A 
ATOM     34  C   UNL     1      -1.047  10.758  22.862  0.00  0.00    +0.000 A 
ATOM     35  C   UNL     1      -1.123  11.005  21.490  0.00  0.00    +0.000 A 
ATOM     36  C   UNL     1      -0.322  10.289  20.588  0.00  0.00    +0.000 A 
ATOM     37 CL   UNL     1      -0.544  10.632  18.909  0.00  0.00    +0.000 Cl
ENDBRANCH  28  31
ENDBRANCH  24  27
ENDBRANCH  23  24
ENDBRANCH  22  23
ENDBRANCH   3  22
TORSDOF 9
ENDMDL
MODEL 3
REMARK VINA RESULT:      -7.9      4.361      8.863
REMARK  Name = 
REMARK  9 active torsions:
REMARK  status: ('A' for Active; 'I' for Inactive)
REMARK    1  A    between atoms: N_1  and  C_2
REMARK    2  A    between atoms: N_10  and  C_11
REMARK    3  A    between atoms: C_13  and  C_14
REMARK    4  A    between atoms: C_14  and  O_15
REMARK    5  A    between atoms: O_15  and  S_16
REMARK    6  A    between atoms: S_16  and  N_19
REMARK    7  A    between atoms: C_20  and  C_22
REMARK    8  A    between atoms: C_29  and  O_30
REMARK    9  A    between atoms: C_31  and  O_32
REMARK                            x       y       z     vdW  Elec       q    Type
REMARK                         _______ _______ _______ _____ _____    ______ ____
ROOT
ATOM      1  C   UNL     1       4.617   4.387  17.478  0.00  0.00    +0.000 C 
ATOM      2  O   UNL     1       3.441   5.149  17.124  0.00  0.00    +0.000 OA
ATOM      3  C   UNL     1       2.774   5.575  18.342  0.00  0.00    +0.000 C 
ATOM      4  C   UNL     1       3.425   4.792  19.485  0.00  0.00    +0.000 C 
ATOM      5  C   UNL     1       4.836   4.525  18.983  0.00  0.00    +0.000 C 
ENDROOT
BRANCH   1  14
ATOM      6  C   UNL     1       7.528   5.122  13.662  0.00  0.00    +0.000 A 
ATOM      7  N   UNL     1       6.845   4.310  12.823  0.00  0.00    +0.000 NA
ATOM      8  C   UNL     1       5.765   3.656  13.301  0.00  0.00    +0.000 A 
ATOM      9  N   UNL     1       5.257   3.689  14.549  0.00  0.00    +0.000 NA
ATOM     10  C   UNL     1       5.982   4.491  15.352  0.00  0.00    +0.000 A 
ATOM     11  C   UNL     1       7.104   5.219  15.001  0.00  0.00    +0.000 A 
ATOM     12  N   UNL     1       7.574   5.930  16.083  0.00  0.00    +0.000 NA
ATOM     13  C   UNL     1       6.735   5.657  17.058  0.00  0.00    +0.000 A 
ATOM     14  N   UNL     1       5.748   4.786  16.662  0.00  0.00    +0.000 N 
BRANCH   6  15
ATOM     15  N   UNL     1       8.594   5.842  13.158  0.00  0.00    +0.000 N 
ATOM     16  H   UNL     1       9.199   6.274  13.838  0.00  0.00    +0.000 HD
ATOM     17  H   UNL     1       8.493   6.228  12.230  0.00  0.00    +0.000 HD
ENDBRANCH   6  15
ENDBRANCH   1  14
BRANCH   4  18
ATOM     18  O   UNL     1       2.780   3.513  19.676  0.00  0.00    +0.000 OA
ATOM     19  H   UNL     1       2.818   3.275  20.620  0.00  0.00    +0.000 HD
ENDBRANCH   4  18
BRANCH   5  20
ATOM     20  O   UNL     1       5.385   3.328  19.542  0.00  0.00    +0.000 OA
ATOM     21  H   UNL     1       4.827   3.102  20.315  0.00  0.00    +0.000 HD
ENDBRANCH   5  20
BRANCH   3  22
ATOM     22  C   UNL     1       2.884   7.097  18.454  0.00  0.00    +0.000 C 
BRANCH  22  23
ATOM     23  O   UNL     1       1.843   7.790  17.777  0.00  0.00    +0.000 OA
BRANCH  23  24
ATOM     24  S   UNL     1       1.581   9.311  18.304  0.00  0.00    +0.000 S 
ATOM     25  O   UNL     1       1.451   9.284  19.745  0.00  0.00    +0.000 OA
ATOM     26  O   UNL     1       2.574  10.158  17.678  0.00  0.00    +0.000 OA
BRANCH  24  27
ATOM     27  N   UNL     1       0.114   9.749  17.657  0.00  0.00    +0.000 N 
ATOM     28  C   UNL     1      -0.971  10.060  18.471  0.00  0.00    +0.000 C 
ATOM     29  O   UNL     1      -0.919   9.970  19.693  0.00  0.00    +0.000 OA
ATOM     30  H   UNL     1       0.057   9.703  16.641  0.00  0.00    +0.000 HD
BRANCH  28  31
ATOM     31  C   UNL     1      -2.235  10.517  17.851  0.00  0.00    +0.000 A 
ATOM     32  C   UNL     1      -2.544   9.943  16.599  0.00  0.00    +0.000 A 
ATOM     33  C   UNL     1      -3.684  10.326  15.892  0.00  0.00    +0.000 A 
ATOM     34  C   UNL     1      -4.528  11.293  16.424  0.00  0.00    +0.000 A 
ATOM     35  C   UNL     1      -4.234  11.871  17.661  0.00  0.00    +0.000 A 
ATOM     36  C   UNL     1      -3.095  11.482  18.381  0.00  0.00    +0.000 A 
ATOM     37 CL   UNL     1      -2.795  12.309  19.868  0.00  0.00    +0.000 Cl
ENDBRANCH  28  31
ENDBRANCH  24  27
ENDBRANCH  23  24
ENDBRANCH  22  23
ENDBRANCH   3  22
TORSDOF 9
ENDMDL
MODEL 4
REMARK VINA RESULT:      -7.8      3.989      7.571
REMARK  Name = 
REMARK  9 active torsions:
REMARK  status: ('A' for Active; 'I' for Inactive)
REMARK    1  A    between atoms: N_1  and  C_2
REMARK    2  A    between atoms: N_10  and  C_11
REMARK    3  A    between atoms: C_13  and  C_14
REMARK    4  A    between atoms: C_14  and  O_15
REMARK    5  A    between atoms: O_15  and  S_16
REMARK    6  A    between atoms: S_16  and  N_19
REMARK    7  A    between atoms: C_20  and  C_22
REMARK    8  A    between atoms: C_29  and  O_30
REMARK    9  A    between atoms: C_31  and  O_32
REMARK                            x       y       z     vdW  Elec       q    Type
REMARK                         _______ _______ _______ _____ _____    ______ ____
ROOT
ATOM      1  C   UNL     1       4.337   3.530  17.595  0.00  0.00    +0.000 C 
ATOM      2  O   UNL     1       3.009   3.503  17.028  0.00  0.00    +0.000 OA
ATOM      3  C   UNL     1       2.118   2.825  17.953  0.00  0.00    +0.000 C 
ATOM      4  C   UNL     1       3.011   2.161  19.003  0.00  0.00    +0.000 C 
ATOM      5  C   UNL     1       4.245   3.051  19.043  0.00  0.00    +0.000 C 
ENDROOT
BRANCH   1  14
ATOM      6  C   UNL     1       7.440   7.255  17.857  0.00  0.00    +0.000 A 
ATOM      7  N   UNL     1       8.208   6.712  18.829  0.00  0.00    +0.000 NA
ATOM      8  C   UNL     1       7.858   5.506  19.325  0.00  0.00    +0.000 A 
ATOM      9  N   UNL     1       6.802   4.741  18.984  0.00  0.00    +0.000 NA
ATOM     10  C   UNL     1       6.056   5.332  18.032  0.00  0.00    +0.000 A 
ATOM     11  C   UNL     1       6.293   6.557  17.434  0.00  0.00    +0.000 A 
ATOM     12  N   UNL     1       5.322   6.831  16.498  0.00  0.00    +0.000 NA
ATOM     13  C   UNL     1       4.531   5.780  16.512  0.00  0.00    +0.000 A 
ATOM     14  N   UNL     1       4.937   4.840  17.428  0.00  0.00    +0.000 N 
BRANCH   6  15
ATOM     15  N   UNL     1       7.833   8.458  17.303  0.00  0.00    +0.000 N 
ATOM     16  H   UNL     1       7.211   9.238  17.448  0.00  0.00    +0.000 HD
ATOM     17  H   UNL     1       8.440   8.419  16.496  0.00  0.00    +0.000 HD
ENDBRANCH   6  15
ENDBRANCH   1  14
BRANCH   4  18
ATOM     18  O   UNL     1       3.434   0.848  18.575  0.00  0.00    +0.000 OA
ATOM     19  H   UNL     1       3.311   0.771  17.611  0.00  0.00    +0.000 HD
ENDBRANCH   4  18
BRANCH   5  20
ATOM     20  O   UNL     1       5.416   2.325  19.427  0.00  0.00    +0.000 OA
ATOM     21  H   UNL     1       5.473   2.389  20.404  0.00  0.00    +0.000 HD
ENDBRANCH   5  20
BRANCH   3  22
ATOM     22  C   UNL     1       1.116   3.842  18.503  0.00  0.00    +0.000 C 
BRANCH  22  23
ATOM     23  O   UNL     1       1.648   5.156  18.618  0.00  0.00    +0.000 OA
BRANCH  23  24
ATOM     24  S   UNL     1       2.100   5.580  20.127  0.00  0.00    +0.000 S 
ATOM     25  O   UNL     1       1.623   4.573  21.051  0.00  0.00    +0.000 OA
ATOM     26  O   UNL     1       3.508   5.911  20.075  0.00  0.00    +0.000 OA
BRANCH  24  27
ATOM     27  N   UNL     1       1.294   6.999  20.440  0.00  0.00    +0.000 N 
ATOM     28  C   UNL     1       1.508   8.137  19.671  0.00  0.00    +0.000 C 
ATOM     29  O   UNL     1       2.338   8.170  18.768  0.00  0.00    +0.000 OA
ATOM     30  H   UNL     1       0.697   6.984  21.266  0.00  0.00    +0.000 HD
BRANCH  28  31
ATOM     31  C   UNL     1       0.710   9.356  19.940  0.00  0.00    +0.000 A 
ATOM     32  C   UNL     1       0.187  10.006  18.802  0.00  0.00    +0.000 A 
ATOM     33  C   UNL     1      -0.541  11.189  18.920  0.00  0.00    +0.000 A 
ATOM     34  C   UNL     1      -0.752  11.743  20.177  0.00  0.00    +0.000 A 
ATOM     35  C   UNL     1      -0.239  11.111  21.311  0.00  0.00    +0.000 A 
ATOM     36  C   UNL     1       0.486   9.915  21.199  0.00  0.00    +0.000 A 
ATOM     37 CL   UNL     1       1.129   9.256  22.662  0.00  0.00    +0.000 Cl
ENDBRANCH  28  31
ENDBRANCH  24  27
ENDBRANCH  23  24
ENDBRANCH  22  23
ENDBRANCH   3  22
TORSDOF 9
ENDMDL
MODEL 5
REMARK VINA RESULT:      -7.8      1.323      1.641
REMARK  Name = 
REMARK  9 active torsions:
REMARK  status: ('A' for Active; 'I' for Inactive)
REMARK    1  A    between atoms: N_1  and  C_2
REMARK    2  A    between atoms: N_10  and  C_11
REMARK    3  A    between atoms: C_13  and  C_14
REMARK    4  A    between atoms: C_14  and  O_15
REMARK    5  A    between atoms: O_15  and  S_16
REMARK    6  A    between atoms: S_16  and  N_19
REMARK    7  A    between atoms: C_20  and  C_22
REMARK    8  A    between atoms: C_29  and  O_30
REMARK    9  A    between atoms: C_31  and  O_32
REMARK                            x       y       z     vdW  Elec       q    Type
REMARK                         _______ _______ _______ _____ _____    ______ ____
ROOT
ATOM      1  C   UNL     1       2.325   5.508  19.450  0.00  0.00    +0.000 C 
ATOM      2  O   UNL     1       3.594   5.421  20.135  0.00  0.00    +0.000 OA
ATOM      3  C   UNL     1       4.229   4.163  19.786  0.00  0.00    +0.000 C 
ATOM      4  C   UNL     1       3.164   3.324  19.077  0.00  0.00    +0.000 C 
ATOM      5  C   UNL     1       2.250   4.362  18.443  0.00  0.00    +0.000 C 
ENDROOT
BRANCH   1  14
ATOM      6  C   UNL     1       1.463  10.265  18.995  0.00  0.00    +0.000 A 
ATOM      7  N   UNL     1       0.957  10.422  20.239  0.00  0.00    +0.000 NA
ATOM      8  C   UNL     1       0.861   9.334  21.035  0.00  0.00    +0.000 A 
ATOM      9  N   UNL     1       1.201   8.062  20.749  0.00  0.00    +0.000 NA
ATOM     10  C   UNL     1       1.678   7.952  19.495  0.00  0.00    +0.000 A 
ATOM     11  C   UNL     1       1.832   8.974  18.575  0.00  0.00    +0.000 A 
ATOM     12  N   UNL     1       2.357   8.486  17.399  0.00  0.00    +0.000 NA
ATOM     13  C   UNL     1       2.540   7.201  17.616  0.00  0.00    +0.000 A 
ATOM     14  N   UNL     1       2.143   6.829  18.878  0.00  0.00    +0.000 N 
BRANCH   6  15
ATOM     15  N   UNL     1       1.622  11.387  18.204  0.00  0.00    +0.000 N 
ATOM     16  H   UNL     1       1.953  12.216  18.672  0.00  0.00    +0.000 HD
ATOM     17  H   UNL     1       1.053  11.450  17.372  0.00  0.00    +0.000 HD
ENDBRANCH   6  15
ENDBRANCH   1  14
BRANCH   4  18
ATOM     18  O   UNL     1       2.377   2.570  20.024  0.00  0.00    +0.000 OA
ATOM     19  H   UNL     1       2.804   1.708  20.180  0.00  0.00    +0.000 HD
ENDBRANCH   4  18
BRANCH   5  20
ATOM     20  O   UNL     1       0.911   3.880  18.300  0.00  0.00    +0.000 OA
ATOM     21  H   UNL     1       0.354   4.662  18.101  0.00  0.00    +0.000 HD
ENDBRANCH   5  20
BRANCH   3  22
ATOM     22  C   UNL     1       5.480   4.460  18.956  0.00  0.00    +0.000 C 
BRANCH  22  23
ATOM     23  O   UNL     1       6.284   5.500  19.496  0.00  0.00    +0.000 OA
BRANCH  23  24
ATOM     24  S   UNL     1       7.734   5.689  18.773  0.00  0.00    +0.000 S 
ATOM     25  O   UNL     1       7.977   7.104  18.591  0.00  0.00    +0.000 OA
ATOM     26  O   UNL     1       8.685   4.875  19.500  0.00  0.00    +0.000 OA
BRANCH  24  27
ATOM     27  N   UNL     1       7.567   4.992  17.274  0.00  0.00    +0.000 N 
ATOM     28  C   UNL     1       6.955   5.671  16.226  0.00  0.00    +0.000 C 
ATOM     29  O   UNL     1       6.459   6.784  16.368  0.00  0.00    +0.000 OA
ATOM     30  H   UNL     1       7.879   4.024  17.209  0.00  0.00    +0.000 HD
BRANCH  28  31
ATOM     31  C   UNL     1       6.896   5.039  14.888  0.00  0.00    +0.000 A 
ATOM     32  C   UNL     1       7.808   5.541  13.935  0.00  0.00    +0.000 A 
ATOM     33  C   UNL     1       7.820   5.060  12.626  0.00  0.00    +0.000 A 
ATOM     34  C   UNL     1       6.916   4.075  12.248  0.00  0.00    +0.000 A 
ATOM     35  C   UNL     1       6.006   3.571  13.180  0.00  0.00    +0.000 A 
ATOM     36  C   UNL     1       5.996   4.043  14.501  0.00  0.00    +0.000 A 
ATOM     37 CL   UNL     1       4.786   3.394  15.550  0.00  0.00    +0.000 Cl
ENDBRANCH  28  31
ENDBRANCH  24  27
ENDBRANCH  23  24
ENDBRANCH  22  23
ENDBRANCH   3  22
TORSDOF 9
ENDMDL
MODEL 6
REMARK VINA RESULT:      -7.7      1.059      1.895
REMARK  Name = 
REMARK  9 active torsions:
REMARK  status: ('A' for Active; 'I' for Inactive)
REMARK    1  A    between atoms: N_1  and  C_2
REMARK    2  A    between atoms: N_10  and  C_11
REMARK    3  A    between atoms: C_13  and  C_14
REMARK    4  A    between atoms: C_14  and  O_15
REMARK    5  A    between atoms: O_15  and  S_16
REMARK    6  A    between atoms: S_16  and  N_19
REMARK    7  A    between atoms: C_20  and  C_22
REMARK    8  A    between atoms: C_29  and  O_30
REMARK    9  A    between atoms: C_31  and  O_32
REMARK                            x       y       z     vdW  Elec       q    Type
REMARK                         _______ _______ _______ _____ _____    ______ ____
ROOT
ATOM      1  C   UNL     1       2.352   4.160  19.735  0.00  0.00    +0.000 C 
ATOM      2  O   UNL     1       3.751   3.843  19.911  0.00  0.00    +0.000 OA
ATOM      3  C   UNL     1       4.167   2.953  18.841  0.00  0.00    +0.000 C 
ATOM      4  C   UNL     1       2.887   2.486  18.146  0.00  0.00    +0.000 C 
ATOM      5  C   UNL     1       1.915   3.635  18.369  0.00  0.00    +0.000 C 
ENDROOT
BRANCH   1  14
ATOM      6  C   UNL     1       1.899   8.929  18.942  0.00  0.00    +0.000 A 
ATOM      7  N   UNL     1       2.486   8.911  17.723  0.00  0.00    +0.000 NA
ATOM      8  C   UNL     1       2.948   7.734  17.251  0.00  0.00    +0.000 A 
ATOM      9  N   UNL     1       2.918   6.527  17.850  0.00  0.00    +0.000 NA
ATOM     10  C   UNL     1       2.347   6.599  19.068  0.00  0.00    +0.000 A 
ATOM     11  C   UNL     1       1.831   7.730  19.675  0.00  0.00    +0.000 A 
ATOM     12  N   UNL     1       1.320   7.418  20.915  0.00  0.00    +0.000 NA
ATOM     13  C   UNL     1       1.501   6.121  21.040  0.00  0.00    +0.000 A 
ATOM     14  N   UNL     1       2.121   5.577  19.941  0.00  0.00    +0.000 N 
BRANCH   6  15
ATOM     15  N   UNL     1       1.367  10.120  19.398  0.00  0.00    +0.000 N 
ATOM     16  H   UNL     1       1.324  10.232  20.399  0.00  0.00    +0.000 HD
ATOM     17  H   UNL     1       0.715  10.597  18.792  0.00  0.00    +0.000 HD
ENDBRANCH   6  15
ENDBRANCH   1  14
BRANCH   4  18
ATOM     18  O   UNL     1       2.337   1.318  18.793  0.00  0.00    +0.000 OA
ATOM     19  H   UNL     1       2.716   0.518  18.384  0.00  0.00    +0.000 HD
ENDBRANCH   4  18
BRANCH   5  20
ATOM     20  O   UNL     1       0.556   3.190  18.392  0.00  0.00    +0.000 OA
ATOM     21  H   UNL     1       0.564   2.260  18.082  0.00  0.00    +0.000 HD
ENDBRANCH   5  20
BRANCH   3  22
ATOM     22  C   UNL     1       5.158   3.697  17.944  0.00  0.00    +0.000 C 
BRANCH  22  23
ATOM     23  O   UNL     1       5.862   4.734  18.615  0.00  0.00    +0.000 OA
BRANCH  23  24
ATOM     24  S   UNL     1       7.269   5.169  17.915  0.00  0.00    +0.000 S 
ATOM     25  O   UNL     1       7.310   6.613  17.821  0.00  0.00    +0.000 OA
ATOM     26  O   UNL     1       8.326   4.455  18.599  0.00  0.00    +0.000 OA
BRANCH  24  27
ATOM     27  N   UNL     1       7.200   4.549  16.375  0.00  0.00    +0.000 N 
ATOM     28  C   UNL     1       6.508   5.203  15.363  0.00  0.00    +0.000 C 
ATOM     29  O   UNL     1       5.868   6.230  15.565  0.00  0.00    +0.000 OA
ATOM     30  H   UNL     1       7.638   3.636  16.256  0.00  0.00    +0.000 HD
BRANCH  28  31
ATOM     31  C   UNL     1       6.537   4.651  13.989  0.00  0.00    +0.000 A 
ATOM     32  C   UNL     1       5.531   3.708  13.689  0.00  0.00    +0.000 A 
ATOM     33  C   UNL     1       5.480   3.081  12.444  0.00  0.00    +0.000 A 
ATOM     34  C   UNL     1       6.437   3.383  11.483  0.00  0.00    +0.000 A 
ATOM     35  C   UNL     1       7.440   4.313  11.767  0.00  0.00    +0.000 A 
ATOM     36  C   UNL     1       7.490   4.954  13.014  0.00  0.00    +0.000 A 
ATOM     37 CL   UNL     1       8.810   6.038  13.278  0.00  0.00    +0.000 Cl
ENDBRANCH  28  31
ENDBRANCH  24  27
ENDBRANCH  23  24
ENDBRANCH  22  23
ENDBRANCH   3  22
TORSDOF 9
ENDMDL
MODEL 7
REMARK VINA RESULT:      -7.6      2.786      8.427
REMARK  Name = 
REMARK  9 active torsions:
REMARK  status: ('A' for Active; 'I' for Inactive)
REMARK    1  A    between atoms: N_1  and  C_2
REMARK    2  A    between atoms: N_10  and  C_11
REMARK    3  A    between atoms: C_13  and  C_14
REMARK    4  A    between atoms: C_14  and  O_15
REMARK    5  A    between atoms: O_15  and  S_16
REMARK    6  A    between atoms: S_16  and  N_19
REMARK    7  A    between atoms: C_20  and  C_22
REMARK    8  A    between atoms: C_29  and  O_30
REMARK    9  A    between atoms: C_31  and  O_32
REMARK                            x       y       z     vdW  Elec       q    Type
REMARK                         _______ _______ _______ _____ _____    ______ ____
ROOT
ATOM      1  C   UNL     1       7.391   5.182  17.047  0.00  0.00    +0.000 C 
ATOM      2  O   UNL     1       7.175   4.374  18.226  0.00  0.00    +0.000 OA
ATOM      3  C   UNL     1       6.852   5.248  19.340  0.00  0.00    +0.000 C 
ATOM      4  C   UNL     1       7.165   6.672  18.876  0.00  0.00    +0.000 C 
ATOM      5  C   UNL     1       6.963   6.613  17.369  0.00  0.00    +0.000 C 
ENDROOT
BRANCH   1  14
ATOM      6  C   UNL     1       6.388   3.795  12.503  0.00  0.00    +0.000 A 
ATOM      7  N   UNL     1       7.320   4.584  11.921  0.00  0.00    +0.000 NA
ATOM      8  C   UNL     1       8.068   5.384  12.712  0.00  0.00    +0.000 A 
ATOM      9  N   UNL     1       8.006   5.523  14.051  0.00  0.00    +0.000 NA
ATOM     10  C   UNL     1       7.050   4.737  14.582  0.00  0.00    +0.000 A 
ATOM     11  C   UNL     1       6.215   3.872  13.898  0.00  0.00    +0.000 A 
ATOM     12  N   UNL     1       5.370   3.228  14.774  0.00  0.00    +0.000 NA
ATOM     13  C   UNL     1       5.708   3.676  15.963  0.00  0.00    +0.000 A 
ATOM     14  N   UNL     1       6.727   4.596  15.898  0.00  0.00    +0.000 N 
BRANCH   6  15
ATOM     15  N   UNL     1       5.668   2.928  11.704  0.00  0.00    +0.000 N 
ATOM     16  H   UNL     1       6.080   2.703  10.811  0.00  0.00    +0.000 HD
ATOM     17  H   UNL     1       4.668   2.899  11.839  0.00  0.00    +0.000 HD
ENDBRANCH   6  15
ENDBRANCH   1  14
BRANCH   4  18
ATOM     18  O   UNL     1       8.548   7.009  19.119  0.00  0.00    +0.000 OA
ATOM     19  H   UNL     1       9.073   6.796  18.326  0.00  0.00    +0.000 HD
ENDBRANCH   4  18
BRANCH   5  20
ATOM     20  O   UNL     1       7.779   7.567  16.683  0.00  0.00    +0.000 OA
ATOM     21  H   UNL     1       7.881   8.331  17.289  0.00  0.00    +0.000 HD
ENDBRANCH   5  20
BRANCH   3  22
ATOM     22  C   UNL     1       5.398   5.002  19.748  0.00  0.00    +0.000 C 
BRANCH  22  23
ATOM     23  O   UNL     1       4.459   5.370  18.747  0.00  0.00    +0.000 OA
BRANCH  23  24
ATOM     24  S   UNL     1       2.929   4.881  19.032  0.00  0.00    +0.000 S 
ATOM     25  O   UNL     1       2.248   4.736  17.763  0.00  0.00    +0.000 OA
ATOM     26  O   UNL     1       3.001   3.766  19.951  0.00  0.00    +0.000 OA
BRANCH  24  27
ATOM     27  N   UNL     1       2.220   6.133  19.863  0.00  0.00    +0.000 N 
ATOM     28  C   UNL     1       2.191   7.422  19.343  0.00  0.00    +0.000 C 
ATOM     29  O   UNL     1       2.734   7.712  18.282  0.00  0.00    +0.000 OA
ATOM     30  H   UNL     1       1.879   5.896  20.794  0.00  0.00    +0.000 HD
BRANCH  28  31
ATOM     31  C   UNL     1       1.481   8.489  20.085  0.00  0.00    +0.000 A 
ATOM     32  C   UNL     1       1.147   8.183  21.421  0.00  0.00    +0.000 A 
ATOM     33  C   UNL     1       0.436   9.088  22.211  0.00  0.00    +0.000 A 
ATOM     34  C   UNL     1       0.045  10.308  21.674  0.00  0.00    +0.000 A 
ATOM     35  C   UNL     1       0.369  10.623  20.353  0.00  0.00    +0.000 A 
ATOM     36  C   UNL     1       1.092   9.722  19.557  0.00  0.00    +0.000 A 
ATOM     37 CL   UNL     1       1.380  10.189  17.918  0.00  0.00    +0.000 Cl
ENDBRANCH  28  31
ENDBRANCH  24  27
ENDBRANCH  23  24
ENDBRANCH  22  23
ENDBRANCH   3  22
TORSDOF 9
ENDMDL
MODEL 8
REMARK VINA RESULT:      -7.6      4.439      8.283
REMARK  Name = 
REMARK  9 active torsions:
REMARK  status: ('A' for Active; 'I' for Inactive)
REMARK    1  A    between atoms: N_1  and  C_2
REMARK    2  A    between atoms: N_10  and  C_11
REMARK    3  A    between atoms: C_13  and  C_14
REMARK    4  A    between atoms: C_14  and  O_15
REMARK    5  A    between atoms: O_15  and  S_16
REMARK    6  A    between atoms: S_16  and  N_19
REMARK    7  A    between atoms: C_20  and  C_22
REMARK    8  A    between atoms: C_29  and  O_30
REMARK    9  A    between atoms: C_31  and  O_32
REMARK                            x       y       z     vdW  Elec       q    Type
REMARK                         _______ _______ _______ _____ _____    ______ ____
ROOT
ATOM      1  C   UNL     1       2.724   3.765  19.112  0.00  0.00    +0.000 C 
ATOM      2  O   UNL     1       1.728   4.811  19.136  0.00  0.00    +0.000 OA
ATOM      3  C   UNL     1       1.453   5.164  20.518  0.00  0.00    +0.000 C 
ATOM      4  C   UNL     1       2.108   4.082  21.378  0.00  0.00    +0.000 C 
ATOM      5  C   UNL     1       3.275   3.602  20.527  0.00  0.00    +0.000 C 
ENDROOT
BRANCH   1  14
ATOM      6  C   UNL     1       6.897   5.009  16.963  0.00  0.00    +0.000 A 
ATOM      7  N   UNL     1       7.445   5.569  18.065  0.00  0.00    +0.000 NA
ATOM      8  C   UNL     1       6.714   5.600  19.201  0.00  0.00    +0.000 A 
ATOM      9  N   UNL     1       5.461   5.143  19.396  0.00  0.00    +0.000 NA
ATOM     10  C   UNL     1       4.950   4.617  18.267  0.00  0.00    +0.000 A 
ATOM     11  C   UNL     1       5.580   4.518  17.040  0.00  0.00    +0.000 A 
ATOM     12  N   UNL     1       4.750   3.915  16.121  0.00  0.00    +0.000 NA
ATOM     13  C   UNL     1       3.653   3.631  16.790  0.00  0.00    +0.000 A 
ATOM     14  N   UNL     1       3.727   4.038  18.100  0.00  0.00    +0.000 N 
BRANCH   6  15
ATOM     15  N   UNL     1       7.666   4.919  15.819  0.00  0.00    +0.000 N 
ATOM     16  H   UNL     1       8.408   4.236  15.836  0.00  0.00    +0.000 HD
ATOM     17  H   UNL     1       7.730   5.743  15.239  0.00  0.00    +0.000 HD
ENDBRANCH   6  15
ENDBRANCH   1  14
BRANCH   4  18
ATOM     18  O   UNL     1       1.219   2.960  21.573  0.00  0.00    +0.000 OA
ATOM     19  H   UNL     1       0.593   2.915  20.828  0.00  0.00    +0.000 HD
ENDBRANCH   4  18
BRANCH   5  20
ATOM     20  O   UNL     1       3.612   2.239  20.802  0.00  0.00    +0.000 OA
ATOM     21  H   UNL     1       3.403   2.087  21.748  0.00  0.00    +0.000 HD
ENDBRANCH   5  20
BRANCH   3  22
ATOM     22  C   UNL     1       1.957   6.587  20.769  0.00  0.00    +0.000 C 
BRANCH  22  23
ATOM     23  O   UNL     1       0.922   7.506  21.091  0.00  0.00    +0.000 OA
BRANCH  23  24
ATOM     24  S   UNL     1       1.098   8.990  20.437  0.00  0.00    +0.000 S 
ATOM     25  O   UNL     1       1.302   9.944  21.507  0.00  0.00    +0.000 OA
ATOM     26  O   UNL     1       2.069   8.875  19.370  0.00  0.00    +0.000 OA
BRANCH  24  27
ATOM     27  N   UNL     1      -0.361   9.323  19.714  0.00  0.00    +0.000 N 
ATOM     28  C   UNL     1      -0.512  10.409  18.859  0.00  0.00    +0.000 C 
ATOM     29  O   UNL     1       0.397  11.204  18.644  0.00  0.00    +0.000 OA
ATOM     30  H   UNL     1      -1.132   8.721  19.998  0.00  0.00    +0.000 HD
BRANCH  28  31
ATOM     31  C   UNL     1      -1.810  10.623  18.179  0.00  0.00    +0.000 A 
ATOM     32  C   UNL     1      -1.985   9.924  16.966  0.00  0.00    +0.000 A 
ATOM     33  C   UNL     1      -3.146  10.077  16.207  0.00  0.00    +0.000 A 
ATOM     34  C   UNL     1      -4.145  10.936  16.648  0.00  0.00    +0.000 A 
ATOM     35  C   UNL     1      -3.985  11.635  17.846  0.00  0.00    +0.000 A 
ATOM     36  C   UNL     1      -2.824  11.477  18.618  0.00  0.00    +0.000 A 
ATOM     37 CL   UNL     1      -2.705  12.439  20.049  0.00  0.00    +0.000 Cl
ENDBRANCH  28  31
ENDBRANCH  24  27
ENDBRANCH  23  24
ENDBRANCH  22  23
ENDBRANCH   3  22
TORSDOF 9
ENDMDL
MODEL 9
REMARK VINA RESULT:      -7.5      0.848      1.036
REMARK  Name = 
REMARK  9 active torsions:
REMARK  status: ('A' for Active; 'I' for Inactive)
REMARK    1  A    between atoms: N_1  and  C_2
REMARK    2  A    between atoms: N_10  and  C_11
REMARK    3  A    between atoms: C_13  and  C_14
REMARK    4  A    between atoms: C_14  and  O_15
REMARK    5  A    between atoms: O_15  and  S_16
REMARK    6  A    between atoms: S_16  and  N_19
REMARK    7  A    between atoms: C_20  and  C_22
REMARK    8  A    between atoms: C_29  and  O_30
REMARK    9  A    between atoms: C_31  and  O_32
REMARK                            x       y       z     vdW  Elec       q    Type
REMARK                         _______ _______ _______ _____ _____    ______ ____
ROOT
ATOM      1  C   UNL     1       2.494   5.936  20.149  0.00  0.00    +0.000 C 
ATOM      2  O   UNL     1       3.935   5.872  20.075  0.00  0.00    +0.000 OA
ATOM      3  C   UNL     1       4.322   4.553  19.608  0.00  0.00    +0.000 C 
ATOM      4  C   UNL     1       3.063   3.686  19.673  0.00  0.00    +0.000 C 
ATOM      5  C   UNL     1       1.928   4.683  19.485  0.00  0.00    +0.000 C 
ENDROOT
BRANCH   1  14
ATOM      6  C   UNL     1       0.831  10.483  19.767  0.00  0.00    +0.000 A 
ATOM      7  N   UNL     1       0.535  10.620  21.080  0.00  0.00    +0.000 NA
ATOM      8  C   UNL     1       0.753   9.569  21.900  0.00  0.00    +0.000 A 
ATOM      9  N   UNL     1       1.233   8.351  21.582  0.00  0.00    +0.000 NA
ATOM     10  C   UNL     1       1.490   8.254  20.264  0.00  0.00    +0.000 A 
ATOM     11  C   UNL     1       1.318   9.243  19.311  0.00  0.00    +0.000 A 
ATOM     12  N   UNL     1       1.695   8.784  18.069  0.00  0.00    +0.000 NA
ATOM     13  C   UNL     1       2.113   7.554  18.275  0.00  0.00    +0.000 A 
ATOM     14  N   UNL     1       2.009   7.186  19.595  0.00  0.00    +0.000 N 
BRANCH   6  15
ATOM     15  N   UNL     1       0.670  11.576  18.938  0.00  0.00    +0.000 N 
ATOM     16  H   UNL     1       0.078  12.314  19.288  0.00  0.00    +0.000 HD
ATOM     17  H   UNL     1       0.783  11.425  17.946  0.00  0.00    +0.000 HD
ENDBRANCH   6  15
ENDBRANCH   1  14
BRANCH   4  18
ATOM     18  O   UNL     1       2.906   3.088  20.979  0.00  0.00    +0.000 OA
ATOM     19  H   UNL     1       2.331   2.305  20.905  0.00  0.00    +0.000 HD
ENDBRANCH   4  18
BRANCH   5  20
ATOM     20  O   UNL     1       0.725   4.250  20.125  0.00  0.00    +0.000 OA
ATOM     21  H   UNL     1       0.398   3.482  19.612  0.00  0.00    +0.000 HD
ENDBRANCH   5  20
BRANCH   3  22
ATOM     22  C   UNL     1       4.945   4.689  18.217  0.00  0.00    +0.000 C 
BRANCH  22  23
ATOM     23  O   UNL     1       6.236   5.285  18.231  0.00  0.00    +0.000 OA
BRANCH  23  24
ATOM     24  S   UNL     1       6.378   6.627  17.315  0.00  0.00    +0.000 S 
ATOM     25  O   UNL     1       5.256   7.497  17.596  0.00  0.00    +0.000 OA
ATOM     26  O   UNL     1       7.733   7.112  17.474  0.00  0.00    +0.000 OA
BRANCH  24  27
ATOM     27  N   UNL     1       6.248   6.099  15.745  0.00  0.00    +0.000 N 
ATOM     28  C   UNL     1       7.011   5.036  15.274  0.00  0.00    +0.000 C 
ATOM     29  O   UNL     1       7.855   4.478  15.969  0.00  0.00    +0.000 OA
ATOM     30  H   UNL     1       5.629   6.651  15.153  0.00  0.00    +0.000 HD
BRANCH  28  31
ATOM     31  C   UNL     1       6.806   4.553  13.890  0.00  0.00    +0.000 A 
ATOM     32  C   UNL     1       5.780   3.599  13.722  0.00  0.00    +0.000 A 
ATOM     33  C   UNL     1       5.520   3.032  12.474  0.00  0.00    +0.000 A 
ATOM     34  C   UNL     1       6.286   3.406  11.377  0.00  0.00    +0.000 A 
ATOM     35  C   UNL     1       7.307   4.348  11.529  0.00  0.00    +0.000 A 
ATOM     36  C   UNL     1       7.566   4.928  12.779  0.00  0.00    +0.000 A 
ATOM     37 CL   UNL     1       8.893   6.032  12.864  0.00  0.00    +0.000 Cl
ENDBRANCH  28  31
ENDBRANCH  24  27
ENDBRANCH  23  24
ENDBRANCH  22  23
ENDBRANCH   3  22
TORSDOF 9
ENDMDL
