MODEL 1
REMARK VINA RESULT:      -6.8      0.000      0.000
REMARK  Name = 
REMARK  4 active torsions:
REMARK  status: ('A' for Active; 'I' for Inactive)
REMARK    1  A    between atoms: C_1  and  C_2
REMARK    2  A    between atoms: C_2  and  O_3
REMARK    3  A    between atoms: O_3  and  C_4
REMARK    4  A    between atoms: N_6  and  C_7
REMARK                            x       y       z     vdW  Elec       q    Type
REMARK                         _______ _______ _______ _____ _____    ______ ____
ROOT
ATOM      1  C   UNL     1       3.620   4.917  17.587  0.00  0.00    +0.000 A 
ATOM      2  C   UNL     1       3.718   6.316  17.618  0.00  0.00    +0.000 A 
ATOM      3  C   UNL     1       3.057   7.070  18.577  0.00  0.00    +0.000 A 
ATOM      4  C   UNL     1       2.273   6.435  19.526  0.00  0.00    +0.000 A 
ATOM      5  C   UNL     1       2.109   5.045  19.505  0.00  0.00    +0.000 A 
ATOM      6  C   UNL     1       1.289   4.446  20.474  0.00  0.00    +0.000 A 
ATOM      7  C   UNL     1       1.081   3.074  20.488  0.00  0.00    +0.000 A 
ATOM      8  C   UNL     1       1.688   2.278  19.528  0.00  0.00    +0.000 A 
ATOM      9  C   UNL     1       2.524   2.855  18.561  0.00  0.00    +0.000 A 
ATOM     10  C   UNL     1       2.766   4.253  18.521  0.00  0.00    +0.000 A 
ENDROOT
BRANCH   1  13
ATOM     11  C   UNL     1       5.725   4.102  16.531  0.00  0.00    +0.000 C 
ATOM     12  O   UNL     1       6.547   4.551  17.315  0.00  0.00    +0.000 OA
ATOM     13  N   UNL     1       4.357   4.176  16.624  0.00  0.00    +0.000 N 
ATOM     14  H   UNL     1       3.864   3.621  15.945  0.00  0.00    +0.000 HD
BRANCH  11  15
ATOM     15  O   UNL     1       6.065   3.458  15.382  0.00  0.00    +0.000 OA
BRANCH  15  17
ATOM     16  C   UNL     1       6.140   3.677  12.992  0.00  0.00    +0.000 C 
ATOM     17  C   UNL     1       6.464   4.342  14.319  0.00  0.00    +0.000 C 
ENDBRANCH  15  17
ENDBRANCH  11  15
ENDBRANCH   1  13
TORSDOF 3
ENDMDL
MODEL 2
REMARK VINA RESULT:      -6.8      1.918      3.038
REMARK  Name = 
REMARK  4 active torsions:
REMARK  status: ('A' for Active; 'I' for Inactive)
REMARK    1  A    between atoms: C_1  and  C_2
REMARK    2  A    between atoms: C_2  and  O_3
REMARK    3  A    between atoms: O_3  and  C_4
REMARK    4  A    between atoms: N_6  and  C_7
REMARK                            x       y       z     vdW  Elec       q    Type
REMARK                         _______ _______ _______ _____ _____    ______ ____
ROOT
ATOM      1  C   UNL     1       6.265   4.257  16.873  0.00  0.00    +0.000 A 
ATOM      2  C   UNL     1       7.480   4.684  17.429  0.00  0.00    +0.000 A 
ATOM      3  C   UNL     1       7.532   5.321  18.660  0.00  0.00    +0.000 A 
ATOM      4  C   UNL     1       6.359   5.552  19.360  0.00  0.00    +0.000 A 
ATOM      5  C   UNL     1       5.120   5.184  18.824  0.00  0.00    +0.000 A 
ATOM      6  C   UNL     1       3.957   5.456  19.560  0.00  0.00    +0.000 A 
ATOM      7  C   UNL     1       2.703   5.127  19.066  0.00  0.00    +0.000 A 
ATOM      8  C   UNL     1       2.592   4.523  17.822  0.00  0.00    +0.000 A 
ATOM      9  C   UNL     1       3.743   4.229  17.078  0.00  0.00    +0.000 A 
ATOM     10  C   UNL     1       5.042   4.544  17.555  0.00  0.00    +0.000 A 
ENDROOT
BRANCH   1  13
ATOM     11  C   UNL     1       6.485   4.103  14.395  0.00  0.00    +0.000 C 
ATOM     12  O   UNL     1       6.846   5.242  14.140  0.00  0.00    +0.000 OA
ATOM     13  N   UNL     1       6.259   3.559  15.635  0.00  0.00    +0.000 N 
ATOM     14  H   UNL     1       6.103   2.564  15.629  0.00  0.00    +0.000 HD
BRANCH  11  15
ATOM     15  O   UNL     1       6.214   3.175  13.438  0.00  0.00    +0.000 OA
BRANCH  15  17
ATOM     16  C   UNL     1       4.618   3.235  11.646  0.00  0.00    +0.000 C 
ATOM     17  C   UNL     1       5.964   3.739  12.138  0.00  0.00    +0.000 C 
ENDBRANCH  15  17
ENDBRANCH  11  15
ENDBRANCH   1  13
TORSDOF 3
ENDMDL
MODEL 3
REMARK VINA RESULT:      -6.8      1.023      1.156
REMARK  Name = 
REMARK  4 active torsions:
REMARK  status: ('A' for Active; 'I' for Inactive)
REMARK    1  A    between atoms: C_1  and  C_2
REMARK    2  A    between atoms: C_2  and  O_3
REMARK    3  A    between atoms: O_3  and  C_4
REMARK    4  A    between atoms: N_6  and  C_7
REMARK                            x       y       z     vdW  Elec       q    Type
REMARK                         _______ _______ _______ _____ _____    ______ ____
ROOT
ATOM      1  C   UNL     1       4.272   5.359  17.178  0.00  0.00    +0.000 A 
ATOM      2  C   UNL     1       4.124   6.716  17.503  0.00  0.00    +0.000 A 
ATOM      3  C   UNL     1       3.116   7.156  18.348  0.00  0.00    +0.000 A 
ATOM      4  C   UNL     1       2.224   6.241  18.882  0.00  0.00    +0.000 A 
ATOM      5  C   UNL     1       2.304   4.883  18.549  0.00  0.00    +0.000 A 
ATOM      6  C   UNL     1       1.367   3.996  19.098  0.00  0.00    +0.000 A 
ATOM      7  C   UNL     1       1.392   2.644  18.788  0.00  0.00    +0.000 A 
ATOM      8  C   UNL     1       2.357   2.157  17.918  0.00  0.00    +0.000 A 
ATOM      9  C   UNL     1       3.313   3.026  17.371  0.00  0.00    +0.000 A 
ATOM     10  C   UNL     1       3.321   4.413  17.672  0.00  0.00    +0.000 A 
ENDROOT
BRANCH   1  13
ATOM     11  C   UNL     1       6.603   4.574  16.780  0.00  0.00    +0.000 C 
ATOM     12  O   UNL     1       6.979   4.425  17.933  0.00  0.00    +0.000 OA
ATOM     13  N   UNL     1       5.351   4.941  16.353  0.00  0.00    +0.000 N 
ATOM     14  H   UNL     1       5.214   4.871  15.358  0.00  0.00    +0.000 HD
BRANCH  11  15
ATOM     15  O   UNL     1       7.420   4.419  15.703  0.00  0.00    +0.000 OA
BRANCH  15  17
ATOM     16  C   UNL     1       6.497   3.887  13.552  0.00  0.00    +0.000 C 
ATOM     17  C   UNL     1       6.903   5.006  14.495  0.00  0.00    +0.000 C 
ENDBRANCH  15  17
ENDBRANCH  11  15
ENDBRANCH   1  13
TORSDOF 3
ENDMDL
MODEL 4
REMARK VINA RESULT:      -6.7      1.081      1.327
REMARK  Name = 
REMARK  4 active torsions:
REMARK  status: ('A' for Active; 'I' for Inactive)
REMARK    1  A    between atoms: C_1  and  C_2
REMARK    2  A    between atoms: C_2  and  O_3
REMARK    3  A    between atoms: O_3  and  C_4
REMARK    4  A    between atoms: N_6  and  C_7
REMARK                            x       y       z     vdW  Elec       q    Type
REMARK                         _______ _______ _______ _____ _____    ______ ____
ROOT
ATOM      1  C   UNL     1       3.426   5.744  17.901  0.00  0.00    +0.000 A 
ATOM      2  C   UNL     1       3.203   6.907  18.653  0.00  0.00    +0.000 A 
ATOM      3  C   UNL     1       2.369   6.907  19.762  0.00  0.00    +0.000 A 
ATOM      4  C   UNL     1       1.730   5.736  20.137  0.00  0.00    +0.000 A 
ATOM      5  C   UNL     1       1.888   4.563  19.390  0.00  0.00    +0.000 A 
ATOM      6  C   UNL     1       1.206   3.406  19.796  0.00  0.00    +0.000 A 
ATOM      7  C   UNL     1       1.315   2.222  19.082  0.00  0.00    +0.000 A 
ATOM      8  C   UNL     1       2.107   2.177  17.943  0.00  0.00    +0.000 A 
ATOM      9  C   UNL     1       2.808   3.319  17.530  0.00  0.00    +0.000 A 
ATOM     10  C   UNL     1       2.727   4.545  18.240  0.00  0.00    +0.000 A 
ENDROOT
BRANCH   1  13
ATOM     11  C   UNL     1       5.688   5.568  16.869  0.00  0.00    +0.000 C 
ATOM     12  O   UNL     1       6.340   5.213  17.839  0.00  0.00    +0.000 OA
ATOM     13  N   UNL     1       4.331   5.772  16.806  0.00  0.00    +0.000 N 
ATOM     14  H   UNL     1       3.978   5.927  15.876  0.00  0.00    +0.000 HD
BRANCH  11  15
ATOM     15  O   UNL     1       6.244   5.855  15.661  0.00  0.00    +0.000 OA
BRANCH  15  17
ATOM     16  C   UNL     1       6.081   4.056  14.080  0.00  0.00    +0.000 C 
ATOM     17  C   UNL     1       6.976   4.758  15.086  0.00  0.00    +0.000 C 
ENDBRANCH  15  17
ENDBRANCH  11  15
ENDBRANCH   1  13
TORSDOF 3
ENDMDL
MODEL 5
REMARK VINA RESULT:      -6.7      3.303      4.974
REMARK  Name = 
REMARK  4 active torsions:
REMARK  status: ('A' for Active; 'I' for Inactive)
REMARK    1  A    between atoms: C_1  and  C_2
REMARK    2  A    between atoms: C_2  and  O_3
REMARK    3  A    between atoms: O_3  and  C_4
REMARK    4  A    between atoms: N_6  and  C_7
REMARK                            x       y       z     vdW  Elec       q    Type
REMARK                         _______ _______ _______ _____ _____    ______ ____
ROOT
ATOM      1  C   UNL     1       6.185   6.165  16.614  0.00  0.00    +0.000 A 
ATOM      2  C   UNL     1       6.895   5.148  15.960  0.00  0.00    +0.000 A 
ATOM      3  C   UNL     1       6.338   3.896  15.742  0.00  0.00    +0.000 A 
ATOM      4  C   UNL     1       5.052   3.633  16.185  0.00  0.00    +0.000 A 
ATOM      5  C   UNL     1       4.322   4.603  16.882  0.00  0.00    +0.000 A 
ATOM      6  C   UNL     1       3.031   4.286  17.329  0.00  0.00    +0.000 A 
ATOM      7  C   UNL     1       2.272   5.206  18.039  0.00  0.00    +0.000 A 
ATOM      8  C   UNL     1       2.797   6.460  18.317  0.00  0.00    +0.000 A 
ATOM      9  C   UNL     1       4.080   6.801  17.866  0.00  0.00    +0.000 A 
ATOM     10  C   UNL     1       4.881   5.889  17.131  0.00  0.00    +0.000 A 
ENDROOT
BRANCH   1  13
ATOM     11  C   UNL     1       7.655   7.827  17.749  0.00  0.00    +0.000 C 
ATOM     12  O   UNL     1       8.188   7.109  18.581  0.00  0.00    +0.000 OA
ATOM     13  N   UNL     1       6.769   7.451  16.769  0.00  0.00    +0.000 N 
ATOM     14  H   UNL     1       6.558   8.174  16.101  0.00  0.00    +0.000 HD
BRANCH  11  15
ATOM     15  O   UNL     1       7.849   9.172  17.690  0.00  0.00    +0.000 OA
BRANCH  15  17
ATOM     16  C   UNL     1       9.111  11.119  18.308  0.00  0.00    +0.000 C 
ATOM     17  C   UNL     1       8.845   9.654  18.609  0.00  0.00    +0.000 C 
ENDBRANCH  15  17
ENDBRANCH  11  15
ENDBRANCH   1  13
TORSDOF 3
ENDMDL
MODEL 6
REMARK VINA RESULT:      -6.7      1.470      2.957
REMARK  Name = 
REMARK  4 active torsions:
REMARK  status: ('A' for Active; 'I' for Inactive)
REMARK    1  A    between atoms: C_1  and  C_2
REMARK    2  A    between atoms: C_2  and  O_3
REMARK    3  A    between atoms: O_3  and  C_4
REMARK    4  A    between atoms: N_6  and  C_7
REMARK                            x       y       z     vdW  Elec       q    Type
REMARK                         _______ _______ _______ _____ _____    ______ ____
ROOT
ATOM      1  C   UNL     1       4.758   4.272  18.273  0.00  0.00    +0.000 A 
ATOM      2  C   UNL     1       4.579   3.223  19.187  0.00  0.00    +0.000 A 
ATOM      3  C   UNL     1       3.617   3.284  20.184  0.00  0.00    +0.000 A 
ATOM      4  C   UNL     1       2.814   4.408  20.292  0.00  0.00    +0.000 A 
ATOM      5  C   UNL     1       2.987   5.498  19.431  0.00  0.00    +0.000 A 
ATOM      6  C   UNL     1       2.165   6.623  19.591  0.00  0.00    +0.000 A 
ATOM      7  C   UNL     1       2.306   7.736  18.774  0.00  0.00    +0.000 A 
ATOM      8  C   UNL     1       3.279   7.742  17.785  0.00  0.00    +0.000 A 
ATOM      9  C   UNL     1       4.101   6.621  17.600  0.00  0.00    +0.000 A 
ATOM     10  C   UNL     1       3.979   5.463  18.411  0.00  0.00    +0.000 A 
ENDROOT
BRANCH   1  13
ATOM     11  C   UNL     1       7.061   4.412  17.330  0.00  0.00    +0.000 C 
ATOM     12  O   UNL     1       7.691   4.679  18.342  0.00  0.00    +0.000 OA
ATOM     13  N   UNL     1       5.717   4.149  17.231  0.00  0.00    +0.000 N 
ATOM     14  H   UNL     1       5.424   3.815  16.328  0.00  0.00    +0.000 HD
BRANCH  11  15
ATOM     15  O   UNL     1       7.623   4.363  16.092  0.00  0.00    +0.000 OA
BRANCH  15  17
ATOM     16  C   UNL     1       6.600   4.062  13.942  0.00  0.00    +0.000 C 
ATOM     17  C   UNL     1       6.852   5.035  15.080  0.00  0.00    +0.000 C 
ENDBRANCH  15  17
ENDBRANCH  11  15
ENDBRANCH   1  13
TORSDOF 3
ENDMDL
MODEL 7
REMARK VINA RESULT:      -6.7      2.518      5.660
REMARK  Name = 
REMARK  4 active torsions:
REMARK  status: ('A' for Active; 'I' for Inactive)
REMARK    1  A    between atoms: C_1  and  C_2
REMARK    2  A    between atoms: C_2  and  O_3
REMARK    3  A    between atoms: O_3  and  C_4
REMARK    4  A    between atoms: N_6  and  C_7
REMARK                            x       y       z     vdW  Elec       q    Type
REMARK                         _______ _______ _______ _____ _____    ______ ____
ROOT
ATOM      1  C   UNL     1       5.248   4.459  18.425  0.00  0.00    +0.000 A 
ATOM      2  C   UNL     1       6.013   5.098  19.412  0.00  0.00    +0.000 A 
ATOM      3  C   UNL     1       7.157   5.815  19.094  0.00  0.00    +0.000 A 
ATOM      4  C   UNL     1       7.567   5.899  17.773  0.00  0.00    +0.000 A 
ATOM      5  C   UNL     1       6.860   5.240  16.761  0.00  0.00    +0.000 A 
ATOM      6  C   UNL     1       7.323   5.337  15.440  0.00  0.00    +0.000 A 
ATOM      7  C   UNL     1       6.669   4.689  14.401  0.00  0.00    +0.000 A 
ATOM      8  C   UNL     1       5.541   3.928  14.670  0.00  0.00    +0.000 A 
ATOM      9  C   UNL     1       5.054   3.831  15.981  0.00  0.00    +0.000 A 
ATOM     10  C   UNL     1       5.692   4.486  17.066  0.00  0.00    +0.000 A 
ENDROOT
BRANCH   1  13
ATOM     11  C   UNL     1       3.961   2.643  19.546  0.00  0.00    +0.000 C 
ATOM     12  O   UNL     1       4.863   2.080  20.148  0.00  0.00    +0.000 OA
ATOM     13  N   UNL     1       4.051   3.782  18.783  0.00  0.00    +0.000 N 
ATOM     14  H   UNL     1       3.164   4.156  18.490  0.00  0.00    +0.000 HD
BRANCH  11  15
ATOM     15  O   UNL     1       2.680   2.184  19.522  0.00  0.00    +0.000 OA
BRANCH  15  17
ATOM     16  C   UNL     1       1.587   2.729  21.588  0.00  0.00    +0.000 C 
ATOM     17  C   UNL     1       1.731   3.085  20.118  0.00  0.00    +0.000 C 
ENDBRANCH  15  17
ENDBRANCH  11  15
ENDBRANCH   1  13
TORSDOF 3
ENDMDL
MODEL 8
REMARK VINA RESULT:      -6.6      1.486      1.625
REMARK  Name = 
REMARK  4 active torsions:
REMARK  status: ('A' for Active; 'I' for Inactive)
REMARK    1  A    between atoms: C_1  and  C_2
REMARK    2  A    between atoms: C_2  and  O_3
REMARK    3  A    between atoms: O_3  and  C_4
REMARK    4  A    between atoms: N_6  and  C_7
REMARK                            x       y       z     vdW  Elec       q    Type
REMARK                         _______ _______ _______ _____ _____    ______ ____
ROOT
ATOM      1  C   UNL     1       4.117   5.593  17.667  0.00  0.00    +0.000 A 
ATOM      2  C   UNL     1       3.754   6.862  18.142  0.00  0.00    +0.000 A 
ATOM      3  C   UNL     1       2.619   7.050  18.917  0.00  0.00    +0.000 A 
ATOM      4  C   UNL     1       1.814   5.965  19.227  0.00  0.00    +0.000 A 
ATOM      5  C   UNL     1       2.113   4.689  18.737  0.00  0.00    +0.000 A 
ATOM      6  C   UNL     1       1.259   3.623  19.060  0.00  0.00    +0.000 A 
ATOM      7  C   UNL     1       1.501   2.342  18.586  0.00  0.00    +0.000 A 
ATOM      8  C   UNL     1       2.602   2.106  17.776  0.00  0.00    +0.000 A 
ATOM      9  C   UNL     1       3.476   3.155  17.454  0.00  0.00    +0.000 A 
ATOM     10  C   UNL     1       3.264   4.476  17.927  0.00  0.00    +0.000 A 
ENDROOT
BRANCH   1  13
ATOM     11  C   UNL     1       5.636   6.069  15.749  0.00  0.00    +0.000 C 
ATOM     12  O   UNL     1       5.014   6.965  15.199  0.00  0.00    +0.000 OA
ATOM     13  N   UNL     1       5.318   5.432  16.923  0.00  0.00    +0.000 N 
ATOM     14  H   UNL     1       6.037   4.820  17.272  0.00  0.00    +0.000 HD
BRANCH  11  15
ATOM     15  O   UNL     1       6.774   5.528  15.236  0.00  0.00    +0.000 OA
BRANCH  15  17
ATOM     16  C   UNL     1       6.010   3.887  13.660  0.00  0.00    +0.000 C 
ATOM     17  C   UNL     1       6.687   4.111  15.001  0.00  0.00    +0.000 C 
ENDBRANCH  15  17
ENDBRANCH  11  15
ENDBRANCH   1  13
TORSDOF 3
ENDMDL
MODEL 9
REMARK VINA RESULT:      -6.6      1.214      1.431
REMARK  Name = 
REMARK  4 active torsions:
REMARK  status: ('A' for Active; 'I' for Inactive)
REMARK    1  A    between atoms: C_1  and  C_2
REMARK    2  A    between atoms: C_2  and  O_3
REMARK    3  A    between atoms: O_3  and  C_4
REMARK    4  A    between atoms: N_6  and  C_7
REMARK                            x       y       z     vdW  Elec       q    Type
REMARK                         _______ _______ _______ _____ _____    ______ ____
ROOT
ATOM      1  C   UNL     1       4.442   5.483  16.656  0.00  0.00    +0.000 A 
ATOM      2  C   UNL     1       4.447   6.870  16.866  0.00  0.00    +0.000 A 
ATOM      3  C   UNL     1       3.663   7.460  17.847  0.00  0.00    +0.000 A 
ATOM      4  C   UNL     1       2.845   6.669  18.637  0.00  0.00    +0.000 A 
ATOM      5  C   UNL     1       2.773   5.286  18.433  0.00  0.00    +0.000 A 
ATOM      6  C   UNL     1       1.916   4.527  19.243  0.00  0.00    +0.000 A 
ATOM      7  C   UNL     1       1.795   3.155  19.072  0.00  0.00    +0.000 A 
ATOM      8  C   UNL     1       2.529   2.520  18.080  0.00  0.00    +0.000 A 
ATOM      9  C   UNL     1       3.403   3.259  17.270  0.00  0.00    +0.000 A 
ATOM     10  C   UNL     1       3.557   4.662  17.422  0.00  0.00    +0.000 A 
ENDROOT
BRANCH   1  13
ATOM     11  C   UNL     1       6.638   5.181  15.517  0.00  0.00    +0.000 C 
ATOM     12  O   UNL     1       7.351   5.858  16.242  0.00  0.00    +0.000 OA
ATOM     13  N   UNL     1       5.301   4.911  15.680  0.00  0.00    +0.000 N 
ATOM     14  H   UNL     1       4.937   4.218  15.047  0.00  0.00    +0.000 HD
BRANCH  11  15
ATOM     15  O   UNL     1       7.081   4.593  14.373  0.00  0.00    +0.000 OA
BRANCH  15  17
ATOM     16  C   UNL     1       6.566   3.549  12.274  0.00  0.00    +0.000 C 
ATOM     17  C   UNL     1       6.069   3.842  13.679  0.00  0.00    +0.000 C 
ENDBRANCH  15  17
ENDBRANCH  11  15
ENDBRANCH   1  13
TORSDOF 3
ENDMDL
