MODEL 1
REMARK VINA RESULT:      -6.4      0.000      0.000
REMARK  Name = 
REMARK  20 active torsions:
REMARK  status: ('A' for Active; 'I' for Inactive)
REMARK    1  A    between atoms: C_1  and  C_2
REMARK    2  A    between atoms: C_2  and  C_3
REMARK    3  A    between atoms: C_3  and  C_4
REMARK    4  A    between atoms: C_4  and  C_5
REMARK    5  A    between atoms: C_5  and  C_6
REMARK    6  A    between atoms: C_6  and  C_7
REMARK    7  A    between atoms: C_7  and  C_8
REMARK    8  A    between atoms: C_8  and  C_9
REMARK    9  A    between atoms: C_9  and  C_10
REMARK   10  A    between atoms: C_10  and  C_11
REMARK   11  A    between atoms: C_11  and  C_12
REMARK   12  A    between atoms: C_12  and  C_13
REMARK   13  A    between atoms: C_13  and  C_14
REMARK   14  A    between atoms: C_14  and  O_15
REMARK   15  A    between atoms: O_15  and  C_16
REMARK   16  A    between atoms: C_19  and  C_20
REMARK   17  A    between atoms: N_22  and  C_23
REMARK   18  A    between atoms: C_23  and  C_24
REMARK   19  A    between atoms: C_24  and  C_25
REMARK   20  A    between atoms: N_30  and  C_31
REMARK                            x       y       z     vdW  Elec       q    Type
REMARK                         _______ _______ _______ _____ _____    ______ ____
ROOT
ATOM      1  C   UNL     1       2.118   6.967  19.511  0.00  0.00    +0.000 A 
ATOM      2  C   UNL     1       2.495   7.452  18.261  0.00  0.00    +0.000 A 
ATOM      3  C   UNL     1       2.313   8.803  17.940  0.00  0.00    +0.000 A 
ATOM      4  C   UNL     1       1.703   9.678  18.853  0.00  0.00    +0.000 A 
ATOM      5  C   UNL     1       1.309   9.181  20.101  0.00  0.00    +0.000 A 
ATOM      6  C   UNL     1       1.517   7.833  20.425  0.00  0.00    +0.000 A 
ENDROOT
BRANCH   4   7
ATOM      7  C   UNL     1       1.446  11.091  18.446  0.00  0.00    +0.000 C 
ATOM      8  O   UNL     1       2.357  11.772  17.950  0.00  0.00    +0.000 OA
ATOM      9  N   UNL     1       0.164  11.584  18.624  0.00  0.00    +0.000 N 
ATOM     10  H   UNL     1      -0.541  11.030  19.117  0.00  0.00    +0.000 HD
BRANCH   9  11
ATOM     11  C   UNL     1      -0.145  12.958  18.254  0.00  0.00    +0.000 C 
BRANCH  11  12
ATOM     12  C   UNL     1       0.132  13.941  19.408  0.00  0.00    +0.000 C 
BRANCH  12  13
ATOM     13  C   UNL     1       0.520  15.321  18.928  0.00  0.00    +0.000 A 
ATOM     14  C   UNL     1      -0.473  16.176  18.402  0.00  0.00    +0.000 A 
ATOM     15  C   UNL     1      -0.156  17.476  18.023  0.00  0.00    +0.000 A 
ATOM     16  C   UNL     1       1.138  17.932  18.207  0.00  0.00    +0.000 A 
ATOM     17  C   UNL     1       2.103  17.062  18.698  0.00  0.00    +0.000 A 
ATOM     18  N   UNL     1       1.809  15.772  19.001  0.00  0.00    +0.000 N 
ATOM     19  C   UNL     1       2.933  14.847  19.298  0.00  0.00    +0.000 C 
ENDBRANCH  12  13
ENDBRANCH  11  12
ENDBRANCH   9  11
ENDBRANCH   4   7
BRANCH   1  20
ATOM     20  O   UNL     1       2.384   5.644  19.745  0.00  0.00    +0.000 OA
BRANCH  20  21
ATOM     21  C   UNL     1       1.836   5.127  20.958  0.00  0.00    +0.000 C 
BRANCH  21  22
ATOM     22  C   UNL     1       0.937   3.947  20.617  0.00  0.00    +0.000 C 
BRANCH  22  23
ATOM     23  C   UNL     1       1.531   3.130  19.478  0.00  0.00    +0.000 C 
BRANCH  23  24
ATOM     24  C   UNL     1       2.836   2.472  19.904  0.00  0.00    +0.000 C 
BRANCH  24  25
ATOM     25  C   UNL     1       3.776   2.336  18.714  0.00  0.00    +0.000 C 
BRANCH  25  26
ATOM     26  C   UNL     1       3.154   2.962  17.476  0.00  0.00    +0.000 C 
BRANCH  26  27
ATOM     27  C   UNL     1       3.965   4.169  17.033  0.00  0.00    +0.000 C 
BRANCH  27  28
ATOM     28  C   UNL     1       4.975   3.763  15.974  0.00  0.00    +0.000 C 
BRANCH  28  29
ATOM     29  C   UNL     1       5.494   4.992  15.248  0.00  0.00    +0.000 C 
BRANCH  29  30
ATOM     30  C   UNL     1       6.955   5.224  15.592  0.00  0.00    +0.000 C 
BRANCH  30  31
ATOM     31  C   UNL     1       7.341   4.419  16.824  0.00  0.00    +0.000 C 
BRANCH  31  32
ATOM     32  C   UNL     1       7.696   5.351  17.972  0.00  0.00    +0.000 C 
BRANCH  32  34
ATOM     33  C   UNL     1       7.840   7.830  17.688  0.00  0.00    +0.000 C 
ATOM     34  C   UNL     1       6.905   6.649  17.877  0.00  0.00    +0.000 C 
ENDBRANCH  32  34
ENDBRANCH  31  32
ENDBRANCH  30  31
ENDBRANCH  29  30
ENDBRANCH  28  29
ENDBRANCH  27  28
ENDBRANCH  26  27
ENDBRANCH  25  26
ENDBRANCH  24  25
ENDBRANCH  23  24
ENDBRANCH  22  23
ENDBRANCH  21  22
ENDBRANCH  20  21
ENDBRANCH   1  20
TORSDOF 18
ENDMDL
MODEL 2
REMARK VINA RESULT:      -6.3      1.619      2.303
REMARK  Name = 
REMARK  20 active torsions:
REMARK  status: ('A' for Active; 'I' for Inactive)
REMARK    1  A    between atoms: C_1  and  C_2
REMARK    2  A    between atoms: C_2  and  C_3
REMARK    3  A    between atoms: C_3  and  C_4
REMARK    4  A    between atoms: C_4  and  C_5
REMARK    5  A    between atoms: C_5  and  C_6
REMARK    6  A    between atoms: C_6  and  C_7
REMARK    7  A    between atoms: C_7  and  C_8
REMARK    8  A    between atoms: C_8  and  C_9
REMARK    9  A    between atoms: C_9  and  C_10
REMARK   10  A    between atoms: C_10  and  C_11
REMARK   11  A    between atoms: C_11  and  C_12
REMARK   12  A    between atoms: C_12  and  C_13
REMARK   13  A    between atoms: C_13  and  C_14
REMARK   14  A    between atoms: C_14  and  O_15
REMARK   15  A    between atoms: O_15  and  C_16
REMARK   16  A    between atoms: C_19  and  C_20
REMARK   17  A    between atoms: N_22  and  C_23
REMARK   18  A    between atoms: C_23  and  C_24
REMARK   19  A    between atoms: C_24  and  C_25
REMARK   20  A    between atoms: N_30  and  C_31
REMARK                            x       y       z     vdW  Elec       q    Type
REMARK                         _______ _______ _______ _____ _____    ______ ____
ROOT
ATOM      1  C   UNL     1       1.969   7.138  19.934  0.00  0.00    +0.000 A 
ATOM      2  C   UNL     1       2.137   7.923  18.796  0.00  0.00    +0.000 A 
ATOM      3  C   UNL     1       1.656   9.238  18.764  0.00  0.00    +0.000 A 
ATOM      4  C   UNL     1       0.954   9.768  19.858  0.00  0.00    +0.000 A 
ATOM      5  C   UNL     1       0.771   8.968  20.992  0.00  0.00    +0.000 A 
ATOM      6  C   UNL     1       1.277   7.661  21.027  0.00  0.00    +0.000 A 
ENDROOT
BRANCH   4   7
ATOM      7  C   UNL     1       0.380  11.142  19.758  0.00  0.00    +0.000 C 
ATOM      8  O   UNL     1      -0.253  11.623  20.711  0.00  0.00    +0.000 OA
ATOM      9  N   UNL     1       0.603  11.846  18.586  0.00  0.00    +0.000 N 
ATOM     10  H   UNL     1       1.050  11.391  17.786  0.00  0.00    +0.000 HD
BRANCH   9  11
ATOM     11  C   UNL     1       0.059  13.187  18.428  0.00  0.00    +0.000 C 
BRANCH  11  12
ATOM     12  C   UNL     1       1.088  14.273  18.797  0.00  0.00    +0.000 C 
BRANCH  12  13
ATOM     13  C   UNL     1       0.807  14.924  20.132  0.00  0.00    +0.000 A 
ATOM     14  C   UNL     1      -0.530  15.078  20.560  0.00  0.00    +0.000 A 
ATOM     15  C   UNL     1      -0.813  15.605  21.814  0.00  0.00    +0.000 A 
ATOM     16  C   UNL     1       0.236  15.939  22.655  0.00  0.00    +0.000 A 
ATOM     17  C   UNL     1       1.542  15.807  22.199  0.00  0.00    +0.000 A 
ATOM     18  N   UNL     1       1.815  15.359  20.948  0.00  0.00    +0.000 N 
ATOM     19  C   UNL     1       3.213  15.463  20.455  0.00  0.00    +0.000 C 
ENDBRANCH  12  13
ENDBRANCH  11  12
ENDBRANCH   9  11
ENDBRANCH   4   7
BRANCH   1  20
ATOM     20  O   UNL     1       2.518   5.885  19.884  0.00  0.00    +0.000 OA
BRANCH  20  21
ATOM     21  C   UNL     1       2.126   5.013  20.944  0.00  0.00    +0.000 C 
BRANCH  21  22
ATOM     22  C   UNL     1       1.029   4.091  20.429  0.00  0.00    +0.000 C 
BRANCH  22  23
ATOM     23  C   UNL     1       1.588   2.708  20.124  0.00  0.00    +0.000 C 
BRANCH  23  24
ATOM     24  C   UNL     1       1.097   2.210  18.772  0.00  0.00    +0.000 C 
BRANCH  24  25
ATOM     25  C   UNL     1       2.169   2.413  17.710  0.00  0.00    +0.000 C 
BRANCH  25  26
ATOM     26  C   UNL     1       3.553   2.336  18.334  0.00  0.00    +0.000 C 
BRANCH  26  27
ATOM     27  C   UNL     1       4.334   3.606  18.041  0.00  0.00    +0.000 C 
BRANCH  27  28
ATOM     28  C   UNL     1       5.315   3.891  19.165  0.00  0.00    +0.000 C 
BRANCH  28  29
ATOM     29  C   UNL     1       5.766   5.341  19.111  0.00  0.00    +0.000 C 
BRANCH  29  30
ATOM     30  C   UNL     1       7.174   5.429  18.549  0.00  0.00    +0.000 C 
BRANCH  30  31
ATOM     31  C   UNL     1       7.133   5.871  17.094  0.00  0.00    +0.000 C 
BRANCH  31  32
ATOM     32  C   UNL     1       7.291   4.669  16.175  0.00  0.00    +0.000 C 
BRANCH  32  34
ATOM     33  C   UNL     1       5.288   5.851  15.259  0.00  0.00    +0.000 C 
ATOM     34  C   UNL     1       6.139   4.596  15.180  0.00  0.00    +0.000 C 
ENDBRANCH  32  34
ENDBRANCH  31  32
ENDBRANCH  30  31
ENDBRANCH  29  30
ENDBRANCH  28  29
ENDBRANCH  27  28
ENDBRANCH  26  27
ENDBRANCH  25  26
ENDBRANCH  24  25
ENDBRANCH  23  24
ENDBRANCH  22  23
ENDBRANCH  21  22
ENDBRANCH  20  21
ENDBRANCH   1  20
TORSDOF 18
ENDMDL
MODEL 3
REMARK VINA RESULT:      -6.3      3.970      5.028
REMARK  Name = 
REMARK  20 active torsions:
REMARK  status: ('A' for Active; 'I' for Inactive)
REMARK    1  A    between atoms: C_1  and  C_2
REMARK    2  A    between atoms: C_2  and  C_3
REMARK    3  A    between atoms: C_3  and  C_4
REMARK    4  A    between atoms: C_4  and  C_5
REMARK    5  A    between atoms: C_5  and  C_6
REMARK    6  A    between atoms: C_6  and  C_7
REMARK    7  A    between atoms: C_7  and  C_8
REMARK    8  A    between atoms: C_8  and  C_9
REMARK    9  A    between atoms: C_9  and  C_10
REMARK   10  A    between atoms: C_10  and  C_11
REMARK   11  A    between atoms: C_11  and  C_12
REMARK   12  A    between atoms: C_12  and  C_13
REMARK   13  A    between atoms: C_13  and  C_14
REMARK   14  A    between atoms: C_14  and  O_15
REMARK   15  A    between atoms: O_15  and  C_16
REMARK   16  A    between atoms: C_19  and  C_20
REMARK   17  A    between atoms: N_22  and  C_23
REMARK   18  A    between atoms: C_23  and  C_24
REMARK   19  A    between atoms: C_24  and  C_25
REMARK   20  A    between atoms: N_30  and  C_31
REMARK                            x       y       z     vdW  Elec       q    Type
REMARK                         _______ _______ _______ _____ _____    ______ ____
ROOT
ATOM      1  C   UNL     1       0.942   8.591  21.099  0.00  0.00    +0.000 A 
ATOM      2  C   UNL     1       0.502   8.941  22.373  0.00  0.00    +0.000 A 
ATOM      3  C   UNL     1      -0.052  10.206  22.609  0.00  0.00    +0.000 A 
ATOM      4  C   UNL     1      -0.125  11.157  21.579  0.00  0.00    +0.000 A 
ATOM      5  C   UNL     1       0.337  10.806  20.305  0.00  0.00    +0.000 A 
ATOM      6  C   UNL     1       0.867   9.529  20.070  0.00  0.00    +0.000 A 
ENDROOT
BRANCH   4   7
ATOM      7  C   UNL     1      -0.639  12.524  21.885  0.00  0.00    +0.000 C 
ATOM      8  O   UNL     1       0.140  13.411  22.270  0.00  0.00    +0.000 OA
ATOM      9  N   UNL     1      -1.992  12.756  21.700  0.00  0.00    +0.000 N 
ATOM     10  H   UNL     1      -2.623  11.983  21.468  0.00  0.00    +0.000 HD
BRANCH   9  11
ATOM     11  C   UNL     1      -2.553  14.067  21.990  0.00  0.00    +0.000 C 
BRANCH  11  12
ATOM     12  C   UNL     1      -3.893  14.295  21.264  0.00  0.00    +0.000 C 
BRANCH  12  13
ATOM     13  C   UNL     1      -5.089  14.164  22.178  0.00  0.00    +0.000 A 
ATOM     14  C   UNL     1      -5.592  12.880  22.483  0.00  0.00    +0.000 A 
ATOM     15  C   UNL     1      -6.643  12.729  23.379  0.00  0.00    +0.000 A 
ATOM     16  C   UNL     1      -7.165  13.851  23.999  0.00  0.00    +0.000 A 
ATOM     17  C   UNL     1      -6.674  15.106  23.659  0.00  0.00    +0.000 A 
ATOM     18  N   UNL     1      -5.696  15.259  22.732  0.00  0.00    +0.000 N 
ATOM     19  C   UNL     1      -5.387  16.632  22.256  0.00  0.00    +0.000 C 
ENDBRANCH  12  13
ENDBRANCH  11  12
ENDBRANCH   9  11
ENDBRANCH   4   7
BRANCH   1  20
ATOM     20  O   UNL     1       1.420   7.315  20.961  0.00  0.00    +0.000 OA
BRANCH  20  21
ATOM     21  C   UNL     1       2.179   7.083  19.774  0.00  0.00    +0.000 C 
BRANCH  21  22
ATOM     22  C   UNL     1       2.818   5.705  19.872  0.00  0.00    +0.000 C 
BRANCH  22  23
ATOM     23  C   UNL     1       2.269   4.941  21.069  0.00  0.00    +0.000 C 
BRANCH  23  24
ATOM     24  C   UNL     1       1.923   3.509  20.687  0.00  0.00    +0.000 C 
BRANCH  24  25
ATOM     25  C   UNL     1       0.735   3.486  19.736  0.00  0.00    +0.000 C 
BRANCH  25  26
ATOM     26  C   UNL     1       0.943   2.437  18.655  0.00  0.00    +0.000 C 
BRANCH  26  27
ATOM     27  C   UNL     1       2.426   2.252  18.380  0.00  0.00    +0.000 C 
BRANCH  27  28
ATOM     28  C   UNL     1       2.874   3.187  17.269  0.00  0.00    +0.000 C 
BRANCH  28  29
ATOM     29  C   UNL     1       4.366   3.450  17.377  0.00  0.00    +0.000 C 
BRANCH  29  30
ATOM     30  C   UNL     1       4.790   4.482  16.345  0.00  0.00    +0.000 C 
BRANCH  30  31
ATOM     31  C   UNL     1       5.315   5.732  17.035  0.00  0.00    +0.000 C 
BRANCH  31  32
ATOM     32  C   UNL     1       6.767   5.975  16.649  0.00  0.00    +0.000 C 
BRANCH  32  34
ATOM     33  C   UNL     1       7.644   5.846  18.986  0.00  0.00    +0.000 C 
ATOM     34  C   UNL     1       7.500   6.723  17.755  0.00  0.00    +0.000 C 
ENDBRANCH  32  34
ENDBRANCH  31  32
ENDBRANCH  30  31
ENDBRANCH  29  30
ENDBRANCH  28  29
ENDBRANCH  27  28
ENDBRANCH  26  27
ENDBRANCH  25  26
ENDBRANCH  24  25
ENDBRANCH  23  24
ENDBRANCH  22  23
ENDBRANCH  21  22
ENDBRANCH  20  21
ENDBRANCH   1  20
TORSDOF 18
ENDMDL
MODEL 4
REMARK VINA RESULT:      -6.3      2.644      3.215
REMARK  Name = 
REMARK  20 active torsions:
REMARK  status: ('A' for Active; 'I' for Inactive)
REMARK    1  A    between atoms: C_1  and  C_2
REMARK    2  A    between atoms: C_2  and  C_3
REMARK    3  A    between atoms: C_3  and  C_4
REMARK    4  A    between atoms: C_4  and  C_5
REMARK    5  A    between atoms: C_5  and  C_6
REMARK    6  A    between atoms: C_6  and  C_7
REMARK    7  A    between atoms: C_7  and  C_8
REMARK    8  A    between atoms: C_8  and  C_9
REMARK    9  A    between atoms: C_9  and  C_10
REMARK   10  A    between atoms: C_10  and  C_11
REMARK   11  A    between atoms: C_11  and  C_12
REMARK   12  A    between atoms: C_12  and  C_13
REMARK   13  A    between atoms: C_13  and  C_14
REMARK   14  A    between atoms: C_14  and  O_15
REMARK   15  A    between atoms: O_15  and  C_16
REMARK   16  A    between atoms: C_19  and  C_20
REMARK   17  A    between atoms: N_22  and  C_23
REMARK   18  A    between atoms: C_23  and  C_24
REMARK   19  A    between atoms: C_24  and  C_25
REMARK   20  A    between atoms: N_30  and  C_31
REMARK                            x       y       z     vdW  Elec       q    Type
REMARK                         _______ _______ _______ _____ _____    ______ ____
ROOT
ATOM      1  C   UNL     1       2.343   6.551  20.041  0.00  0.00    +0.000 A 
ATOM      2  C   UNL     1       2.535   7.037  18.750  0.00  0.00    +0.000 A 
ATOM      3  C   UNL     1       2.074   8.312  18.397  0.00  0.00    +0.000 A 
ATOM      4  C   UNL     1       1.368   9.098  19.321  0.00  0.00    +0.000 A 
ATOM      5  C   UNL     1       1.161   8.595  20.612  0.00  0.00    +0.000 A 
ATOM      6  C   UNL     1       1.646   7.329  20.967  0.00  0.00    +0.000 A 
ENDROOT
BRANCH   4   7
ATOM      7  C   UNL     1       0.815  10.414  18.887  0.00  0.00    +0.000 C 
ATOM      8  O   UNL     1       1.567  11.278  18.408  0.00  0.00    +0.000 OA
ATOM      9  N   UNL     1      -0.549  10.611  19.019  0.00  0.00    +0.000 N 
ATOM     10  H   UNL     1      -1.128   9.916  19.499  0.00  0.00    +0.000 HD
BRANCH   9  11
ATOM     11  C   UNL     1      -1.144  11.878  18.620  0.00  0.00    +0.000 C 
BRANCH  11  12
ATOM     12  C   UNL     1      -2.503  12.118  19.305  0.00  0.00    +0.000 C 
BRANCH  12  13
ATOM     13  C   UNL     1      -2.368  12.593  20.734  0.00  0.00    +0.000 A 
ATOM     14  C   UNL     1      -1.264  12.167  21.505  0.00  0.00    +0.000 A 
ATOM     15  C   UNL     1      -1.077  12.649  22.795  0.00  0.00    +0.000 A 
ATOM     16  C   UNL     1      -1.966  13.582  23.299  0.00  0.00    +0.000 A 
ATOM     17  C   UNL     1      -3.062  13.962  22.533  0.00  0.00    +0.000 A 
ATOM     18  N   UNL     1      -3.283  13.438  21.301  0.00  0.00    +0.000 N 
ATOM     19  C   UNL     1      -4.586  13.715  20.644  0.00  0.00    +0.000 C 
ENDBRANCH  12  13
ENDBRANCH  11  12
ENDBRANCH   9  11
ENDBRANCH   4   7
BRANCH   1  20
ATOM     20  O   UNL     1       2.874   5.316  20.300  0.00  0.00    +0.000 OA
BRANCH  20  21
ATOM     21  C   UNL     1       2.005   4.422  20.996  0.00  0.00    +0.000 C 
BRANCH  21  22
ATOM     22  C   UNL     1       0.806   4.124  20.108  0.00  0.00    +0.000 C 
BRANCH  22  23
ATOM     23  C   UNL     1       1.159   3.076  19.061  0.00  0.00    +0.000 C 
BRANCH  23  24
ATOM     24  C   UNL     1       2.005   1.966  19.668  0.00  0.00    +0.000 C 
BRANCH  24  25
ATOM     25  C   UNL     1       3.227   1.697  18.801  0.00  0.00    +0.000 C 
BRANCH  25  26
ATOM     26  C   UNL     1       4.468   2.307  19.434  0.00  0.00    +0.000 C 
BRANCH  26  27
ATOM     27  C   UNL     1       4.870   3.570  18.691  0.00  0.00    +0.000 C 
BRANCH  27  28
ATOM     28  C   UNL     1       4.506   3.454  17.221  0.00  0.00    +0.000 C 
BRANCH  28  29
ATOM     29  C   UNL     1       4.450   4.833  16.586  0.00  0.00    +0.000 C 
BRANCH  29  30
ATOM     30  C   UNL     1       5.426   4.913  15.424  0.00  0.00    +0.000 C 
BRANCH  30  31
ATOM     31  C   UNL     1       6.818   5.261  15.928  0.00  0.00    +0.000 C 
BRANCH  31  32
ATOM     32  C   UNL     1       6.777   6.545  16.743  0.00  0.00    +0.000 C 
BRANCH  32  34
ATOM     33  C   UNL     1       8.247   7.625  18.451  0.00  0.00    +0.000 C 
ATOM     34  C   UNL     1       7.494   6.362  18.074  0.00  0.00    +0.000 C 
ENDBRANCH  32  34
ENDBRANCH  31  32
ENDBRANCH  30  31
ENDBRANCH  29  30
ENDBRANCH  28  29
ENDBRANCH  27  28
ENDBRANCH  26  27
ENDBRANCH  25  26
ENDBRANCH  24  25
ENDBRANCH  23  24
ENDBRANCH  22  23
ENDBRANCH  21  22
ENDBRANCH  20  21
ENDBRANCH   1  20
TORSDOF 18
ENDMDL
MODEL 5
REMARK VINA RESULT:      -6.3      4.444     10.341
REMARK  Name = 
REMARK  20 active torsions:
REMARK  status: ('A' for Active; 'I' for Inactive)
REMARK    1  A    between atoms: C_1  and  C_2
REMARK    2  A    between atoms: C_2  and  C_3
REMARK    3  A    between atoms: C_3  and  C_4
REMARK    4  A    between atoms: C_4  and  C_5
REMARK    5  A    between atoms: C_5  and  C_6
REMARK    6  A    between atoms: C_6  and  C_7
REMARK    7  A    between atoms: C_7  and  C_8
REMARK    8  A    between atoms: C_8  and  C_9
REMARK    9  A    between atoms: C_9  and  C_10
REMARK   10  A    between atoms: C_10  and  C_11
REMARK   11  A    between atoms: C_11  and  C_12
REMARK   12  A    between atoms: C_12  and  C_13
REMARK   13  A    between atoms: C_13  and  C_14
REMARK   14  A    between atoms: C_14  and  O_15
REMARK   15  A    between atoms: O_15  and  C_16
REMARK   16  A    between atoms: C_19  and  C_20
REMARK   17  A    between atoms: N_22  and  C_23
REMARK   18  A    between atoms: C_23  and  C_24
REMARK   19  A    between atoms: C_24  and  C_25
REMARK   20  A    between atoms: N_30  and  C_31
REMARK                            x       y       z     vdW  Elec       q    Type
REMARK                         _______ _______ _______ _____ _____    ______ ____
ROOT
ATOM      1  C   UNL     1       7.852   7.234  18.285  0.00  0.00    +0.000 A 
ATOM      2  C   UNL     1       7.828   5.996  18.921  0.00  0.00    +0.000 A 
ATOM      3  C   UNL     1       6.984   4.978  18.459  0.00  0.00    +0.000 A 
ATOM      4  C   UNL     1       6.114   5.205  17.382  0.00  0.00    +0.000 A 
ATOM      5  C   UNL     1       6.128   6.460  16.759  0.00  0.00    +0.000 A 
ATOM      6  C   UNL     1       6.993   7.466  17.210  0.00  0.00    +0.000 A 
ENDROOT
BRANCH   4   7
ATOM      7  C   UNL     1       5.166   4.128  16.971  0.00  0.00    +0.000 C 
ATOM      8  O   UNL     1       4.868   3.985  15.775  0.00  0.00    +0.000 OA
ATOM      9  N   UNL     1       4.667   3.301  17.963  0.00  0.00    +0.000 N 
ATOM     10  H   UNL     1       4.861   3.500  18.949  0.00  0.00    +0.000 HD
BRANCH   9  11
ATOM     11  C   UNL     1       3.732   2.239  17.623  0.00  0.00    +0.000 C 
BRANCH  11  12
ATOM     12  C   UNL     1       2.377   2.414  18.336  0.00  0.00    +0.000 C 
BRANCH  12  13
ATOM     13  C   UNL     1       2.270   3.721  19.088  0.00  0.00    +0.000 A 
ATOM     14  C   UNL     1       2.177   4.931  18.366  0.00  0.00    +0.000 A 
ATOM     15  C   UNL     1       2.003   6.138  19.033  0.00  0.00    +0.000 A 
ATOM     16  C   UNL     1       1.883   6.133  20.412  0.00  0.00    +0.000 A 
ATOM     17  C   UNL     1       2.009   4.934  21.101  0.00  0.00    +0.000 A 
ATOM     18  N   UNL     1       2.250   3.765  20.456  0.00  0.00    +0.000 N 
ATOM     19  C   UNL     1       2.600   2.572  21.269  0.00  0.00    +0.000 C 
ENDBRANCH  12  13
ENDBRANCH  11  12
ENDBRANCH   9  11
ENDBRANCH   4   7
BRANCH   1  20
ATOM     20  O   UNL     1       8.747   8.145  18.781  0.00  0.00    +0.000 OA
BRANCH  20  21
ATOM     21  C   UNL     1       8.552   9.486  18.331  0.00  0.00    +0.000 C 
BRANCH  21  22
ATOM     22  C   UNL     1       9.512  10.393  19.088  0.00  0.00    +0.000 C 
BRANCH  22  23
ATOM     23  C   UNL     1       9.863  11.618  18.254  0.00  0.00    +0.000 C 
BRANCH  23  24
ATOM     24  C   UNL     1       8.607  12.279  17.704  0.00  0.00    +0.000 C 
BRANCH  24  25
ATOM     25  C   UNL     1       8.657  13.784  17.931  0.00  0.00    +0.000 C 
BRANCH  25  26
ATOM     26  C   UNL     1       7.265  14.383  17.809  0.00  0.00    +0.000 C 
BRANCH  26  27
ATOM     27  C   UNL     1       7.297  15.863  18.152  0.00  0.00    +0.000 C 
BRANCH  27  28
ATOM     28  C   UNL     1       6.170  16.204  19.112  0.00  0.00    +0.000 C 
BRANCH  28  29
ATOM     29  C   UNL     1       6.706  17.014  20.281  0.00  0.00    +0.000 C 
BRANCH  29  30
ATOM     30  C   UNL     1       6.757  16.154  21.532  0.00  0.00    +0.000 C 
BRANCH  30  31
ATOM     31  C   UNL     1       8.065  15.379  21.586  0.00  0.00    +0.000 C 
BRANCH  31  32
ATOM     32  C   UNL     1       7.788  13.887  21.690  0.00  0.00    +0.000 C 
BRANCH  32  34
ATOM     33  C   UNL     1      10.243  14.004  21.234  0.00  0.00    +0.000 C 
ATOM     34  C   UNL     1       9.082  13.089  21.579  0.00  0.00    +0.000 C 
ENDBRANCH  32  34
ENDBRANCH  31  32
ENDBRANCH  30  31
ENDBRANCH  29  30
ENDBRANCH  28  29
ENDBRANCH  27  28
ENDBRANCH  26  27
ENDBRANCH  25  26
ENDBRANCH  24  25
ENDBRANCH  23  24
ENDBRANCH  22  23
ENDBRANCH  21  22
ENDBRANCH  20  21
ENDBRANCH   1  20
TORSDOF 18
ENDMDL
MODEL 6
REMARK VINA RESULT:      -6.2      4.065     10.404
REMARK  Name = 
REMARK  20 active torsions:
REMARK  status: ('A' for Active; 'I' for Inactive)
REMARK    1  A    between atoms: C_1  and  C_2
REMARK    2  A    between atoms: C_2  and  C_3
REMARK    3  A    between atoms: C_3  and  C_4
REMARK    4  A    between atoms: C_4  and  C_5
REMARK    5  A    between atoms: C_5  and  C_6
REMARK    6  A    between atoms: C_6  and  C_7
REMARK    7  A    between atoms: C_7  and  C_8
REMARK    8  A    between atoms: C_8  and  C_9
REMARK    9  A    between atoms: C_9  and  C_10
REMARK   10  A    between atoms: C_10  and  C_11
REMARK   11  A    between atoms: C_11  and  C_12
REMARK   12  A    between atoms: C_12  and  C_13
REMARK   13  A    between atoms: C_13  and  C_14
REMARK   14  A    between atoms: C_14  and  O_15
REMARK   15  A    between atoms: O_15  and  C_16
REMARK   16  A    between atoms: C_19  and  C_20
REMARK   17  A    between atoms: N_22  and  C_23
REMARK   18  A    between atoms: C_23  and  C_24
REMARK   19  A    between atoms: C_24  and  C_25
REMARK   20  A    between atoms: N_30  and  C_31
REMARK                            x       y       z     vdW  Elec       q    Type
REMARK                         _______ _______ _______ _____ _____    ______ ____
ROOT
ATOM      1  C   UNL     1      -0.118  10.838  22.350  0.00  0.00    +0.000 A 
ATOM      2  C   UNL     1      -0.415   9.494  22.561  0.00  0.00    +0.000 A 
ATOM      3  C   UNL     1       0.203   8.502  21.789  0.00  0.00    +0.000 A 
ATOM      4  C   UNL     1       1.091   8.848  20.759  0.00  0.00    +0.000 A 
ATOM      5  C   UNL     1       1.371  10.203  20.539  0.00  0.00    +0.000 A 
ATOM      6  C   UNL     1       0.768  11.189  21.332  0.00  0.00    +0.000 A 
ENDROOT
BRANCH   4   7
ATOM      7  C   UNL     1       1.664   7.772  19.898  0.00  0.00    +0.000 C 
ATOM      8  O   UNL     1       1.899   7.992  18.699  0.00  0.00    +0.000 OA
ATOM      9  N   UNL     1       1.938   6.553  20.495  0.00  0.00    +0.000 N 
ATOM     10  H   UNL     1       1.651   6.373  21.461  0.00  0.00    +0.000 HD
BRANCH   9  11
ATOM     11  C   UNL     1       2.489   5.462  19.704  0.00  0.00    +0.000 C 
BRANCH  11  12
ATOM     12  C   UNL     1       4.011   5.606  19.506  0.00  0.00    +0.000 C 
BRANCH  12  13
ATOM     13  C   UNL     1       4.435   5.461  18.062  0.00  0.00    +0.000 A 
ATOM     14  C   UNL     1       4.712   6.619  17.302  0.00  0.00    +0.000 A 
ATOM     15  C   UNL     1       5.175   6.510  15.996  0.00  0.00    +0.000 A 
ATOM     16  C   UNL     1       5.400   5.252  15.465  0.00  0.00    +0.000 A 
ATOM     17  C   UNL     1       5.090   4.129  16.222  0.00  0.00    +0.000 A 
ATOM     18  N   UNL     1       4.571   4.235  17.471  0.00  0.00    +0.000 N 
ATOM     19  C   UNL     1       4.054   3.005  18.124  0.00  0.00    +0.000 C 
ENDBRANCH  12  13
ENDBRANCH  11  12
ENDBRANCH   9  11
ENDBRANCH   4   7
BRANCH   1  20
ATOM     20  O   UNL     1      -0.735  11.726  23.190  0.00  0.00    +0.000 OA
BRANCH  20  21
ATOM     21  C   UNL     1      -1.239  12.902  22.556  0.00  0.00    +0.000 C 
BRANCH  21  22
ATOM     22  C   UNL     1      -2.606  12.585  21.966  0.00  0.00    +0.000 C 
BRANCH  22  23
ATOM     23  C   UNL     1      -2.740  13.179  20.570  0.00  0.00    +0.000 C 
BRANCH  23  24
ATOM     24  C   UNL     1      -1.372  13.426  19.951  0.00  0.00    +0.000 C 
BRANCH  24  25
ATOM     25  C   UNL     1      -1.168  12.525  18.741  0.00  0.00    +0.000 C 
BRANCH  25  26
ATOM     26  C   UNL     1      -1.917  11.215  18.924  0.00  0.00    +0.000 C 
BRANCH  26  27
ATOM     27  C   UNL     1      -2.023  10.479  17.598  0.00  0.00    +0.000 C 
BRANCH  27  28
ATOM     28  C   UNL     1      -3.473  10.417  17.147  0.00  0.00    +0.000 C 
BRANCH  28  29
ATOM     29  C   UNL     1      -4.334  11.302  18.032  0.00  0.00    +0.000 C 
BRANCH  29  30
ATOM     30  C   UNL     1      -5.768  11.304  17.530  0.00  0.00    +0.000 C 
BRANCH  30  31
ATOM     31  C   UNL     1      -6.696  10.719  18.583  0.00  0.00    +0.000 C 
BRANCH  31  32
ATOM     32  C   UNL     1      -7.425  11.832  19.320  0.00  0.00    +0.000 C 
BRANCH  32  34
ATOM     33  C   UNL     1      -6.236  12.506  21.412  0.00  0.00    +0.000 C 
ATOM     34  C   UNL     1      -7.332  11.633  20.827  0.00  0.00    +0.000 C 
ENDBRANCH  32  34
ENDBRANCH  31  32
ENDBRANCH  30  31
ENDBRANCH  29  30
ENDBRANCH  28  29
ENDBRANCH  27  28
ENDBRANCH  26  27
ENDBRANCH  25  26
ENDBRANCH  24  25
ENDBRANCH  23  24
ENDBRANCH  22  23
ENDBRANCH  21  22
ENDBRANCH  20  21
ENDBRANCH   1  20
TORSDOF 18
ENDMDL
MODEL 7
REMARK VINA RESULT:      -6.2      3.681      4.936
REMARK  Name = 
REMARK  20 active torsions:
REMARK  status: ('A' for Active; 'I' for Inactive)
REMARK    1  A    between atoms: C_1  and  C_2
REMARK    2  A    between atoms: C_2  and  C_3
REMARK    3  A    between atoms: C_3  and  C_4
REMARK    4  A    between atoms: C_4  and  C_5
REMARK    5  A    between atoms: C_5  and  C_6
REMARK    6  A    between atoms: C_6  and  C_7
REMARK    7  A    between atoms: C_7  and  C_8
REMARK    8  A    between atoms: C_8  and  C_9
REMARK    9  A    between atoms: C_9  and  C_10
REMARK   10  A    between atoms: C_10  and  C_11
REMARK   11  A    between atoms: C_11  and  C_12
REMARK   12  A    between atoms: C_12  and  C_13
REMARK   13  A    between atoms: C_13  and  C_14
REMARK   14  A    between atoms: C_14  and  O_15
REMARK   15  A    between atoms: O_15  and  C_16
REMARK   16  A    between atoms: C_19  and  C_20
REMARK   17  A    between atoms: N_22  and  C_23
REMARK   18  A    between atoms: C_23  and  C_24
REMARK   19  A    between atoms: C_24  and  C_25
REMARK   20  A    between atoms: N_30  and  C_31
REMARK                            x       y       z     vdW  Elec       q    Type
REMARK                         _______ _______ _______ _____ _____    ______ ____
ROOT
ATOM      1  C   UNL     1       1.655   8.506  19.310  0.00  0.00    +0.000 A 
ATOM      2  C   UNL     1       1.516   8.093  20.633  0.00  0.00    +0.000 A 
ATOM      3  C   UNL     1       0.792   8.870  21.546  0.00  0.00    +0.000 A 
ATOM      4  C   UNL     1       0.239  10.099  21.157  0.00  0.00    +0.000 A 
ATOM      5  C   UNL     1       0.398  10.519  19.830  0.00  0.00    +0.000 A 
ATOM      6  C   UNL     1       1.103   9.725  18.915  0.00  0.00    +0.000 A 
ENDROOT
BRANCH   4   7
ATOM      7  C   UNL     1      -0.451  10.943  22.177  0.00  0.00    +0.000 C 
ATOM      8  O   UNL     1      -0.325  10.688  23.385  0.00  0.00    +0.000 OA
ATOM      9  N   UNL     1      -1.202  12.014  21.720  0.00  0.00    +0.000 N 
ATOM     10  H   UNL     1      -1.360  12.145  20.717  0.00  0.00    +0.000 HD
BRANCH   9  11
ATOM     11  C   UNL     1      -1.905  12.867  22.667  0.00  0.00    +0.000 C 
BRANCH  11  12
ATOM     12  C   UNL     1      -3.274  12.281  23.064  0.00  0.00    +0.000 C 
BRANCH  12  13
ATOM     13  C   UNL     1      -4.418  12.862  22.266  0.00  0.00    +0.000 A 
ATOM     14  C   UNL     1      -4.185  13.316  20.950  0.00  0.00    +0.000 A 
ATOM     15  C   UNL     1      -5.235  13.785  20.169  0.00  0.00    +0.000 A 
ATOM     16  C   UNL     1      -6.519  13.763  20.687  0.00  0.00    +0.000 A 
ATOM     17  C   UNL     1      -6.718  13.342  21.996  0.00  0.00    +0.000 A 
ATOM     18  N   UNL     1      -5.683  12.951  22.781  0.00  0.00    +0.000 N 
ATOM     19  C   UNL     1      -5.941  12.736  24.228  0.00  0.00    +0.000 C 
ENDBRANCH  12  13
ENDBRANCH  11  12
ENDBRANCH   9  11
ENDBRANCH   4   7
BRANCH   1  20
ATOM     20  O   UNL     1       2.337   7.653  18.485  0.00  0.00    +0.000 OA
BRANCH  20  21
ATOM     21  C   UNL     1       2.419   6.305  18.949  0.00  0.00    +0.000 C 
BRANCH  21  22
ATOM     22  C   UNL     1       2.420   5.378  17.741  0.00  0.00    +0.000 C 
BRANCH  22  23
ATOM     23  C   UNL     1       1.139   4.556  17.694  0.00  0.00    +0.000 C 
BRANCH  23  24
ATOM     24  C   UNL     1       1.322   3.224  18.407  0.00  0.00    +0.000 C 
BRANCH  24  25
ATOM     25  C   UNL     1       0.860   3.330  19.854  0.00  0.00    +0.000 C 
BRANCH  25  26
ATOM     26  C   UNL     1       1.806   2.567  20.768  0.00  0.00    +0.000 C 
BRANCH  26  27
ATOM     27  C   UNL     1       3.164   3.248  20.805  0.00  0.00    +0.000 C 
BRANCH  27  28
ATOM     28  C   UNL     1       4.225   2.333  20.218  0.00  0.00    +0.000 C 
BRANCH  28  29
ATOM     29  C   UNL     1       4.745   2.908  18.911  0.00  0.00    +0.000 C 
BRANCH  29  30
ATOM     30  C   UNL     1       5.506   4.196  19.173  0.00  0.00    +0.000 C 
BRANCH  30  31
ATOM     31  C   UNL     1       6.190   4.673  17.901  0.00  0.00    +0.000 C 
BRANCH  31  32
ATOM     32  C   UNL     1       5.479   4.110  16.679  0.00  0.00    +0.000 C 
BRANCH  32  34
ATOM     33  C   UNL     1       5.158   6.504  16.038  0.00  0.00    +0.000 C 
ATOM     34  C   UNL     1       5.500   5.113  15.534  0.00  0.00    +0.000 C 
ENDBRANCH  32  34
ENDBRANCH  31  32
ENDBRANCH  30  31
ENDBRANCH  29  30
ENDBRANCH  28  29
ENDBRANCH  27  28
ENDBRANCH  26  27
ENDBRANCH  25  26
ENDBRANCH  24  25
ENDBRANCH  23  24
ENDBRANCH  22  23
ENDBRANCH  21  22
ENDBRANCH  20  21
ENDBRANCH   1  20
TORSDOF 18
ENDMDL
MODEL 8
REMARK VINA RESULT:      -6.2      3.222      5.371
REMARK  Name = 
REMARK  20 active torsions:
REMARK  status: ('A' for Active; 'I' for Inactive)
REMARK    1  A    between atoms: C_1  and  C_2
REMARK    2  A    between atoms: C_2  and  C_3
REMARK    3  A    between atoms: C_3  and  C_4
REMARK    4  A    between atoms: C_4  and  C_5
REMARK    5  A    between atoms: C_5  and  C_6
REMARK    6  A    between atoms: C_6  and  C_7
REMARK    7  A    between atoms: C_7  and  C_8
REMARK    8  A    between atoms: C_8  and  C_9
REMARK    9  A    between atoms: C_9  and  C_10
REMARK   10  A    between atoms: C_10  and  C_11
REMARK   11  A    between atoms: C_11  and  C_12
REMARK   12  A    between atoms: C_12  and  C_13
REMARK   13  A    between atoms: C_13  and  C_14
REMARK   14  A    between atoms: C_14  and  O_15
REMARK   15  A    between atoms: O_15  and  C_16
REMARK   16  A    between atoms: C_19  and  C_20
REMARK   17  A    between atoms: N_22  and  C_23
REMARK   18  A    between atoms: C_23  and  C_24
REMARK   19  A    between atoms: C_24  and  C_25
REMARK   20  A    between atoms: N_30  and  C_31
REMARK                            x       y       z     vdW  Elec       q    Type
REMARK                         _______ _______ _______ _____ _____    ______ ____
ROOT
ATOM      1  C   UNL     1       2.289   6.633  19.374  0.00  0.00    +0.000 A 
ATOM      2  C   UNL     1       1.788   6.839  20.657  0.00  0.00    +0.000 A 
ATOM      3  C   UNL     1       1.203   8.064  21.002  0.00  0.00    +0.000 A 
ATOM      4  C   UNL     1       1.156   9.119  20.077  0.00  0.00    +0.000 A 
ATOM      5  C   UNL     1       1.679   8.912  18.794  0.00  0.00    +0.000 A 
ATOM      6  C   UNL     1       2.241   7.676  18.448  0.00  0.00    +0.000 A 
ENDROOT
BRANCH   4   7
ATOM      7  C   UNL     1       0.605  10.438  20.504  0.00  0.00    +0.000 C 
ATOM      8  O   UNL     1       1.368  11.396  20.706  0.00  0.00    +0.000 OA
ATOM      9  N   UNL     1      -0.770  10.545  20.636  0.00  0.00    +0.000 N 
ATOM     10  H   UNL     1      -1.364   9.716  20.550  0.00  0.00    +0.000 HD
BRANCH   9  11
ATOM     11  C   UNL     1      -1.364  11.805  21.058  0.00  0.00    +0.000 C 
BRANCH  11  12
ATOM     12  C   UNL     1      -1.765  12.684  19.857  0.00  0.00    +0.000 C 
BRANCH  12  13
ATOM     13  C   UNL     1      -2.956  12.143  19.101  0.00  0.00    +0.000 A 
ATOM     14  C   UNL     1      -2.746  11.386  17.927  0.00  0.00    +0.000 A 
ATOM     15  C   UNL     1      -3.819  10.815  17.254  0.00  0.00    +0.000 A 
ATOM     16  C   UNL     1      -5.094  10.964  17.774  0.00  0.00    +0.000 A 
ATOM     17  C   UNL     1      -5.278  11.739  18.912  0.00  0.00    +0.000 A 
ATOM     18  N   UNL     1      -4.238  12.355  19.528  0.00  0.00    +0.000 N 
ATOM     19  C   UNL     1      -4.540  13.345  20.593  0.00  0.00    +0.000 C 
ENDBRANCH  12  13
ENDBRANCH  11  12
ENDBRANCH   9  11
ENDBRANCH   4   7
BRANCH   1  20
ATOM     20  O   UNL     1       2.795   5.386  19.122  0.00  0.00    +0.000 OA
BRANCH  20  21
ATOM     21  C   UNL     1       2.820   5.014  17.744  0.00  0.00    +0.000 C 
BRANCH  21  22
ATOM     22  C   UNL     1       3.819   3.880  17.568  0.00  0.00    +0.000 C 
BRANCH  22  23
ATOM     23  C   UNL     1       4.957   4.303  16.649  0.00  0.00    +0.000 C 
BRANCH  23  24
ATOM     24  C   UNL     1       6.273   4.372  17.410  0.00  0.00    +0.000 C 
BRANCH  24  25
ATOM     25  C   UNL     1       6.286   5.579  18.338  0.00  0.00    +0.000 C 
BRANCH  25  26
ATOM     26  C   UNL     1       6.579   6.847  17.552  0.00  0.00    +0.000 C 
BRANCH  26  27
ATOM     27  C   UNL     1       7.902   7.448  17.996  0.00  0.00    +0.000 C 
BRANCH  27  28
ATOM     28  C   UNL     1       7.979   8.909  17.585  0.00  0.00    +0.000 C 
BRANCH  28  29
ATOM     29  C   UNL     1       8.866   9.677  18.550  0.00  0.00    +0.000 C 
BRANCH  29  30
ATOM     30  C   UNL     1       8.888  11.150  18.178  0.00  0.00    +0.000 C 
BRANCH  30  31
ATOM     31  C   UNL     1       9.343  11.987  19.365  0.00  0.00    +0.000 C 
BRANCH  31  32
ATOM     32  C   UNL     1      10.594  11.385  19.984  0.00  0.00    +0.000 C 
BRANCH  32  34
ATOM     33  C   UNL     1      11.133  13.815  20.208  0.00  0.00    +0.000 C 
ATOM     34  C   UNL     1      11.710  12.419  20.059  0.00  0.00    +0.000 C 
ENDBRANCH  32  34
ENDBRANCH  31  32
ENDBRANCH  30  31
ENDBRANCH  29  30
ENDBRANCH  28  29
ENDBRANCH  27  28
ENDBRANCH  26  27
ENDBRANCH  25  26
ENDBRANCH  24  25
ENDBRANCH  23  24
ENDBRANCH  22  23
ENDBRANCH  21  22
ENDBRANCH  20  21
ENDBRANCH   1  20
TORSDOF 18
ENDMDL
MODEL 9
REMARK VINA RESULT:      -6.1      4.091     11.110
REMARK  Name = 
REMARK  20 active torsions:
REMARK  status: ('A' for Active; 'I' for Inactive)
REMARK    1  A    between atoms: C_1  and  C_2
REMARK    2  A    between atoms: C_2  and  C_3
REMARK    3  A    between atoms: C_3  and  C_4
REMARK    4  A    between atoms: C_4  and  C_5
REMARK    5  A    between atoms: C_5  and  C_6
REMARK    6  A    between atoms: C_6  and  C_7
REMARK    7  A    between atoms: C_7  and  C_8
REMARK    8  A    between atoms: C_8  and  C_9
REMARK    9  A    between atoms: C_9  and  C_10
REMARK   10  A    between atoms: C_10  and  C_11
REMARK   11  A    between atoms: C_11  and  C_12
REMARK   12  A    between atoms: C_12  and  C_13
REMARK   13  A    between atoms: C_13  and  C_14
REMARK   14  A    between atoms: C_14  and  O_15
REMARK   15  A    between atoms: O_15  and  C_16
REMARK   16  A    between atoms: C_19  and  C_20
REMARK   17  A    between atoms: N_22  and  C_23
REMARK   18  A    between atoms: C_23  and  C_24
REMARK   19  A    between atoms: C_24  and  C_25
REMARK   20  A    between atoms: N_30  and  C_31
REMARK                            x       y       z     vdW  Elec       q    Type
REMARK                         _______ _______ _______ _____ _____    ______ ____
ROOT
ATOM      1  C   UNL     1       0.848   9.516  19.734  0.00  0.00    +0.000 A 
ATOM      2  C   UNL     1       1.321   9.803  18.456  0.00  0.00    +0.000 A 
ATOM      3  C   UNL     1       2.217   8.935  17.820  0.00  0.00    +0.000 A 
ATOM      4  C   UNL     1       2.692   7.790  18.479  0.00  0.00    +0.000 A 
ATOM      5  C   UNL     1       2.227   7.516  19.772  0.00  0.00    +0.000 A 
ATOM      6  C   UNL     1       1.311   8.376  20.393  0.00  0.00    +0.000 A 
ENDROOT
BRANCH   4   7
ATOM      7  C   UNL     1       3.712   6.933  17.807  0.00  0.00    +0.000 C 
ATOM      8  O   UNL     1       4.082   7.195  16.652  0.00  0.00    +0.000 OA
ATOM      9  N   UNL     1       4.233   5.872  18.529  0.00  0.00    +0.000 N 
ATOM     10  H   UNL     1       3.844   5.628  19.444  0.00  0.00    +0.000 HD
BRANCH   9  11
ATOM     11  C   UNL     1       5.225   4.996  17.923  0.00  0.00    +0.000 C 
BRANCH  11  12
ATOM     12  C   UNL     1       4.608   3.663  17.455  0.00  0.00    +0.000 C 
BRANCH  12  13
ATOM     13  C   UNL     1       3.303   3.342  18.146  0.00  0.00    +0.000 A 
ATOM     14  C   UNL     1       2.098   3.864  17.626  0.00  0.00    +0.000 A 
ATOM     15  C   UNL     1       0.877   3.523  18.198  0.00  0.00    +0.000 A 
ATOM     16  C   UNL     1       0.857   2.634  19.258  0.00  0.00    +0.000 A 
ATOM     17  C   UNL     1       2.058   2.159  19.771  0.00  0.00    +0.000 A 
ATOM     18  N   UNL     1       3.252   2.547  19.258  0.00  0.00    +0.000 N 
ATOM     19  C   UNL     1       4.487   2.182  19.999  0.00  0.00    +0.000 C 
ENDBRANCH  12  13
ENDBRANCH  11  12
ENDBRANCH   9  11
ENDBRANCH   4   7
BRANCH   1  20
ATOM     20  O   UNL     1      -0.063  10.400  20.248  0.00  0.00    +0.000 OA
BRANCH  20  21
ATOM     21  C   UNL     1       0.387  11.753  20.319  0.00  0.00    +0.000 C 
BRANCH  21  22
ATOM     22  C   UNL     1      -0.722  12.659  19.803  0.00  0.00    +0.000 C 
BRANCH  22  23
ATOM     23  C   UNL     1      -1.910  11.834  19.325  0.00  0.00    +0.000 C 
BRANCH  23  24
ATOM     24  C   UNL     1      -1.981  11.815  17.804  0.00  0.00    +0.000 C 
BRANCH  24  25
ATOM     25  C   UNL     1      -2.826  10.642  17.328  0.00  0.00    +0.000 C 
BRANCH  25  26
ATOM     26  C   UNL     1      -4.163  11.134  16.799  0.00  0.00    +0.000 C 
BRANCH  26  27
ATOM     27  C   UNL     1      -5.170  11.240  17.933  0.00  0.00    +0.000 C 
BRANCH  27  28
ATOM     28  C   UNL     1      -6.396  12.013  17.476  0.00  0.00    +0.000 C 
BRANCH  28  29
ATOM     29  C   UNL     1      -7.407  12.105  18.606  0.00  0.00    +0.000 C 
BRANCH  29  30
ATOM     30  C   UNL     1      -7.767  13.558  18.867  0.00  0.00    +0.000 C 
BRANCH  30  31
ATOM     31  C   UNL     1      -6.514  14.420  18.863  0.00  0.00    +0.000 C 
BRANCH  31  32
ATOM     32  C   UNL     1      -6.029  14.651  20.286  0.00  0.00    +0.000 C 
BRANCH  32  34
ATOM     33  C   UNL     1      -4.992  12.665  21.394  0.00  0.00    +0.000 C 
ATOM     34  C   UNL     1      -4.732  13.895  20.543  0.00  0.00    +0.000 C 
ENDBRANCH  32  34
ENDBRANCH  31  32
ENDBRANCH  30  31
ENDBRANCH  29  30
ENDBRANCH  28  29
ENDBRANCH  27  28
ENDBRANCH  26  27
ENDBRANCH  25  26
ENDBRANCH  24  25
ENDBRANCH  23  24
ENDBRANCH  22  23
ENDBRANCH  21  22
ENDBRANCH  20  21
ENDBRANCH   1  20
TORSDOF 18
ENDMDL
