MODEL 1
REMARK VINA RESULT:      -6.4      0.000      0.000
REMARK  Name = 
REMARK  9 active torsions:
REMARK  status: ('A' for Active; 'I' for Inactive)
REMARK    1  A    between atoms: C_1  and  C_2
REMARK    2  A    between atoms: C_3  and  C_4
REMARK    3  A    between atoms: C_4  and  O_6
REMARK    4  A    between atoms: O_6  and  C_7
REMARK    5  A    between atoms: C_7  and  C_8
REMARK    6  A    between atoms: C_13  and  C_14
REMARK    7  A    between atoms: C_17  and  C_18
REMARK    8  A    between atoms: C_21  and  O_22
REMARK    9  A    between atoms: C_24  and  C_25
REMARK                            x       y       z     vdW  Elec       q    Type
REMARK                         _______ _______ _______ _____ _____    ______ ____
ROOT
ATOM      1  C   UNL     1      -1.638   9.628  18.093  0.00  0.00    +0.000 C 
ATOM      2  C   UNL     1      -0.821  10.685  18.792  0.00  0.00    +0.000 C 
ATOM      3  C   UNL     1      -0.083  10.411  19.914  0.00  0.00    +0.000 C 
ATOM      4  C   UNL     1       0.662  11.602  20.474  0.00  0.00    +0.000 C 
ATOM      5  C   UNL     1       1.228  12.209  19.215  0.00  0.00    +0.000 C 
ATOM      6  C   UNL     1       2.311  12.864  18.787  0.00  0.00    +0.000 C 
ATOM      7  C   UNL     1       2.655  13.972  19.688  0.00  0.00    +0.000 C 
ATOM      8  C   UNL     1       1.511  15.037  19.549  0.00  0.00    +0.000 C 
ATOM      9  C   UNL     1       0.113  14.433  18.833  0.00  0.00    +0.000 C 
ATOM     10  C   UNL     1       0.049  12.853  18.650  0.00  0.00    +0.000 C 
ATOM     11  N   UNL     1      -0.960  12.057  18.327  0.00  0.00    +0.000 NA
ENDROOT
BRANCH   8  12
ATOM     12  C   UNL     1       1.717  15.834  20.877  0.00  0.00    +0.000 A 
ATOM     13  C   UNL     1       1.390  17.212  20.863  0.00  0.00    +0.000 A 
ATOM     14  C   UNL     1       2.084  18.143  21.657  0.00  0.00    +0.000 A 
ATOM     15  C   UNL     1       3.105  17.720  22.492  0.00  0.00    +0.000 A 
ATOM     16  F   UNL     1       3.854  18.619  23.146  0.00  0.00    +0.000 F 
ATOM     17  C   UNL     1       3.392  16.373  22.602  0.00  0.00    +0.000 A 
ATOM     18  C   UNL     1       2.676  15.445  21.827  0.00  0.00    +0.000 A 
ENDBRANCH   8  12
BRANCH   4  19
ATOM     19  C   UNL     1      -0.336  12.342  21.377  0.00  0.00    +0.000 A 
ATOM     20  C   UNL     1      -1.673  12.151  21.718  0.00  0.00    +0.000 A 
ATOM     21  C   UNL     1      -2.025  13.161  22.628  0.00  0.00    +0.000 A 
ATOM     22  C   UNL     1      -0.867  13.864  22.862  0.00  0.00    +0.000 A 
ATOM     23  C   UNL     1      -0.581  15.064  23.661  0.00  0.00    +0.000 C 
ATOM     24  O   UNL     1       0.171  13.355  22.140  0.00  0.00    +0.000 OA
ENDBRANCH   4  19
BRANCH   3  25
ATOM     25  C   UNL     1       0.083   9.164  20.721  0.00  0.00    +0.000 C 
ATOM     26  O   UNL     1      -0.743   8.643  21.434  0.00  0.00    +0.000 OA
BRANCH  25  27
ATOM     27  O   UNL     1       1.358   8.724  20.533  0.00  0.00    +0.000 OA
BRANCH  27  28
ATOM     28  C   UNL     1       1.803   8.176  19.287  0.00  0.00    +0.000 C 
BRANCH  28  29
ATOM     29  C   UNL     1       2.457   6.817  19.532  0.00  0.00    +0.000 C 
ATOM     30  C   UNL     1       2.411   5.902  18.320  0.00  0.00    +0.000 C 
ATOM     31  C   UNL     1       2.440   4.538  18.957  0.00  0.00    +0.000 C 
ATOM     32  C   UNL     1       1.611   4.752  20.205  0.00  0.00    +0.000 C 
ATOM     33  O   UNL     1       1.799   6.118  20.603  0.00  0.00    +0.000 OA
ENDBRANCH  28  29
ENDBRANCH  27  28
ENDBRANCH  25  27
ENDBRANCH   3  25
BRANCH   6  34
ATOM     34  O   UNL     1       2.460  13.166  17.434  0.00  0.00    +0.000 OA
ATOM     35  H   UNL     1       2.331  12.363  16.896  0.00  0.00    +0.000 HD
ENDBRANCH   6  34
TORSDOF 7
ENDMDL
MODEL 2
REMARK VINA RESULT:      -6.2      3.933      7.732
REMARK  Name = 
REMARK  9 active torsions:
REMARK  status: ('A' for Active; 'I' for Inactive)
REMARK    1  A    between atoms: C_1  and  C_2
REMARK    2  A    between atoms: C_3  and  C_4
REMARK    3  A    between atoms: C_4  and  O_6
REMARK    4  A    between atoms: O_6  and  C_7
REMARK    5  A    between atoms: C_7  and  C_8
REMARK    6  A    between atoms: C_13  and  C_14
REMARK    7  A    between atoms: C_17  and  C_18
REMARK    8  A    between atoms: C_21  and  O_22
REMARK    9  A    between atoms: C_24  and  C_25
REMARK                            x       y       z     vdW  Elec       q    Type
REMARK                         _______ _______ _______ _____ _____    ______ ____
ROOT
ATOM      1  C   UNL     1       1.474  10.322  18.790  0.00  0.00    +0.000 C 
ATOM      2  C   UNL     1       0.055  10.770  18.545  0.00  0.00    +0.000 C 
ATOM      3  C   UNL     1      -0.274  12.092  18.394  0.00  0.00    +0.000 C 
ATOM      4  C   UNL     1      -1.748  12.343  18.163  0.00  0.00    +0.000 C 
ATOM      5  C   UNL     1      -2.071  11.268  17.156  0.00  0.00    +0.000 C 
ATOM      6  C   UNL     1      -2.856  11.056  16.095  0.00  0.00    +0.000 C 
ATOM      7  C   UNL     1      -4.240  11.469  16.365  0.00  0.00    +0.000 C 
ATOM      8  C   UNL     1      -4.807  10.472  17.437  0.00  0.00    +0.000 C 
ATOM      9  C   UNL     1      -3.613   9.599  18.240  0.00  0.00    +0.000 C 
ATOM     10  C   UNL     1      -2.115  10.082  18.003  0.00  0.00    +0.000 C 
ATOM     11  N   UNL     1      -0.991   9.762  18.627  0.00  0.00    +0.000 NA
ENDROOT
BRANCH   8  12
ATOM     12  C   UNL     1      -6.002  11.314  17.987  0.00  0.00    +0.000 A 
ATOM     13  C   UNL     1      -6.081  12.670  17.583  0.00  0.00    +0.000 A 
ATOM     14  C   UNL     1      -6.617  13.661  18.424  0.00  0.00    +0.000 A 
ATOM     15  C   UNL     1      -7.101  13.321  19.677  0.00  0.00    +0.000 A 
ATOM     16  F   UNL     1      -7.488  14.281  20.530  0.00  0.00    +0.000 F 
ATOM     17  C   UNL     1      -7.127  11.997  20.071  0.00  0.00    +0.000 A 
ATOM     18  C   UNL     1      -6.615  11.008  19.213  0.00  0.00    +0.000 A 
ENDBRANCH   8  12
BRANCH   4  19
ATOM     19  C   UNL     1      -2.393  12.396  19.556  0.00  0.00    +0.000 A 
ATOM     20  C   UNL     1      -3.656  12.736  20.035  0.00  0.00    +0.000 A 
ATOM     21  C   UNL     1      -3.642  12.551  21.428  0.00  0.00    +0.000 A 
ATOM     22  C   UNL     1      -2.404  12.028  21.717  0.00  0.00    +0.000 A 
ATOM     23  C   UNL     1      -1.749  11.675  22.984  0.00  0.00    +0.000 C 
ATOM     24  O   UNL     1      -1.652  11.893  20.587  0.00  0.00    +0.000 OA
ENDBRANCH   4  19
BRANCH   3  25
ATOM     25  C   UNL     1       0.543  13.341  18.465  0.00  0.00    +0.000 C 
ATOM     26  O   UNL     1       1.741  13.435  18.323  0.00  0.00    +0.000 OA
BRANCH  25  27
ATOM     27  O   UNL     1      -0.304  14.367  18.749  0.00  0.00    +0.000 OA
BRANCH  27  28
ATOM     28  C   UNL     1      -0.101  15.243  19.865  0.00  0.00    +0.000 C 
BRANCH  28  29
ATOM     29  C   UNL     1       0.223  16.648  19.357  0.00  0.00    +0.000 C 
ATOM     30  C   UNL     1      -0.563  17.033  18.116  0.00  0.00    +0.000 C 
ATOM     31  C   UNL     1       0.356  18.029  17.461  0.00  0.00    +0.000 C 
ATOM     32  C   UNL     1       1.722  17.448  17.762  0.00  0.00    +0.000 C 
ATOM     33  O   UNL     1       1.615  16.760  19.017  0.00  0.00    +0.000 OA
ENDBRANCH  28  29
ENDBRANCH  27  28
ENDBRANCH  25  27
ENDBRANCH   3  25
BRANCH   6  34
ATOM     34  O   UNL     1      -2.749   9.871  15.368  0.00  0.00    +0.000 OA
ATOM     35  H   UNL     1      -3.158   9.137  15.864  0.00  0.00    +0.000 HD
ENDBRANCH   6  34
TORSDOF 7
ENDMDL
MODEL 3
REMARK VINA RESULT:      -6.1      3.630      6.357
REMARK  Name = 
REMARK  9 active torsions:
REMARK  status: ('A' for Active; 'I' for Inactive)
REMARK    1  A    between atoms: C_1  and  C_2
REMARK    2  A    between atoms: C_3  and  C_4
REMARK    3  A    between atoms: C_4  and  O_6
REMARK    4  A    between atoms: O_6  and  C_7
REMARK    5  A    between atoms: C_7  and  C_8
REMARK    6  A    between atoms: C_13  and  C_14
REMARK    7  A    between atoms: C_17  and  C_18
REMARK    8  A    between atoms: C_21  and  O_22
REMARK    9  A    between atoms: C_24  and  C_25
REMARK                            x       y       z     vdW  Elec       q    Type
REMARK                         _______ _______ _______ _____ _____    ______ ____
ROOT
ATOM      1  C   UNL     1       2.143  13.475  21.114  0.00  0.00    +0.000 C 
ATOM      2  C   UNL     1       0.681  13.112  21.041  0.00  0.00    +0.000 C 
ATOM      3  C   UNL     1       0.250  11.812  21.096  0.00  0.00    +0.000 C 
ATOM      4  C   UNL     1      -1.251  11.650  21.001  0.00  0.00    +0.000 C 
ATOM      5  C   UNL     1      -1.720  12.739  21.932  0.00  0.00    +0.000 C 
ATOM      6  C   UNL     1      -2.701  12.994  22.803  0.00  0.00    +0.000 C 
ATOM      7  C   UNL     1      -4.017  12.667  22.236  0.00  0.00    +0.000 C 
ATOM      8  C   UNL     1      -4.280  13.700  21.084  0.00  0.00    +0.000 C 
ATOM      9  C   UNL     1      -2.893  14.502  20.570  0.00  0.00    +0.000 C 
ATOM     10  C   UNL     1      -1.511  13.928  21.116  0.00  0.00    +0.000 C 
ATOM     11  N   UNL     1      -0.262  14.182  20.752  0.00  0.00    +0.000 NA
ENDROOT
BRANCH   8  12
ATOM     12  C   UNL     1      -5.376  12.933  20.276  0.00  0.00    +0.000 A 
ATOM     13  C   UNL     1      -6.395  12.287  21.018  0.00  0.00    +0.000 A 
ATOM     14  C   UNL     1      -6.999  11.101  20.564  0.00  0.00    +0.000 A 
ATOM     15  C   UNL     1      -6.615  10.545  19.354  0.00  0.00    +0.000 A 
ATOM     16  F   UNL     1      -7.093   9.348  18.984  0.00  0.00    +0.000 F 
ATOM     17  C   UNL     1      -5.691  11.195  18.558  0.00  0.00    +0.000 A 
ATOM     18  C   UNL     1      -5.112  12.394  19.007  0.00  0.00    +0.000 A 
ENDBRANCH   8  12
BRANCH   4  19
ATOM     19  C   UNL     1      -1.583  11.641  19.501  0.00  0.00    +0.000 A 
ATOM     20  C   UNL     1      -1.359  12.521  18.445  0.00  0.00    +0.000 A 
ATOM     21  C   UNL     1      -1.880  11.928  17.283  0.00  0.00    +0.000 A 
ATOM     22  C   UNL     1      -2.317  10.683  17.670  0.00  0.00    +0.000 A 
ATOM     23  C   UNL     1      -3.009   9.607  16.948  0.00  0.00    +0.000 C 
ATOM     24  O   UNL     1      -2.107  10.482  19.003  0.00  0.00    +0.000 OA
ENDBRANCH   4  19
BRANCH   3  25
ATOM     25  C   UNL     1       0.990  10.516  21.181  0.00  0.00    +0.000 C 
ATOM     26  O   UNL     1       1.208   9.868  22.178  0.00  0.00    +0.000 OA
BRANCH  25  27
ATOM     27  O   UNL     1       1.406  10.202  19.924  0.00  0.00    +0.000 OA
BRANCH  27  28
ATOM     28  C   UNL     1       1.029   8.982  19.274  0.00  0.00    +0.000 C 
BRANCH  28  29
ATOM     29  C   UNL     1       2.159   7.962  19.410  0.00  0.00    +0.000 C 
ATOM     30  C   UNL     1       2.422   7.185  18.131  0.00  0.00    +0.000 C 
ATOM     31  C   UNL     1       2.990   5.895  18.661  0.00  0.00    +0.000 C 
ATOM     32  C   UNL     1       2.186   5.689  19.927  0.00  0.00    +0.000 C 
ATOM     33  O   UNL     1       1.854   6.993  20.427  0.00  0.00    +0.000 OA
ENDBRANCH  28  29
ENDBRANCH  27  28
ENDBRANCH  25  27
ENDBRANCH   3  25
BRANCH   6  34
ATOM     34  O   UNL     1      -2.685  14.168  23.556  0.00  0.00    +0.000 OA
ATOM     35  H   UNL     1      -3.365  14.127  24.252  0.00  0.00    +0.000 HD
ENDBRANCH   6  34
TORSDOF 7
ENDMDL
MODEL 4
REMARK VINA RESULT:      -6.0      4.061      7.812
REMARK  Name = 
REMARK  9 active torsions:
REMARK  status: ('A' for Active; 'I' for Inactive)
REMARK    1  A    between atoms: C_1  and  C_2
REMARK    2  A    between atoms: C_3  and  C_4
REMARK    3  A    between atoms: C_4  and  O_6
REMARK    4  A    between atoms: O_6  and  C_7
REMARK    5  A    between atoms: C_7  and  C_8
REMARK    6  A    between atoms: C_13  and  C_14
REMARK    7  A    between atoms: C_17  and  C_18
REMARK    8  A    between atoms: C_21  and  O_22
REMARK    9  A    between atoms: C_24  and  C_25
REMARK                            x       y       z     vdW  Elec       q    Type
REMARK                         _______ _______ _______ _____ _____    ______ ____
ROOT
ATOM      1  C   UNL     1       1.449  10.466  18.967  0.00  0.00    +0.000 C 
ATOM      2  C   UNL     1       0.029  10.876  18.671  0.00  0.00    +0.000 C 
ATOM      3  C   UNL     1      -0.328  12.187  18.489  0.00  0.00    +0.000 C 
ATOM      4  C   UNL     1      -1.799  12.398  18.208  0.00  0.00    +0.000 C 
ATOM      5  C   UNL     1      -2.064  11.301  17.208  0.00  0.00    +0.000 C 
ATOM      6  C   UNL     1      -2.809  11.055  16.126  0.00  0.00    +0.000 C 
ATOM      7  C   UNL     1      -4.211  11.437  16.346  0.00  0.00    +0.000 C 
ATOM      8  C   UNL     1      -4.787  10.443  17.414  0.00  0.00    +0.000 C 
ATOM      9  C   UNL     1      -3.599   9.611  18.268  0.00  0.00    +0.000 C 
ATOM     10  C   UNL     1      -2.106  10.127  18.071  0.00  0.00    +0.000 C 
ATOM     11  N   UNL     1      -0.995   9.843  18.735  0.00  0.00    +0.000 NA
ENDROOT
BRANCH   8  12
ATOM     12  C   UNL     1      -6.020  11.263  17.914  0.00  0.00    +0.000 A 
ATOM     13  C   UNL     1      -6.095  12.622  17.523  0.00  0.00    +0.000 A 
ATOM     14  C   UNL     1      -6.685  13.596  18.348  0.00  0.00    +0.000 A 
ATOM     15  C   UNL     1      -7.228  13.235  19.570  0.00  0.00    +0.000 A 
ATOM     16  F   UNL     1      -7.670  14.178  20.415  0.00  0.00    +0.000 F 
ATOM     17  C   UNL     1      -7.257  11.905  19.946  0.00  0.00    +0.000 A 
ATOM     18  C   UNL     1      -6.689  10.934  19.104  0.00  0.00    +0.000 A 
ENDBRANCH   8  12
BRANCH   4  19
ATOM     19  C   UNL     1      -2.489  12.456  19.579  0.00  0.00    +0.000 A 
ATOM     20  C   UNL     1      -3.784  12.736  20.010  0.00  0.00    +0.000 A 
ATOM     21  C   UNL     1      -3.803  12.594  21.408  0.00  0.00    +0.000 A 
ATOM     22  C   UNL     1      -2.547  12.152  21.750  0.00  0.00    +0.000 A 
ATOM     23  C   UNL     1      -1.914  11.875  23.046  0.00  0.00    +0.000 C 
ATOM     24  O   UNL     1      -1.754  12.027  20.648  0.00  0.00    +0.000 OA
ENDBRANCH   4  19
BRANCH   3  25
ATOM     25  C   UNL     1       0.457  13.457  18.567  0.00  0.00    +0.000 C 
ATOM     26  O   UNL     1       1.649  13.585  18.413  0.00  0.00    +0.000 OA
BRANCH  25  27
ATOM     27  O   UNL     1      -0.415  14.456  18.876  0.00  0.00    +0.000 OA
BRANCH  27  28
ATOM     28  C   UNL     1      -0.035  15.837  18.859  0.00  0.00    +0.000 C 
BRANCH  28  29
ATOM     29  C   UNL     1      -0.845  16.601  19.906  0.00  0.00    +0.000 C 
ATOM     30  C   UNL     1      -1.514  15.695  20.925  0.00  0.00    +0.000 C 
ATOM     31  C   UNL     1      -2.703  16.519  21.342  0.00  0.00    +0.000 C 
ATOM     32  C   UNL     1      -3.095  17.193  20.044  0.00  0.00    +0.000 C 
ATOM     33  O   UNL     1      -1.889  17.368  19.284  0.00  0.00    +0.000 OA
ENDBRANCH  28  29
ENDBRANCH  27  28
ENDBRANCH  25  27
ENDBRANCH   3  25
BRANCH   6  34
ATOM     34  O   UNL     1      -2.651   9.862  15.421  0.00  0.00    +0.000 OA
ATOM     35  H   UNL     1      -2.678   9.106  16.035  0.00  0.00    +0.000 HD
ENDBRANCH   6  34
TORSDOF 7
ENDMDL
MODEL 5
REMARK VINA RESULT:      -6.0      2.947      5.324
REMARK  Name = 
REMARK  9 active torsions:
REMARK  status: ('A' for Active; 'I' for Inactive)
REMARK    1  A    between atoms: C_1  and  C_2
REMARK    2  A    between atoms: C_3  and  C_4
REMARK    3  A    between atoms: C_4  and  O_6
REMARK    4  A    between atoms: O_6  and  C_7
REMARK    5  A    between atoms: C_7  and  C_8
REMARK    6  A    between atoms: C_13  and  C_14
REMARK    7  A    between atoms: C_17  and  C_18
REMARK    8  A    between atoms: C_21  and  O_22
REMARK    9  A    between atoms: C_24  and  C_25
REMARK                            x       y       z     vdW  Elec       q    Type
REMARK                         _______ _______ _______ _____ _____    ______ ____
ROOT
ATOM      1  C   UNL     1      -0.212   9.635  22.426  0.00  0.00    +0.000 C 
ATOM      2  C   UNL     1      -0.379  11.002  21.813  0.00  0.00    +0.000 C 
ATOM      3  C   UNL     1      -0.465  11.186  20.458  0.00  0.00    +0.000 C 
ATOM      4  C   UNL     1      -0.623  12.629  20.035  0.00  0.00    +0.000 C 
ATOM      5  C   UNL     1      -1.657  13.109  21.022  0.00  0.00    +0.000 C 
ATOM      6  C   UNL     1      -2.692  13.952  21.099  0.00  0.00    +0.000 C 
ATOM      7  C   UNL     1      -2.348  15.270  20.547  0.00  0.00    +0.000 C 
ATOM      8  C   UNL     1      -1.294  15.904  21.521  0.00  0.00    +0.000 C 
ATOM      9  C   UNL     1      -0.576  14.788  22.555  0.00  0.00    +0.000 C 
ATOM     10  C   UNL     1      -0.857  13.254  22.232  0.00  0.00    +0.000 C 
ATOM     11  N   UNL     1      -0.293  12.151  22.702  0.00  0.00    +0.000 NA
ENDROOT
BRANCH   8  12
ATOM     12  C   UNL     1      -0.661  16.976  20.576  0.00  0.00    +0.000 A 
ATOM     13  C   UNL     1      -1.222  17.111  19.282  0.00  0.00    +0.000 A 
ATOM     14  C   UNL     1      -0.439  17.481  18.174  0.00  0.00    +0.000 A 
ATOM     15  C   UNL     1       0.913  17.740  18.333  0.00  0.00    +0.000 A 
ATOM     16  F   UNL     1       1.685  17.962  17.260  0.00  0.00    +0.000 F 
ATOM     17  C   UNL     1       1.477  17.709  19.594  0.00  0.00    +0.000 A 
ATOM     18  C   UNL     1       0.682  17.366  20.701  0.00  0.00    +0.000 A 
ENDBRANCH   8  12
BRANCH   4  19
ATOM     19  C   UNL     1       0.797  13.212  19.971  0.00  0.00    +0.000 A 
ATOM     20  C   UNL     1       1.886  13.228  20.839  0.00  0.00    +0.000 A 
ATOM     21  C   UNL     1       2.933  13.902  20.189  0.00  0.00    +0.000 A 
ATOM     22  C   UNL     1       2.462  14.187  18.930  0.00  0.00    +0.000 A 
ATOM     23  C   UNL     1       3.041  14.923  17.798  0.00  0.00    +0.000 C 
ATOM     24  O   UNL     1       1.183  13.740  18.772  0.00  0.00    +0.000 OA
ENDBRANCH   4  19
BRANCH   3  25
ATOM     25  C   UNL     1      -0.378  10.231  19.311  0.00  0.00    +0.000 C 
ATOM     26  O   UNL     1       0.626   9.745  18.843  0.00  0.00    +0.000 OA
BRANCH  25  27
ATOM     27  O   UNL     1      -1.645  10.019  18.861  0.00  0.00    +0.000 OA
BRANCH  27  28
ATOM     28  C   UNL     1      -2.150  10.639  17.672  0.00  0.00    +0.000 C 
BRANCH  28  29
ATOM     29  C   UNL     1      -3.671  10.754  17.764  0.00  0.00    +0.000 C 
ATOM     30  C   UNL     1      -4.290  11.475  16.578  0.00  0.00    +0.000 C 
ATOM     31  C   UNL     1      -5.545  12.049  17.182  0.00  0.00    +0.000 C 
ATOM     32  C   UNL     1      -5.087  12.417  18.577  0.00  0.00    +0.000 C 
ATOM     33  O   UNL     1      -4.059  11.483  18.940  0.00  0.00    +0.000 OA
ENDBRANCH  28  29
ENDBRANCH  27  28
ENDBRANCH  25  27
ENDBRANCH   3  25
BRANCH   6  34
ATOM     34  O   UNL     1      -3.469  14.006  22.255  0.00  0.00    +0.000 OA
ATOM     35  H   UNL     1      -4.285  14.511  22.085  0.00  0.00    +0.000 HD
ENDBRANCH   6  34
TORSDOF 7
ENDMDL
MODEL 6
REMARK VINA RESULT:      -6.0      3.851      7.520
REMARK  Name = 
REMARK  9 active torsions:
REMARK  status: ('A' for Active; 'I' for Inactive)
REMARK    1  A    between atoms: C_1  and  C_2
REMARK    2  A    between atoms: C_3  and  C_4
REMARK    3  A    between atoms: C_4  and  O_6
REMARK    4  A    between atoms: O_6  and  C_7
REMARK    5  A    between atoms: C_7  and  C_8
REMARK    6  A    between atoms: C_13  and  C_14
REMARK    7  A    between atoms: C_17  and  C_18
REMARK    8  A    between atoms: C_21  and  O_22
REMARK    9  A    between atoms: C_24  and  C_25
REMARK                            x       y       z     vdW  Elec       q    Type
REMARK                         _______ _______ _______ _____ _____    ______ ____
ROOT
ATOM      1  C   UNL     1       1.390  10.269  18.889  0.00  0.00    +0.000 C 
ATOM      2  C   UNL     1      -0.016  10.740  18.618  0.00  0.00    +0.000 C 
ATOM      3  C   UNL     1      -0.321  12.067  18.460  0.00  0.00    +0.000 C 
ATOM      4  C   UNL     1      -1.786  12.342  18.202  0.00  0.00    +0.000 C 
ATOM      5  C   UNL     1      -2.109  11.272  17.191  0.00  0.00    +0.000 C 
ATOM      6  C   UNL     1      -2.878  11.072  16.116  0.00  0.00    +0.000 C 
ATOM      7  C   UNL     1      -4.259  11.508  16.360  0.00  0.00    +0.000 C 
ATOM      8  C   UNL     1      -4.861  10.522  17.422  0.00  0.00    +0.000 C 
ATOM      9  C   UNL     1      -3.698   9.630  18.247  0.00  0.00    +0.000 C 
ATOM     10  C   UNL     1      -2.187  10.088  18.037  0.00  0.00    +0.000 C 
ATOM     11  N   UNL     1      -1.080   9.750  18.682  0.00  0.00    +0.000 NA
ENDROOT
BRANCH   8  12
ATOM     12  C   UNL     1      -6.053  11.384  17.950  0.00  0.00    +0.000 A 
ATOM     13  C   UNL     1      -6.092  12.745  17.557  0.00  0.00    +0.000 A 
ATOM     14  C   UNL     1      -6.628  13.740  18.393  0.00  0.00    +0.000 A 
ATOM     15  C   UNL     1      -7.152  13.399  19.630  0.00  0.00    +0.000 A 
ATOM     16  F   UNL     1      -7.540  14.359  20.483  0.00  0.00    +0.000 F 
ATOM     17  C   UNL     1      -7.216  12.072  20.011  0.00  0.00    +0.000 A 
ATOM     18  C   UNL     1      -6.703  11.081  19.157  0.00  0.00    +0.000 A 
ENDBRANCH   8  12
BRANCH   4  19
ATOM     19  C   UNL     1      -2.455  12.408  19.583  0.00  0.00    +0.000 A 
ATOM     20  C   UNL     1      -3.733  12.726  20.035  0.00  0.00    +0.000 A 
ATOM     21  C   UNL     1      -3.738  12.570  21.431  0.00  0.00    +0.000 A 
ATOM     22  C   UNL     1      -2.493  12.083  21.751  0.00  0.00    +0.000 A 
ATOM     23  C   UNL     1      -1.851  11.771  23.036  0.00  0.00    +0.000 C 
ATOM     24  O   UNL     1      -1.720  11.944  20.637  0.00  0.00    +0.000 OA
ENDBRANCH   4  19
BRANCH   3  25
ATOM     25  C   UNL     1       0.516  13.303  18.545  0.00  0.00    +0.000 C 
ATOM     26  O   UNL     1       1.709  13.361  18.733  0.00  0.00    +0.000 OA
BRANCH  25  27
ATOM     27  O   UNL     1      -0.317  14.370  18.399  0.00  0.00    +0.000 OA
BRANCH  27  28
ATOM     28  C   UNL     1      -0.211  15.542  19.216  0.00  0.00    +0.000 C 
BRANCH  28  29
ATOM     29  C   UNL     1      -0.395  15.159  20.684  0.00  0.00    +0.000 C 
ATOM     30  C   UNL     1      -1.671  15.715  21.292  0.00  0.00    +0.000 C 
ATOM     31  C   UNL     1      -1.302  15.819  22.749  0.00  0.00    +0.000 C 
ATOM     32  C   UNL     1       0.154  16.227  22.681  0.00  0.00    +0.000 C 
ATOM     33  O   UNL     1       0.694  15.650  21.482  0.00  0.00    +0.000 OA
ENDBRANCH  28  29
ENDBRANCH  27  28
ENDBRANCH  25  27
ENDBRANCH   3  25
BRANCH   6  34
ATOM     34  O   UNL     1      -2.777   9.884  15.392  0.00  0.00    +0.000 OA
ATOM     35  H   UNL     1      -2.221  10.020  14.603  0.00  0.00    +0.000 HD
ENDBRANCH   6  34
TORSDOF 7
ENDMDL
MODEL 7
REMARK VINA RESULT:      -6.0      3.317      5.390
REMARK  Name = 
REMARK  9 active torsions:
REMARK  status: ('A' for Active; 'I' for Inactive)
REMARK    1  A    between atoms: C_1  and  C_2
REMARK    2  A    between atoms: C_3  and  C_4
REMARK    3  A    between atoms: C_4  and  O_6
REMARK    4  A    between atoms: O_6  and  C_7
REMARK    5  A    between atoms: C_7  and  C_8
REMARK    6  A    between atoms: C_13  and  C_14
REMARK    7  A    between atoms: C_17  and  C_18
REMARK    8  A    between atoms: C_21  and  O_22
REMARK    9  A    between atoms: C_24  and  C_25
REMARK                            x       y       z     vdW  Elec       q    Type
REMARK                         _______ _______ _______ _____ _____    ______ ____
ROOT
ATOM      1  C   UNL     1       2.399  12.141  17.853  0.00  0.00    +0.000 C 
ATOM      2  C   UNL     1       1.160  12.149  18.713  0.00  0.00    +0.000 C 
ATOM      3  C   UNL     1       0.587  10.993  19.174  0.00  0.00    +0.000 C 
ATOM      4  C   UNL     1      -0.652  11.206  20.015  0.00  0.00    +0.000 C 
ATOM      5  C   UNL     1      -0.210  12.344  20.900  0.00  0.00    +0.000 C 
ATOM      6  C   UNL     1      -0.374  12.801  22.145  0.00  0.00    +0.000 C 
ATOM      7  C   UNL     1      -1.794  12.825  22.522  0.00  0.00    +0.000 C 
ATOM      8  C   UNL     1      -2.476  13.929  21.640  0.00  0.00    +0.000 C 
ATOM      9  C   UNL     1      -1.558  14.385  20.306  0.00  0.00    +0.000 C 
ATOM     10  C   UNL     1      -0.293  13.473  19.982  0.00  0.00    +0.000 C 
ATOM     11  N   UNL     1       0.493  13.427  18.917  0.00  0.00    +0.000 NA
ENDROOT
BRANCH   8  12
ATOM     12  C   UNL     1      -3.969  13.481  21.749  0.00  0.00    +0.000 A 
ATOM     13  C   UNL     1      -4.927  14.241  21.035  0.00  0.00    +0.000 A 
ATOM     14  C   UNL     1      -6.240  14.408  21.509  0.00  0.00    +0.000 A 
ATOM     15  C   UNL     1      -6.632  13.807  22.695  0.00  0.00    +0.000 A 
ATOM     16  F   UNL     1      -7.838  14.073  23.216  0.00  0.00    +0.000 F 
ATOM     17  C   UNL     1      -5.754  12.983  23.374  0.00  0.00    +0.000 A 
ATOM     18  C   UNL     1      -4.452  12.800  22.878  0.00  0.00    +0.000 A 
ENDBRANCH   8  12
BRANCH   4  19
ATOM     19  C   UNL     1      -1.821  11.329  19.027  0.00  0.00    +0.000 A 
ATOM     20  C   UNL     1      -3.129  11.797  19.115  0.00  0.00    +0.000 A 
ATOM     21  C   UNL     1      -3.707  11.677  17.840  0.00  0.00    +0.000 A 
ATOM     22  C   UNL     1      -2.701  11.224  17.021  0.00  0.00    +0.000 A 
ATOM     23  C   UNL     1      -2.674  10.841  15.603  0.00  0.00    +0.000 C 
ATOM     24  O   UNL     1      -1.543  11.046  17.720  0.00  0.00    +0.000 OA
ENDBRANCH   4  19
BRANCH   3  25
ATOM     25  C   UNL     1       0.926   9.554  18.958  0.00  0.00    +0.000 C 
ATOM     26  O   UNL     1       1.269   9.035  17.921  0.00  0.00    +0.000 OA
BRANCH  25  27
ATOM     27  O   UNL     1       0.753   8.912  20.146  0.00  0.00    +0.000 OA
BRANCH  27  28
ATOM     28  C   UNL     1       1.776   8.099  20.734  0.00  0.00    +0.000 C 
BRANCH  28  29
ATOM     29  C   UNL     1       1.885   6.783  19.965  0.00  0.00    +0.000 C 
ATOM     30  C   UNL     1       1.668   5.558  20.838  0.00  0.00    +0.000 C 
ATOM     31  C   UNL     1       2.463   4.509  20.107  0.00  0.00    +0.000 C 
ATOM     32  C   UNL     1       3.649   5.303  19.601  0.00  0.00    +0.000 C 
ATOM     33  O   UNL     1       3.187   6.643  19.372  0.00  0.00    +0.000 OA
ENDBRANCH  28  29
ENDBRANCH  27  28
ENDBRANCH  25  27
ENDBRANCH   3  25
BRANCH   6  34
ATOM     34  O   UNL     1       0.349  13.909  22.588  0.00  0.00    +0.000 OA
ATOM     35  H   UNL     1      -0.169  14.402  23.250  0.00  0.00    +0.000 HD
ENDBRANCH   6  34
TORSDOF 7
ENDMDL
MODEL 8
REMARK VINA RESULT:      -6.0      2.214      3.842
REMARK  Name = 
REMARK  9 active torsions:
REMARK  status: ('A' for Active; 'I' for Inactive)
REMARK    1  A    between atoms: C_1  and  C_2
REMARK    2  A    between atoms: C_3  and  C_4
REMARK    3  A    between atoms: C_4  and  O_6
REMARK    4  A    between atoms: O_6  and  C_7
REMARK    5  A    between atoms: C_7  and  C_8
REMARK    6  A    between atoms: C_13  and  C_14
REMARK    7  A    between atoms: C_17  and  C_18
REMARK    8  A    between atoms: C_21  and  O_22
REMARK    9  A    between atoms: C_24  and  C_25
REMARK                            x       y       z     vdW  Elec       q    Type
REMARK                         _______ _______ _______ _____ _____    ______ ____
ROOT
ATOM      1  C   UNL     1      -0.151   9.526  22.334  0.00  0.00    +0.000 C 
ATOM      2  C   UNL     1      -0.334  10.903  21.748  0.00  0.00    +0.000 C 
ATOM      3  C   UNL     1      -0.407  11.114  20.395  0.00  0.00    +0.000 C 
ATOM      4  C   UNL     1      -0.585  12.564  20.001  0.00  0.00    +0.000 C 
ATOM      5  C   UNL     1      -1.636  13.006  20.987  0.00  0.00    +0.000 C 
ATOM      6  C   UNL     1      -2.685  13.831  21.070  0.00  0.00    +0.000 C 
ATOM      7  C   UNL     1      -2.357  15.165  20.550  0.00  0.00    +0.000 C 
ATOM      8  C   UNL     1      -1.323  15.796  21.548  0.00  0.00    +0.000 C 
ATOM      9  C   UNL     1      -0.599  14.669  22.567  0.00  0.00    +0.000 C 
ATOM     10  C   UNL     1      -0.851  13.139  22.208  0.00  0.00    +0.000 C 
ATOM     11  N   UNL     1      -0.275  12.035  22.661  0.00  0.00    +0.000 NA
ENDROOT
BRANCH   8  12
ATOM     12  C   UNL     1      -0.697  16.897  20.632  0.00  0.00    +0.000 A 
ATOM     13  C   UNL     1      -1.255  17.059  19.340  0.00  0.00    +0.000 A 
ATOM     14  C   UNL     1      -0.472  17.464  18.244  0.00  0.00    +0.000 A 
ATOM     15  C   UNL     1       0.877  17.733  18.415  0.00  0.00    +0.000 A 
ATOM     16  F   UNL     1       1.651  17.988  17.351  0.00  0.00    +0.000 F 
ATOM     17  C   UNL     1       1.437  17.675  19.677  0.00  0.00    +0.000 A 
ATOM     18  C   UNL     1       0.642  17.296  20.772  0.00  0.00    +0.000 A 
ENDBRANCH   8  12
BRANCH   4  19
ATOM     19  C   UNL     1       0.827  13.170  19.965  0.00  0.00    +0.000 A 
ATOM     20  C   UNL     1       1.909  13.178  20.841  0.00  0.00    +0.000 A 
ATOM     21  C   UNL     1       2.950  13.886  20.219  0.00  0.00    +0.000 A 
ATOM     22  C   UNL     1       2.483  14.200  18.965  0.00  0.00    +0.000 A 
ATOM     23  C   UNL     1       3.059  14.978  17.859  0.00  0.00    +0.000 C 
ATOM     24  O   UNL     1       1.213  13.738  18.785  0.00  0.00    +0.000 OA
ENDBRANCH   4  19
BRANCH   3  25
ATOM     25  C   UNL     1      -0.294  10.185  19.231  0.00  0.00    +0.000 C 
ATOM     26  O   UNL     1      -1.167   9.890  18.447  0.00  0.00    +0.000 OA
BRANCH  25  27
ATOM     27  O   UNL     1       0.977   9.698  19.220  0.00  0.00    +0.000 OA
BRANCH  27  28
ATOM     28  C   UNL     1       1.476   8.879  18.156  0.00  0.00    +0.000 C 
BRANCH  28  29
ATOM     29  C   UNL     1       2.421   7.822  18.726  0.00  0.00    +0.000 C 
ATOM     30  C   UNL     1       2.415   6.524  17.936  0.00  0.00    +0.000 C 
ATOM     31  C   UNL     1       2.804   5.518  18.986  0.00  0.00    +0.000 C 
ATOM     32  C   UNL     1       2.111   6.060  20.218  0.00  0.00    +0.000 C 
ATOM     33  O   UNL     1       2.061   7.487  20.076  0.00  0.00    +0.000 OA
ENDBRANCH  28  29
ENDBRANCH  27  28
ENDBRANCH  25  27
ENDBRANCH   3  25
BRANCH   6  34
ATOM     34  O   UNL     1      -3.475  13.849  22.219  0.00  0.00    +0.000 OA
ATOM     35  H   UNL     1      -4.385  14.118  21.994  0.00  0.00    +0.000 HD
ENDBRANCH   6  34
TORSDOF 7
ENDMDL
MODEL 9
REMARK VINA RESULT:      -6.0      2.537      4.144
REMARK  Name = 
REMARK  9 active torsions:
REMARK  status: ('A' for Active; 'I' for Inactive)
REMARK    1  A    between atoms: C_1  and  C_2
REMARK    2  A    between atoms: C_3  and  C_4
REMARK    3  A    between atoms: C_4  and  O_6
REMARK    4  A    between atoms: O_6  and  C_7
REMARK    5  A    between atoms: C_7  and  C_8
REMARK    6  A    between atoms: C_13  and  C_14
REMARK    7  A    between atoms: C_17  and  C_18
REMARK    8  A    between atoms: C_21  and  O_22
REMARK    9  A    between atoms: C_24  and  C_25
REMARK                            x       y       z     vdW  Elec       q    Type
REMARK                         _______ _______ _______ _____ _____    ______ ____
ROOT
ATOM      1  C   UNL     1       0.685   8.923  21.872  0.00  0.00    +0.000 C 
ATOM      2  C   UNL     1       0.239  10.289  21.413  0.00  0.00    +0.000 C 
ATOM      3  C   UNL     1       0.111  10.604  20.086  0.00  0.00    +0.000 C 
ATOM      4  C   UNL     1      -0.341  12.024  19.825  0.00  0.00    +0.000 C 
ATOM      5  C   UNL     1      -1.445  12.168  20.841  0.00  0.00    +0.000 C 
ATOM      6  C   UNL     1      -2.630  12.769  20.993  0.00  0.00    +0.000 C 
ATOM      7  C   UNL     1      -2.566  14.183  20.599  0.00  0.00    +0.000 C 
ATOM      8  C   UNL     1      -1.657  14.904  21.657  0.00  0.00    +0.000 C 
ATOM      9  C   UNL     1      -0.722  13.846  22.572  0.00  0.00    +0.000 C 
ATOM     10  C   UNL     1      -0.685  12.335  22.073  0.00  0.00    +0.000 C 
ATOM     11  N   UNL     1       0.094  11.323  22.427  0.00  0.00    +0.000 NA
ENDROOT
BRANCH   8  12
ATOM     12  C   UNL     1      -1.262  16.182  20.850  0.00  0.00    +0.000 A 
ATOM     13  C   UNL     1      -2.314  17.020  20.407  0.00  0.00    +0.000 A 
ATOM     14  C   UNL     1      -2.221  17.752  19.209  0.00  0.00    +0.000 A 
ATOM     15  C   UNL     1      -1.072  17.678  18.438  0.00  0.00    +0.000 A 
ATOM     16  F   UNL     1      -1.032  18.267  17.234  0.00  0.00    +0.000 F 
ATOM     17  C   UNL     1       0.012  16.945  18.882  0.00  0.00    +0.000 A 
ATOM     18  C   UNL     1      -0.079  16.238  20.094  0.00  0.00    +0.000 A 
ENDBRANCH   8  12
BRANCH   4  19
ATOM     19  C   UNL     1       0.930  12.886  19.853  0.00  0.00    +0.000 A 
ATOM     20  C   UNL     1       1.900  13.167  20.812  0.00  0.00    +0.000 A 
ATOM     21  C   UNL     1       2.849  14.015  20.218  0.00  0.00    +0.000 A 
ATOM     22  C   UNL     1       2.458  14.141  18.905  0.00  0.00    +0.000 A 
ATOM     23  C   UNL     1       2.987  14.933  17.786  0.00  0.00    +0.000 C 
ATOM     24  O   UNL     1       1.320  13.431  18.662  0.00  0.00    +0.000 OA
ENDBRANCH   4  19
BRANCH   3  25
ATOM     25  C   UNL     1       0.384   9.823  18.841  0.00  0.00    +0.000 C 
ATOM     26  O   UNL     1      -0.314   9.756  17.856  0.00  0.00    +0.000 OA
BRANCH  25  27
ATOM     27  O   UNL     1       1.562   9.166  19.023  0.00  0.00    +0.000 OA
BRANCH  27  28
ATOM     28  C   UNL     1       2.328   8.648  17.929  0.00  0.00    +0.000 C 
BRANCH  28  29
ATOM     29  C   UNL     1       2.530   7.144  18.114  0.00  0.00    +0.000 C 
ATOM     30  C   UNL     1       2.543   6.717  19.571  0.00  0.00    +0.000 C 
ATOM     31  C   UNL     1       3.393   5.474  19.524  0.00  0.00    +0.000 C 
ATOM     32  C   UNL     1       4.422   5.833  18.473  0.00  0.00    +0.000 C 
ATOM     33  O   UNL     1       3.781   6.722  17.546  0.00  0.00    +0.000 OA
ENDBRANCH  28  29
ENDBRANCH  27  28
ENDBRANCH  25  27
ENDBRANCH   3  25
BRANCH   6  34
ATOM     34  O   UNL     1      -3.396  12.532  22.134  0.00  0.00    +0.000 OA
ATOM     35  H   UNL     1      -3.062  11.746  22.603  0.00  0.00    +0.000 HD
ENDBRANCH   6  34
TORSDOF 7
ENDMDL
