MODEL 1
REMARK VINA RESULT:      -7.7      0.000      0.000
REMARK  Name = 
REMARK  7 active torsions:
REMARK  status: ('A' for Active; 'I' for Inactive)
REMARK    1  A    between atoms: C_1  and  O_2
REMARK    2  A    between atoms: O_2  and  C_3
REMARK    3  A    between atoms: C_5  and  N_6
REMARK    4  A    between atoms: C_7  and  C_9
REMARK    5  A    between atoms: C_12  and  N_13
REMARK    6  A    between atoms: C_19  and  N_20
REMARK    7  A    between atoms: C_21  and  C_23
REMARK                            x       y       z     vdW  Elec       q    Type
REMARK                         _______ _______ _______ _____ _____    ______ ____
ROOT
ATOM      1  C   UNL     1       0.438   9.962  19.123  0.00  0.00    +0.000 A 
ATOM      2  C   UNL     1       1.266   9.050  18.442  0.00  0.00    +0.000 A 
ATOM      3  C   UNL     1       1.989   8.063  19.101  0.00  0.00    +0.000 A 
ATOM      4  C   UNL     1       1.859   7.960  20.478  0.00  0.00    +0.000 A 
ATOM      5  C   UNL     1       1.016   8.837  21.173  0.00  0.00    +0.000 A 
ATOM      6  C   UNL     1       0.291   9.844  20.520  0.00  0.00    +0.000 A 
ENDROOT
BRANCH   3   7
ATOM      7  N   UNL     1       2.832   7.157  18.424  0.00  0.00    +0.000 N 
ATOM      8  C   UNL     1       2.801   5.773  18.527  0.00  0.00    +0.000 C 
ATOM      9  O   UNL     1       1.978   5.126  19.168  0.00  0.00    +0.000 OA
ATOM     10  H   UNL     1       3.496   7.546  17.764  0.00  0.00    +0.000 HD
BRANCH   8  11
ATOM     11  C   UNL     1       3.833   5.103  17.764  0.00  0.00    +0.000 A 
ATOM     12  C   UNL     1       3.767   3.960  16.983  0.00  0.00    +0.000 A 
ATOM     13  C   UNL     1       5.056   3.757  16.433  0.00  0.00    +0.000 A 
ATOM     14  C   UNL     1       5.824   4.782  16.928  0.00  0.00    +0.000 A 
ATOM     15  O   UNL     1       5.108   5.607  17.744  0.00  0.00    +0.000 OA
BRANCH  14  16
ATOM     16  N   UNL     1       7.196   5.129  16.738  0.00  0.00    +0.000 N 
ATOM     17  O   UNL     1       8.029   4.327  17.181  0.00  0.00    +0.000 OA
ATOM     18  O   UNL     1       7.446   6.189  16.151  0.00  0.00    +0.000 OA
ENDBRANCH  14  16
ENDBRANCH   8  11
ENDBRANCH   3   7
BRANCH   6  19
ATOM     19  N   UNL     1      -0.592  10.693  21.242  0.00  0.00    +0.000 N 
ATOM     20  C   UNL     1      -0.279  11.936  21.782  0.00  0.00    +0.000 C 
ATOM     21  O   UNL     1       0.775  12.541  21.582  0.00  0.00    +0.000 OA
ATOM     22  H   UNL     1      -1.550  10.371  21.350  0.00  0.00    +0.000 HD
BRANCH  20  23
ATOM     23  C   UNL     1      -1.305  12.527  22.617  0.00  0.00    +0.000 A 
ATOM     24  C   UNL     1      -2.611  12.127  22.847  0.00  0.00    +0.000 A 
ATOM     25  C   UNL     1      -3.177  13.061  23.747  0.00  0.00    +0.000 A 
ATOM     26  C   UNL     1      -2.185  13.979  24.000  0.00  0.00    +0.000 A 
ATOM     27  O   UNL     1      -1.047  13.668  23.324  0.00  0.00    +0.000 OA
ENDBRANCH  20  23
ENDBRANCH   6  19
BRANCH   1  29
ATOM     28  C   UNL     1      -1.398  10.529  17.729  0.00  0.00    +0.000 C 
ATOM     29  O   UNL     1      -0.227  10.966  18.447  0.00  0.00    +0.000 OA
ENDBRANCH   1  29
TORSDOF 6
ENDMDL
MODEL 2
REMARK VINA RESULT:      -7.5      0.967      1.176
REMARK  Name = 
REMARK  7 active torsions:
REMARK  status: ('A' for Active; 'I' for Inactive)
REMARK    1  A    between atoms: C_1  and  O_2
REMARK    2  A    between atoms: O_2  and  C_3
REMARK    3  A    between atoms: C_5  and  N_6
REMARK    4  A    between atoms: C_7  and  C_9
REMARK    5  A    between atoms: C_12  and  N_13
REMARK    6  A    between atoms: C_19  and  N_20
REMARK    7  A    between atoms: C_21  and  C_23
REMARK                            x       y       z     vdW  Elec       q    Type
REMARK                         _______ _______ _______ _____ _____    ______ ____
ROOT
ATOM      1  C   UNL     1       0.615  10.067  19.216  0.00  0.00    +0.000 A 
ATOM      2  C   UNL     1       1.503   9.170  18.594  0.00  0.00    +0.000 A 
ATOM      3  C   UNL     1       2.015   8.054  19.245  0.00  0.00    +0.000 A 
ATOM      4  C   UNL     1       1.605   7.805  20.547  0.00  0.00    +0.000 A 
ATOM      5  C   UNL     1       0.698   8.667  21.176  0.00  0.00    +0.000 A 
ATOM      6  C   UNL     1       0.183   9.803  20.533  0.00  0.00    +0.000 A 
ENDROOT
BRANCH   3   7
ATOM      7  N   UNL     1       2.918   7.161  18.630  0.00  0.00    +0.000 N 
ATOM      8  C   UNL     1       2.832   5.776  18.633  0.00  0.00    +0.000 C 
ATOM      9  O   UNL     1       1.909   5.122  19.109  0.00  0.00    +0.000 OA
ATOM     10  H   UNL     1       3.679   7.565  18.095  0.00  0.00    +0.000 HD
BRANCH   8  11
ATOM     11  C   UNL     1       3.940   5.116  17.974  0.00  0.00    +0.000 A 
ATOM     12  C   UNL     1       3.954   4.283  16.868  0.00  0.00    +0.000 A 
ATOM     13  C   UNL     1       5.306   3.938  16.623  0.00  0.00    +0.000 A 
ATOM     14  C   UNL     1       6.023   4.574  17.606  0.00  0.00    +0.000 A 
ATOM     15  O   UNL     1       5.217   5.289  18.443  0.00  0.00    +0.000 OA
BRANCH  14  16
ATOM     16  N   UNL     1       7.420   4.623  17.893  0.00  0.00    +0.000 N 
ATOM     17  O   UNL     1       8.177   4.211  17.004  0.00  0.00    +0.000 OA
ATOM     18  O   UNL     1       7.767   5.071  18.994  0.00  0.00    +0.000 OA
ENDBRANCH  14  16
ENDBRANCH   8  11
ENDBRANCH   3   7
BRANCH   6  19
ATOM     19  N   UNL     1      -0.771  10.637  21.176  0.00  0.00    +0.000 N 
ATOM     20  C   UNL     1      -0.498  11.802  21.887  0.00  0.00    +0.000 C 
ATOM     21  O   UNL     1       0.604  12.351  21.934  0.00  0.00    +0.000 OA
ATOM     22  H   UNL     1      -1.747  10.371  21.086  0.00  0.00    +0.000 HD
BRANCH  20  23
ATOM     23  C   UNL     1      -1.625  12.379  22.591  0.00  0.00    +0.000 A 
ATOM     24  C   UNL     1      -2.056  13.693  22.664  0.00  0.00    +0.000 A 
ATOM     25  C   UNL     1      -3.207  13.705  23.488  0.00  0.00    +0.000 A 
ATOM     26  C   UNL     1      -3.398  12.400  23.875  0.00  0.00    +0.000 A 
ATOM     27  O   UNL     1      -2.450  11.587  23.340  0.00  0.00    +0.000 OA
ENDBRANCH  20  23
ENDBRANCH   6  19
BRANCH   1  29
ATOM     28  C   UNL     1       1.107  12.287  18.536  0.00  0.00    +0.000 C 
ATOM     29  O   UNL     1       0.165  11.197  18.562  0.00  0.00    +0.000 OA
ENDBRANCH   1  29
TORSDOF 6
ENDMDL
MODEL 3
REMARK VINA RESULT:      -7.3      1.869      9.958
REMARK  Name = 
REMARK  7 active torsions:
REMARK  status: ('A' for Active; 'I' for Inactive)
REMARK    1  A    between atoms: C_1  and  O_2
REMARK    2  A    between atoms: O_2  and  C_3
REMARK    3  A    between atoms: C_5  and  N_6
REMARK    4  A    between atoms: C_7  and  C_9
REMARK    5  A    between atoms: C_12  and  N_13
REMARK    6  A    between atoms: C_19  and  N_20
REMARK    7  A    between atoms: C_21  and  C_23
REMARK                            x       y       z     vdW  Elec       q    Type
REMARK                         _______ _______ _______ _____ _____    ______ ____
ROOT
ATOM      1  C   UNL     1       2.686   6.771  19.389  0.00  0.00    +0.000 A 
ATOM      2  C   UNL     1       1.802   7.611  20.091  0.00  0.00    +0.000 A 
ATOM      3  C   UNL     1       1.332   8.808  19.564  0.00  0.00    +0.000 A 
ATOM      4  C   UNL     1       1.729   9.165  18.283  0.00  0.00    +0.000 A 
ATOM      5  C   UNL     1       2.584   8.329  17.553  0.00  0.00    +0.000 A 
ATOM      6  C   UNL     1       3.074   7.124  18.079  0.00  0.00    +0.000 A 
ENDROOT
BRANCH   3   7
ATOM      7  N   UNL     1       0.458   9.661  20.271  0.00  0.00    +0.000 N 
ATOM      8  C   UNL     1       0.617  10.098  21.578  0.00  0.00    +0.000 C 
ATOM      9  O   UNL     1       1.590   9.869  22.291  0.00  0.00    +0.000 OA
ATOM     10  H   UNL     1      -0.341  10.028  19.766  0.00  0.00    +0.000 HD
BRANCH   8  11
ATOM     11  C   UNL     1      -0.475  10.915  22.063  0.00  0.00    +0.000 A 
ATOM     12  C   UNL     1      -1.246  10.790  23.208  0.00  0.00    +0.000 A 
ATOM     13  C   UNL     1      -2.157  11.873  23.217  0.00  0.00    +0.000 A 
ATOM     14  C   UNL     1      -1.891  12.577  22.069  0.00  0.00    +0.000 A 
ATOM     15  O   UNL     1      -0.881  12.013  21.347  0.00  0.00    +0.000 OA
BRANCH  14  16
ATOM     16  N   UNL     1      -2.463  13.764  21.518  0.00  0.00    +0.000 N 
ATOM     17  O   UNL     1      -1.820  14.313  20.614  0.00  0.00    +0.000 OA
ATOM     18  O   UNL     1      -3.546  14.148  21.977  0.00  0.00    +0.000 OA
ENDBRANCH  14  16
ENDBRANCH   8  11
ENDBRANCH   3   7
BRANCH   6  19
ATOM     19  N   UNL     1       3.903   6.271  17.302  0.00  0.00    +0.000 N 
ATOM     20  C   UNL     1       5.234   6.500  16.968  0.00  0.00    +0.000 C 
ATOM     21  O   UNL     1       5.924   7.413  17.426  0.00  0.00    +0.000 OA
ATOM     22  H   UNL     1       3.492   5.399  16.982  0.00  0.00    +0.000 HD
BRANCH  20  23
ATOM     23  C   UNL     1       5.809   5.563  16.025  0.00  0.00    +0.000 A 
ATOM     24  C   UNL     1       5.298   4.380  15.516  0.00  0.00    +0.000 A 
ATOM     25  C   UNL     1       6.271   3.857  14.631  0.00  0.00    +0.000 A 
ATOM     26  C   UNL     1       7.318   4.747  14.665  0.00  0.00    +0.000 A 
ATOM     27  O   UNL     1       7.052   5.783  15.502  0.00  0.00    +0.000 OA
ENDBRANCH  20  23
ENDBRANCH   6  19
BRANCH   1  29
ATOM     28  C   UNL     1       2.209   4.556  20.095  0.00  0.00    +0.000 C 
ATOM     29  O   UNL     1       3.178   5.614  19.960  0.00  0.00    +0.000 OA
ENDBRANCH   1  29
TORSDOF 6
ENDMDL
MODEL 4
REMARK VINA RESULT:      -7.3      1.666      1.987
REMARK  Name = 
REMARK  7 active torsions:
REMARK  status: ('A' for Active; 'I' for Inactive)
REMARK    1  A    between atoms: C_1  and  O_2
REMARK    2  A    between atoms: O_2  and  C_3
REMARK    3  A    between atoms: C_5  and  N_6
REMARK    4  A    between atoms: C_7  and  C_9
REMARK    5  A    between atoms: C_12  and  N_13
REMARK    6  A    between atoms: C_19  and  N_20
REMARK    7  A    between atoms: C_21  and  C_23
REMARK                            x       y       z     vdW  Elec       q    Type
REMARK                         _______ _______ _______ _____ _____    ______ ____
ROOT
ATOM      1  C   UNL     1       0.975   9.392  18.601  0.00  0.00    +0.000 A 
ATOM      2  C   UNL     1       1.771   8.484  17.878  0.00  0.00    +0.000 A 
ATOM      3  C   UNL     1       2.453   7.439  18.490  0.00  0.00    +0.000 A 
ATOM      4  C   UNL     1       2.313   7.272  19.860  0.00  0.00    +0.000 A 
ATOM      5  C   UNL     1       1.500   8.146  20.595  0.00  0.00    +0.000 A 
ATOM      6  C   UNL     1       0.817   9.211  19.990  0.00  0.00    +0.000 A 
ENDROOT
BRANCH   3   7
ATOM      7  N   UNL     1       3.264   6.535  17.771  0.00  0.00    +0.000 N 
ATOM      8  C   UNL     1       4.573   6.752  17.365  0.00  0.00    +0.000 C 
ATOM      9  O   UNL     1       5.249   7.739  17.641  0.00  0.00    +0.000 OA
ATOM     10  H   UNL     1       2.874   5.621  17.569  0.00  0.00    +0.000 HD
BRANCH   8  11
ATOM     11  C   UNL     1       5.134   5.670  16.584  0.00  0.00    +0.000 A 
ATOM     12  C   UNL     1       5.023   4.298  16.746  0.00  0.00    +0.000 A 
ATOM     13  C   UNL     1       5.742   3.694  15.687  0.00  0.00    +0.000 A 
ATOM     14  C   UNL     1       6.255   4.738  14.957  0.00  0.00    +0.000 A 
ATOM     15  O   UNL     1       5.907   5.947  15.485  0.00  0.00    +0.000 OA
BRANCH  14  16
ATOM     16  N   UNL     1       7.056   4.780  13.777  0.00  0.00    +0.000 N 
ATOM     17  O   UNL     1       6.736   4.000  12.870  0.00  0.00    +0.000 OA
ATOM     18  O   UNL     1       7.997   5.584  13.748  0.00  0.00    +0.000 OA
ENDBRANCH  14  16
ENDBRANCH   8  11
ENDBRANCH   3   7
BRANCH   6  19
ATOM     19  N   UNL     1      -0.037  10.056  20.750  0.00  0.00    +0.000 N 
ATOM     20  C   UNL     1       0.316  11.266  21.339  0.00  0.00    +0.000 C 
ATOM     21  O   UNL     1       1.388  11.845  21.159  0.00  0.00    +0.000 OA
ATOM     22  H   UNL     1      -1.004   9.760  20.850  0.00  0.00    +0.000 HD
BRANCH  20  23
ATOM     23  C   UNL     1      -0.688  11.853  22.203  0.00  0.00    +0.000 A 
ATOM     24  C   UNL     1      -0.896  13.175  22.562  0.00  0.00    +0.000 A 
ATOM     25  C   UNL     1      -2.014  13.195  23.431  0.00  0.00    +0.000 A 
ATOM     26  C   UNL     1      -2.409  11.884  23.556  0.00  0.00    +0.000 A 
ATOM     27  O   UNL     1      -1.617  11.062  22.819  0.00  0.00    +0.000 OA
ENDBRANCH  20  23
ENDBRANCH   6  19
BRANCH   1  29
ATOM     28  C   UNL     1      -1.031  10.221  17.638  0.00  0.00    +0.000 C 
ATOM     29  O   UNL     1       0.352  10.452  17.973  0.00  0.00    +0.000 OA
ENDBRANCH   1  29
TORSDOF 6
ENDMDL
MODEL 5
REMARK VINA RESULT:      -7.3      1.769     10.042
REMARK  Name = 
REMARK  7 active torsions:
REMARK  status: ('A' for Active; 'I' for Inactive)
REMARK    1  A    between atoms: C_1  and  O_2
REMARK    2  A    between atoms: O_2  and  C_3
REMARK    3  A    between atoms: C_5  and  N_6
REMARK    4  A    between atoms: C_7  and  C_9
REMARK    5  A    between atoms: C_12  and  N_13
REMARK    6  A    between atoms: C_19  and  N_20
REMARK    7  A    between atoms: C_21  and  C_23
REMARK                            x       y       z     vdW  Elec       q    Type
REMARK                         _______ _______ _______ _____ _____    ______ ____
ROOT
ATOM      1  C   UNL     1       2.597   6.783  19.626  0.00  0.00    +0.000 A 
ATOM      2  C   UNL     1       1.778   7.641  20.384  0.00  0.00    +0.000 A 
ATOM      3  C   UNL     1       1.294   8.844  19.883  0.00  0.00    +0.000 A 
ATOM      4  C   UNL     1       1.610   9.190  18.578  0.00  0.00    +0.000 A 
ATOM      5  C   UNL     1       2.399   8.336  17.796  0.00  0.00    +0.000 A 
ATOM      6  C   UNL     1       2.902   7.125  18.293  0.00  0.00    +0.000 A 
ENDROOT
BRANCH   3   7
ATOM      7  N   UNL     1       0.485   9.714  20.644  0.00  0.00    +0.000 N 
ATOM      8  C   UNL     1       0.734  11.056  20.897  0.00  0.00    +0.000 C 
ATOM      9  O   UNL     1       1.662  11.708  20.427  0.00  0.00    +0.000 OA
ATOM     10  H   UNL     1      -0.386   9.340  21.006  0.00  0.00    +0.000 HD
BRANCH   8  11
ATOM     11  C   UNL     1      -0.240  11.682  21.767  0.00  0.00    +0.000 A 
ATOM     12  C   UNL     1      -1.455  11.209  22.235  0.00  0.00    +0.000 A 
ATOM     13  C   UNL     1      -1.994  12.210  23.079  0.00  0.00    +0.000 A 
ATOM     14  C   UNL     1      -1.077  13.232  23.057  0.00  0.00    +0.000 A 
ATOM     15  O   UNL     1      -0.008  12.939  22.262  0.00  0.00    +0.000 OA
BRANCH  14  16
ATOM     16  N   UNL     1      -1.043  14.504  23.705  0.00  0.00    +0.000 N 
ATOM     17  O   UNL     1      -0.091  15.240  23.415  0.00  0.00    +0.000 OA
ATOM     18  O   UNL     1      -1.958  14.772  24.494  0.00  0.00    +0.000 OA
ENDBRANCH  14  16
ENDBRANCH   8  11
ENDBRANCH   3   7
BRANCH   6  19
ATOM     19  N   UNL     1       3.662   6.255  17.465  0.00  0.00    +0.000 N 
ATOM     20  C   UNL     1       4.987   6.437  17.079  0.00  0.00    +0.000 C 
ATOM     21  O   UNL     1       5.732   7.311  17.524  0.00  0.00    +0.000 OA
ATOM     22  H   UNL     1       3.202   5.407  17.146  0.00  0.00    +0.000 HD
BRANCH  20  23
ATOM     23  C   UNL     1       5.482   5.496  16.094  0.00  0.00    +0.000 A 
ATOM     24  C   UNL     1       5.167   4.162  15.895  0.00  0.00    +0.000 A 
ATOM     25  C   UNL     1       5.940   3.715  14.796  0.00  0.00    +0.000 A 
ATOM     26  C   UNL     1       6.686   4.801  14.403  0.00  0.00    +0.000 A 
ATOM     27  O   UNL     1       6.418   5.885  15.178  0.00  0.00    +0.000 OA
ENDBRANCH  20  23
ENDBRANCH   6  19
BRANCH   1  29
ATOM     28  C   UNL     1       2.108   4.692  20.638  0.00  0.00    +0.000 C 
ATOM     29  O   UNL     1       3.106   5.619  20.168  0.00  0.00    +0.000 OA
ENDBRANCH   1  29
TORSDOF 6
ENDMDL
MODEL 6
REMARK VINA RESULT:      -7.2      2.039     10.125
REMARK  Name = 
REMARK  7 active torsions:
REMARK  status: ('A' for Active; 'I' for Inactive)
REMARK    1  A    between atoms: C_1  and  O_2
REMARK    2  A    between atoms: O_2  and  C_3
REMARK    3  A    between atoms: C_5  and  N_6
REMARK    4  A    between atoms: C_7  and  C_9
REMARK    5  A    between atoms: C_12  and  N_13
REMARK    6  A    between atoms: C_19  and  N_20
REMARK    7  A    between atoms: C_21  and  C_23
REMARK                            x       y       z     vdW  Elec       q    Type
REMARK                         _______ _______ _______ _____ _____    ______ ____
ROOT
ATOM      1  C   UNL     1       3.404   5.549  18.687  0.00  0.00    +0.000 A 
ATOM      2  C   UNL     1       2.605   6.223  19.629  0.00  0.00    +0.000 A 
ATOM      3  C   UNL     1       2.227   7.552  19.472  0.00  0.00    +0.000 A 
ATOM      4  C   UNL     1       2.630   8.221  18.326  0.00  0.00    +0.000 A 
ATOM      5  C   UNL     1       3.399   7.560  17.360  0.00  0.00    +0.000 A 
ATOM      6  C   UNL     1       3.797   6.224  17.512  0.00  0.00    +0.000 A 
ENDROOT
BRANCH   3   7
ATOM      7  N   UNL     1       1.438   8.236  20.421  0.00  0.00    +0.000 N 
ATOM      8  C   UNL     1       0.609   9.320  20.172  0.00  0.00    +0.000 C 
ATOM      9  O   UNL     1       0.376   9.797  19.064  0.00  0.00    +0.000 OA
ATOM     10  H   UNL     1       1.440   7.878  21.370  0.00  0.00    +0.000 HD
BRANCH   8  11
ATOM     11  C   UNL     1      -0.028   9.859  21.354  0.00  0.00    +0.000 A 
ATOM     12  C   UNL     1      -0.140   9.330  22.630  0.00  0.00    +0.000 A 
ATOM     13  C   UNL     1      -0.832  10.283  23.417  0.00  0.00    +0.000 A 
ATOM     14  C   UNL     1      -1.108  11.323  22.564  0.00  0.00    +0.000 A 
ATOM     15  O   UNL     1      -0.638  11.087  21.305  0.00  0.00    +0.000 OA
BRANCH  14  16
ATOM     16  N   UNL     1      -1.773  12.571  22.757  0.00  0.00    +0.000 N 
ATOM     17  O   UNL     1      -2.911  12.665  22.278  0.00  0.00    +0.000 OA
ATOM     18  O   UNL     1      -1.171  13.452  23.384  0.00  0.00    +0.000 OA
ENDBRANCH  14  16
ENDBRANCH   8  11
ENDBRANCH   3   7
BRANCH   6  19
ATOM     19  N   UNL     1       4.539   5.562  16.497  0.00  0.00    +0.000 N 
ATOM     20  C   UNL     1       5.801   5.922  16.034  0.00  0.00    +0.000 C 
ATOM     21  O   UNL     1       6.514   6.786  16.547  0.00  0.00    +0.000 OA
ATOM     22  H   UNL     1       4.119   4.732  16.089  0.00  0.00    +0.000 HD
BRANCH  20  23
ATOM     23  C   UNL     1       6.271   5.190  14.876  0.00  0.00    +0.000 A 
ATOM     24  C   UNL     1       5.706   4.116  14.207  0.00  0.00    +0.000 A 
ATOM     25  C   UNL     1       6.579   3.785  13.144  0.00  0.00    +0.000 A 
ATOM     26  C   UNL     1       7.628   4.670  13.238  0.00  0.00    +0.000 A 
ATOM     27  O   UNL     1       7.454   5.525  14.280  0.00  0.00    +0.000 OA
ENDBRANCH  20  23
ENDBRANCH   6  19
BRANCH   1  29
ATOM     28  C   UNL     1       2.739   3.279  18.888  0.00  0.00    +0.000 C 
ATOM     29  O   UNL     1       3.808   4.246  18.895  0.00  0.00    +0.000 OA
ENDBRANCH   1  29
TORSDOF 6
ENDMDL
MODEL 7
REMARK VINA RESULT:      -7.2      1.167      1.753
REMARK  Name = 
REMARK  7 active torsions:
REMARK  status: ('A' for Active; 'I' for Inactive)
REMARK    1  A    between atoms: C_1  and  O_2
REMARK    2  A    between atoms: O_2  and  C_3
REMARK    3  A    between atoms: C_5  and  N_6
REMARK    4  A    between atoms: C_7  and  C_9
REMARK    5  A    between atoms: C_12  and  N_13
REMARK    6  A    between atoms: C_19  and  N_20
REMARK    7  A    between atoms: C_21  and  C_23
REMARK                            x       y       z     vdW  Elec       q    Type
REMARK                         _______ _______ _______ _____ _____    ______ ____
ROOT
ATOM      1  C   UNL     1       1.085   9.097  20.669  0.00  0.00    +0.000 A 
ATOM      2  C   UNL     1       1.904   8.129  20.059  0.00  0.00    +0.000 A 
ATOM      3  C   UNL     1       2.203   8.152  18.701  0.00  0.00    +0.000 A 
ATOM      4  C   UNL     1       1.695   9.189  17.932  0.00  0.00    +0.000 A 
ATOM      5  C   UNL     1       0.902  10.180  18.524  0.00  0.00    +0.000 A 
ATOM      6  C   UNL     1       0.585  10.161  19.890  0.00  0.00    +0.000 A 
ENDROOT
BRANCH   3   7
ATOM      7  N   UNL     1       3.012   7.175  18.083  0.00  0.00    +0.000 N 
ATOM      8  C   UNL     1       2.877   5.800  18.205  0.00  0.00    +0.000 C 
ATOM      9  O   UNL     1       1.976   5.225  18.811  0.00  0.00    +0.000 OA
ATOM     10  H   UNL     1       3.736   7.504  17.454  0.00  0.00    +0.000 HD
BRANCH   8  11
ATOM     11  C   UNL     1       3.895   5.043  17.508  0.00  0.00    +0.000 A 
ATOM     12  C   UNL     1       3.821   3.809  16.882  0.00  0.00    +0.000 A 
ATOM     13  C   UNL     1       5.097   3.545  16.329  0.00  0.00    +0.000 A 
ATOM     14  C   UNL     1       5.868   4.630  16.668  0.00  0.00    +0.000 A 
ATOM     15  O   UNL     1       5.164   5.549  17.389  0.00  0.00    +0.000 OA
BRANCH  14  16
ATOM     16  N   UNL     1       7.231   4.959  16.399  0.00  0.00    +0.000 N 
ATOM     17  O   UNL     1       8.080   4.378  17.089  0.00  0.00    +0.000 OA
ATOM     18  O   UNL     1       7.459   5.786  15.507  0.00  0.00    +0.000 OA
ENDBRANCH  14  16
ENDBRANCH   8  11
ENDBRANCH   3   7
BRANCH   6  19
ATOM     19  N   UNL     1      -0.184  11.203  20.476  0.00  0.00    +0.000 N 
ATOM     20  C   UNL     1       0.314  12.315  21.147  0.00  0.00    +0.000 C 
ATOM     21  O   UNL     1       1.506  12.625  21.200  0.00  0.00    +0.000 OA
ATOM     22  H   UNL     1      -1.193  11.143  20.372  0.00  0.00    +0.000 HD
BRANCH  20  23
ATOM     23  C   UNL     1      -0.678  13.144  21.800  0.00  0.00    +0.000 A 
ATOM     24  C   UNL     1      -2.005  13.376  21.473  0.00  0.00    +0.000 A 
ATOM     25  C   UNL     1      -2.519  14.269  22.443  0.00  0.00    +0.000 A 
ATOM     26  C   UNL     1      -1.472  14.536  23.293  0.00  0.00    +0.000 A 
ATOM     27  O   UNL     1      -0.353  13.862  22.917  0.00  0.00    +0.000 OA
ENDBRANCH  20  23
ENDBRANCH   6  19
BRANCH   1  29
ATOM     28  C   UNL     1      -0.559   8.507  22.277  0.00  0.00    +0.000 C 
ATOM     29  O   UNL     1       0.762   9.018  22.009  0.00  0.00    +0.000 OA
ENDBRANCH   1  29
TORSDOF 6
ENDMDL
MODEL 8
REMARK VINA RESULT:      -7.2      1.000      1.115
REMARK  Name = 
REMARK  7 active torsions:
REMARK  status: ('A' for Active; 'I' for Inactive)
REMARK    1  A    between atoms: C_1  and  O_2
REMARK    2  A    between atoms: O_2  and  C_3
REMARK    3  A    between atoms: C_5  and  N_6
REMARK    4  A    between atoms: C_7  and  C_9
REMARK    5  A    between atoms: C_12  and  N_13
REMARK    6  A    between atoms: C_19  and  N_20
REMARK    7  A    between atoms: C_21  and  C_23
REMARK                            x       y       z     vdW  Elec       q    Type
REMARK                         _______ _______ _______ _____ _____    ______ ____
ROOT
ATOM      1  C   UNL     1       0.319   9.990  19.655  0.00  0.00    +0.000 A 
ATOM      2  C   UNL     1       1.151   9.019  19.068  0.00  0.00    +0.000 A 
ATOM      3  C   UNL     1       1.776   8.024  19.812  0.00  0.00    +0.000 A 
ATOM      4  C   UNL     1       1.541   7.976  21.178  0.00  0.00    +0.000 A 
ATOM      5  C   UNL     1       0.691   8.914  21.778  0.00  0.00    +0.000 A 
ATOM      6  C   UNL     1       0.064   9.929  21.041  0.00  0.00    +0.000 A 
ENDROOT
BRANCH   3   7
ATOM      7  N   UNL     1       2.623   7.058  19.229  0.00  0.00    +0.000 N 
ATOM      8  C   UNL     1       3.247   7.150  17.993  0.00  0.00    +0.000 C 
ATOM      9  O   UNL     1       3.216   8.129  17.253  0.00  0.00    +0.000 OA
ATOM     10  H   UNL     1       2.835   6.234  19.781  0.00  0.00    +0.000 HD
BRANCH   8  11
ATOM     11  C   UNL     1       4.006   5.973  17.626  0.00  0.00    +0.000 A 
ATOM     12  C   UNL     1       3.576   4.697  17.302  0.00  0.00    +0.000 A 
ATOM     13  C   UNL     1       4.728   3.935  16.992  0.00  0.00    +0.000 A 
ATOM     14  C   UNL     1       5.785   4.795  17.163  0.00  0.00    +0.000 A 
ATOM     15  O   UNL     1       5.374   6.035  17.555  0.00  0.00    +0.000 OA
BRANCH  14  16
ATOM     16  N   UNL     1       7.193   4.627  17.000  0.00  0.00    +0.000 N 
ATOM     17  O   UNL     1       7.626   4.729  15.845  0.00  0.00    +0.000 OA
ATOM     18  O   UNL     1       7.866   4.398  18.013  0.00  0.00    +0.000 OA
ENDBRANCH  14  16
ENDBRANCH   8  11
ENDBRANCH   3   7
BRANCH   6  19
ATOM     19  N   UNL     1      -0.829  10.841  21.666  0.00  0.00    +0.000 N 
ATOM     20  C   UNL     1      -0.514  12.118  22.120  0.00  0.00    +0.000 C 
ATOM     21  O   UNL     1       0.555  12.692  21.910  0.00  0.00    +0.000 OA
ATOM     22  H   UNL     1      -1.794  10.541  21.767  0.00  0.00    +0.000 HD
BRANCH  20  23
ATOM     23  C   UNL     1      -1.557  12.784  22.874  0.00  0.00    +0.000 A 
ATOM     24  C   UNL     1      -2.843  12.370  23.179  0.00  0.00    +0.000 A 
ATOM     25  C   UNL     1      -3.441  13.403  23.940  0.00  0.00    +0.000 A 
ATOM     26  C   UNL     1      -2.486  14.388  24.040  0.00  0.00    +0.000 A 
ATOM     27  O   UNL     1      -1.342  14.026  23.401  0.00  0.00    +0.000 OA
ENDBRANCH  20  23
ENDBRANCH   6  19
BRANCH   1  29
ATOM     28  C   UNL     1      -1.287  10.561  18.003  0.00  0.00    +0.000 C 
ATOM     29  O   UNL     1      -0.246  10.998  18.899  0.00  0.00    +0.000 OA
ENDBRANCH   1  29
TORSDOF 6
ENDMDL
MODEL 9
REMARK VINA RESULT:      -7.2      1.640      2.289
REMARK  Name = 
REMARK  7 active torsions:
REMARK  status: ('A' for Active; 'I' for Inactive)
REMARK    1  A    between atoms: C_1  and  O_2
REMARK    2  A    between atoms: O_2  and  C_3
REMARK    3  A    between atoms: C_5  and  N_6
REMARK    4  A    between atoms: C_7  and  C_9
REMARK    5  A    between atoms: C_12  and  N_13
REMARK    6  A    between atoms: C_19  and  N_20
REMARK    7  A    between atoms: C_21  and  C_23
REMARK                            x       y       z     vdW  Elec       q    Type
REMARK                         _______ _______ _______ _____ _____    ______ ____
ROOT
ATOM      1  C   UNL     1       0.682   8.874  20.373  0.00  0.00    +0.000 A 
ATOM      2  C   UNL     1       1.774   8.100  19.937  0.00  0.00    +0.000 A 
ATOM      3  C   UNL     1       2.274   8.177  18.643  0.00  0.00    +0.000 A 
ATOM      4  C   UNL     1       1.691   9.077  17.763  0.00  0.00    +0.000 A 
ATOM      5  C   UNL     1       0.623   9.881  18.185  0.00  0.00    +0.000 A 
ATOM      6  C   UNL     1       0.102   9.803  19.484  0.00  0.00    +0.000 A 
ENDROOT
BRANCH   3   7
ATOM      7  N   UNL     1       3.359   7.392  18.198  0.00  0.00    +0.000 N 
ATOM      8  C   UNL     1       3.326   6.035  17.911  0.00  0.00    +0.000 C 
ATOM      9  O   UNL     1       2.322   5.328  17.927  0.00  0.00    +0.000 OA
ATOM     10  H   UNL     1       4.237   7.869  18.027  0.00  0.00    +0.000 HD
BRANCH   8  11
ATOM     11  C   UNL     1       4.610   5.481  17.537  0.00  0.00    +0.000 A 
ATOM     12  C   UNL     1       5.615   4.941  18.323  0.00  0.00    +0.000 A 
ATOM     13  C   UNL     1       6.645   4.517  17.450  0.00  0.00    +0.000 A 
ATOM     14  C   UNL     1       6.205   4.840  16.190  0.00  0.00    +0.000 A 
ATOM     15  O   UNL     1       4.977   5.432  16.216  0.00  0.00    +0.000 OA
BRANCH  14  16
ATOM     16  N   UNL     1       6.785   4.663  14.898  0.00  0.00    +0.000 N 
ATOM     17  O   UNL     1       7.695   5.446  14.595  0.00  0.00    +0.000 OA
ATOM     18  O   UNL     1       6.343   3.751  14.188  0.00  0.00    +0.000 OA
ENDBRANCH  14  16
ENDBRANCH   8  11
ENDBRANCH   3   7
BRANCH   6  19
ATOM     19  N   UNL     1      -0.952  10.661  19.901  0.00  0.00    +0.000 N 
ATOM     20  C   UNL     1      -0.816  11.825  20.651  0.00  0.00    +0.000 C 
ATOM     21  O   UNL     1       0.260  12.353  20.935  0.00  0.00    +0.000 OA
ATOM     22  H   UNL     1      -1.891  10.413  19.601  0.00  0.00    +0.000 HD
BRANCH  20  23
ATOM     23  C   UNL     1      -2.058  12.429  21.091  0.00  0.00    +0.000 A 
ATOM     24  C   UNL     1      -3.225  12.684  20.390  0.00  0.00    +0.000 A 
ATOM     25  C   UNL     1      -4.127  13.290  21.298  0.00  0.00    +0.000 A 
ATOM     26  C   UNL     1      -3.449  13.377  22.490  0.00  0.00    +0.000 A 
ATOM     27  O   UNL     1      -2.197  12.860  22.380  0.00  0.00    +0.000 OA
ENDBRANCH  20  23
ENDBRANCH   6  19
BRANCH   1  29
ATOM     28  C   UNL     1       1.010   9.282  22.688  0.00  0.00    +0.000 C 
ATOM     29  O   UNL     1       0.173   8.737  21.649  0.00  0.00    +0.000 OA
ENDBRANCH   1  29
TORSDOF 6
ENDMDL
