MODEL 1
REMARK VINA RESULT:      -8.2      0.000      0.000
REMARK  Name = 
REMARK  6 active torsions:
REMARK  status: ('A' for Active; 'I' for Inactive)
REMARK    1  A    between atoms: C_1  and  N_2
REMARK    2  A    between atoms: C_4  and  C_5
REMARK    3  A    between atoms: C_8  and  C_9
REMARK    4  A    between atoms: C_11  and  N_12
REMARK    5  A    between atoms: C_15  and  C_16
REMARK    6  A    between atoms: C_16  and  O_17
REMARK                            x       y       z     vdW  Elec       q    Type
REMARK                         _______ _______ _______ _____ _____    ______ ____
ROOT
ATOM      1  C   UNL     1       2.004   7.286  19.669  0.00  0.00    +0.000 A 
ATOM      2  C   UNL     1       3.072   6.832  18.876  0.00  0.00    +0.000 A 
ATOM      3  C   UNL     1       3.547   5.509  19.011  0.00  0.00    +0.000 A 
ATOM      4  C   UNL     1       4.595   4.724  18.428  0.00  0.00    +0.000 A 
ATOM      5  N   UNL     1       4.574   3.468  18.923  0.00  0.00    +0.000 NA
ATOM      6  N   UNL     1       3.574   3.477  19.818  0.00  0.00    +0.000 N 
ATOM      7  C   UNL     1       2.923   4.672  19.928  0.00  0.00    +0.000 A 
ATOM      8  C   UNL     1       1.867   5.086  20.741  0.00  0.00    +0.000 A 
ATOM      9  C   UNL     1       1.424   6.403  20.588  0.00  0.00    +0.000 A 
ATOM     10  F   UNL     1       0.417   6.810  21.377  0.00  0.00    +0.000 F 
ATOM     11  H   UNL     1       3.386   2.625  20.332  0.00  0.00    +0.000 HD
ENDROOT
BRANCH   1  15
ATOM     12  C   UNL     1       0.166  11.794  20.640  0.00  0.00    +0.000 C 
ATOM     13  N   UNL     1       0.701  10.636  19.966  0.00  0.00    +0.000 N 
ATOM     14  C   UNL     1       1.058   9.452  20.539  0.00  0.00    +0.000 A 
ATOM     15  C   UNL     1       1.510   8.644  19.510  0.00  0.00    +0.000 A 
ATOM     16  C   UNL     1       1.368   9.452  18.358  0.00  0.00    +0.000 A 
ATOM     17  N   UNL     1       0.880  10.664  18.635  0.00  0.00    +0.000 NA
ENDBRANCH   1  15
BRANCH   4  18
ATOM     18  C   UNL     1       5.611   5.162  17.456  0.00  0.00    +0.000 A 
ATOM     19  C   UNL     1       5.718   4.545  16.226  0.00  0.00    +0.000 A 
ATOM     20  C   UNL     1       6.742   4.938  15.384  0.00  0.00    +0.000 A 
ATOM     21  N   UNL     1       7.602   5.896  15.774  0.00  0.00    +0.000 NA
ATOM     22  C   UNL     1       7.410   6.456  16.976  0.00  0.00    +0.000 A 
ATOM     23  N   UNL     1       6.452   6.139  17.846  0.00  0.00    +0.000 NA
BRANCH  20  24
ATOM     24  N   UNL     1       6.932   4.332  14.154  0.00  0.00    +0.000 N 
ATOM     25  C   UNL     1       7.890   4.883  13.201  0.00  0.00    +0.000 C 
ATOM     26  C   UNL     1       7.130   4.885  11.880  0.00  0.00    +0.000 C 
ATOM     27  C   UNL     1       6.190   3.682  11.989  0.00  0.00    +0.000 C 
ATOM     28  C   UNL     1       5.840   3.631  13.481  0.00  0.00    +0.000 C 
BRANCH  27  29
ATOM     29  C   UNL     1       6.822   2.381  11.506  0.00  0.00    +0.000 C 
BRANCH  29  30
ATOM     30  O   UNL     1       5.896   1.304  11.635  0.00  0.00    +0.000 OA
ATOM     31  H   UNL     1       5.483   1.163  10.765  0.00  0.00    +0.000 HD
ENDBRANCH  29  30
ENDBRANCH  27  29
ENDBRANCH  20  24
ENDBRANCH   4  18
TORSDOF 5
ENDMDL
MODEL 2
REMARK VINA RESULT:      -8.1      3.907      9.336
REMARK  Name = 
REMARK  6 active torsions:
REMARK  status: ('A' for Active; 'I' for Inactive)
REMARK    1  A    between atoms: C_1  and  N_2
REMARK    2  A    between atoms: C_4  and  C_5
REMARK    3  A    between atoms: C_8  and  C_9
REMARK    4  A    between atoms: C_11  and  N_12
REMARK    5  A    between atoms: C_15  and  C_16
REMARK    6  A    between atoms: C_16  and  O_17
REMARK                            x       y       z     vdW  Elec       q    Type
REMARK                         _______ _______ _______ _____ _____    ______ ____
ROOT
ATOM      1  C   UNL     1       4.551   5.005  17.894  0.00  0.00    +0.000 A 
ATOM      2  C   UNL     1       3.822   6.153  18.250  0.00  0.00    +0.000 A 
ATOM      3  C   UNL     1       2.944   6.124  19.355  0.00  0.00    +0.000 A 
ATOM      4  C   UNL     1       2.041   7.046  19.980  0.00  0.00    +0.000 A 
ATOM      5  N   UNL     1       1.461   6.479  21.059  0.00  0.00    +0.000 NA
ATOM      6  N   UNL     1       1.951   5.229  21.085  0.00  0.00    +0.000 N 
ATOM      7  C   UNL     1       2.837   4.948  20.086  0.00  0.00    +0.000 A 
ATOM      8  C   UNL     1       3.537   3.784  19.762  0.00  0.00    +0.000 A 
ATOM      9  C   UNL     1       4.393   3.842  18.658  0.00  0.00    +0.000 A 
ATOM     10  F   UNL     1       5.057   2.722  18.334  0.00  0.00    +0.000 F 
ATOM     11  H   UNL     1       1.632   4.607  21.819  0.00  0.00    +0.000 HD
ENDROOT
BRANCH   1  15
ATOM     12  C   UNL     1       6.637   4.196  13.463  0.00  0.00    +0.000 C 
ATOM     13  N   UNL     1       6.367   4.680  14.795  0.00  0.00    +0.000 N 
ATOM     14  C   UNL     1       5.302   4.352  15.581  0.00  0.00    +0.000 A 
ATOM     15  C   UNL     1       5.466   5.048  16.766  0.00  0.00    +0.000 A 
ATOM     16  C   UNL     1       6.675   5.758  16.577  0.00  0.00    +0.000 A 
ATOM     17  N   UNL     1       7.220   5.538  15.377  0.00  0.00    +0.000 NA
ENDBRANCH   1  15
BRANCH   4  18
ATOM     18  C   UNL     1       1.710   8.413  19.545  0.00  0.00    +0.000 A 
ATOM     19  C   UNL     1       0.936   9.235  20.341  0.00  0.00    +0.000 A 
ATOM     20  C   UNL     1       0.585  10.479  19.849  0.00  0.00    +0.000 A 
ATOM     21  N   UNL     1       0.993  10.857  18.625  0.00  0.00    +0.000 NA
ATOM     22  C   UNL     1       1.759  10.004  17.931  0.00  0.00    +0.000 A 
ATOM     23  N   UNL     1       2.144   8.792  18.328  0.00  0.00    +0.000 NA
BRANCH  20  24
ATOM     24  N   UNL     1      -0.223  11.336  20.577  0.00  0.00    +0.000 N 
ATOM     25  C   UNL     1      -0.159  12.777  20.353  0.00  0.00    +0.000 C 
ATOM     26  C   UNL     1      -0.103  13.361  21.759  0.00  0.00    +0.000 C 
ATOM     27  C   UNL     1      -0.905  12.372  22.607  0.00  0.00    +0.000 C 
ATOM     28  C   UNL     1      -0.621  11.017  21.947  0.00  0.00    +0.000 C 
BRANCH  27  29
ATOM     29  C   UNL     1      -2.397  12.686  22.646  0.00  0.00    +0.000 C 
BRANCH  29  30
ATOM     30  O   UNL     1      -3.078  11.744  23.472  0.00  0.00    +0.000 OA
ATOM     31  H   UNL     1      -3.715  12.235  24.020  0.00  0.00    +0.000 HD
ENDBRANCH  29  30
ENDBRANCH  27  29
ENDBRANCH  20  24
ENDBRANCH   4  18
TORSDOF 5
ENDMDL
MODEL 3
REMARK VINA RESULT:      -7.9      5.795     11.013
REMARK  Name = 
REMARK  6 active torsions:
REMARK  status: ('A' for Active; 'I' for Inactive)
REMARK    1  A    between atoms: C_1  and  N_2
REMARK    2  A    between atoms: C_4  and  C_5
REMARK    3  A    between atoms: C_8  and  C_9
REMARK    4  A    between atoms: C_11  and  N_12
REMARK    5  A    between atoms: C_15  and  C_16
REMARK    6  A    between atoms: C_16  and  O_17
REMARK                            x       y       z     vdW  Elec       q    Type
REMARK                         _______ _______ _______ _____ _____    ______ ____
ROOT
ATOM      1  C   UNL     1       2.615   6.520  19.166  0.00  0.00    +0.000 A 
ATOM      2  C   UNL     1       1.825   7.441  19.876  0.00  0.00    +0.000 A 
ATOM      3  C   UNL     1       1.599   8.734  19.357  0.00  0.00    +0.000 A 
ATOM      4  C   UNL     1       0.907   9.913  19.788  0.00  0.00    +0.000 A 
ATOM      5  N   UNL     1       0.995  10.880  18.851  0.00  0.00    +0.000 NA
ATOM      6  N   UNL     1       1.753  10.342  17.883  0.00  0.00    +0.000 N 
ATOM      7  C   UNL     1       2.158   9.062  18.127  0.00  0.00    +0.000 A 
ATOM      8  C   UNL     1       2.955   8.181  17.395  0.00  0.00    +0.000 A 
ATOM      9  C   UNL     1       3.166   6.910  17.939  0.00  0.00    +0.000 A 
ATOM     10  F   UNL     1       3.944   6.064  17.245  0.00  0.00    +0.000 F 
ATOM     11  H   UNL     1       1.967  10.910  17.072  0.00  0.00    +0.000 HD
ENDROOT
BRANCH   1  15
ATOM     12  C   UNL     1       2.077   2.320  21.757  0.00  0.00    +0.000 C 
ATOM     13  N   UNL     1       2.565   3.332  20.851  0.00  0.00    +0.000 N 
ATOM     14  C   UNL     1       2.026   4.566  20.641  0.00  0.00    +0.000 A 
ATOM     15  C   UNL     1       2.828   5.184  19.698  0.00  0.00    +0.000 A 
ATOM     16  C   UNL     1       3.828   4.222  19.421  0.00  0.00    +0.000 A 
ATOM     17  N   UNL     1       3.665   3.095  20.119  0.00  0.00    +0.000 NA
ENDBRANCH   1  15
BRANCH   4  18
ATOM     18  C   UNL     1       0.211  10.128  21.068  0.00  0.00    +0.000 A 
ATOM     19  C   UNL     1      -0.653  11.194  21.228  0.00  0.00    +0.000 A 
ATOM     20  C   UNL     1      -1.215  11.399  22.474  0.00  0.00    +0.000 A 
ATOM     21  N   UNL     1      -0.912  10.572  23.491  0.00  0.00    +0.000 NA
ATOM     22  C   UNL     1      -0.082   9.551  23.241  0.00  0.00    +0.000 A 
ATOM     23  N   UNL     1       0.502   9.281  22.074  0.00  0.00    +0.000 NA
BRANCH  20  24
ATOM     24  N   UNL     1      -2.056  12.471  22.714  0.00  0.00    +0.000 N 
ATOM     25  C   UNL     1      -1.551  13.838  22.628  0.00  0.00    +0.000 C 
ATOM     26  C   UNL     1      -2.099  14.507  23.883  0.00  0.00    +0.000 C 
ATOM     27  C   UNL     1      -3.430  13.795  24.135  0.00  0.00    +0.000 C 
ATOM     28  C   UNL     1      -3.169  12.363  23.655  0.00  0.00    +0.000 C 
BRANCH  27  29
ATOM     29  C   UNL     1      -4.603  14.438  23.403  0.00  0.00    +0.000 C 
BRANCH  29  30
ATOM     30  O   UNL     1      -5.400  15.192  24.314  0.00  0.00    +0.000 OA
ATOM     31  H   UNL     1      -5.666  16.013  23.866  0.00  0.00    +0.000 HD
ENDBRANCH  29  30
ENDBRANCH  27  29
ENDBRANCH  20  24
ENDBRANCH   4  18
TORSDOF 5
ENDMDL
MODEL 4
REMARK VINA RESULT:      -7.8      3.857      9.246
REMARK  Name = 
REMARK  6 active torsions:
REMARK  status: ('A' for Active; 'I' for Inactive)
REMARK    1  A    between atoms: C_1  and  N_2
REMARK    2  A    between atoms: C_4  and  C_5
REMARK    3  A    between atoms: C_8  and  C_9
REMARK    4  A    between atoms: C_11  and  N_12
REMARK    5  A    between atoms: C_15  and  C_16
REMARK    6  A    between atoms: C_16  and  O_17
REMARK                            x       y       z     vdW  Elec       q    Type
REMARK                         _______ _______ _______ _____ _____    ______ ____
ROOT
ATOM      1  C   UNL     1       4.415   4.218  17.641  0.00  0.00    +0.000 A 
ATOM      2  C   UNL     1       3.774   5.364  18.142  0.00  0.00    +0.000 A 
ATOM      3  C   UNL     1       2.805   5.250  19.162  0.00  0.00    +0.000 A 
ATOM      4  C   UNL     1       1.946   6.148  19.876  0.00  0.00    +0.000 A 
ATOM      5  N   UNL     1       1.223   5.477  20.797  0.00  0.00    +0.000 NA
ATOM      6  N   UNL     1       1.583   4.194  20.637  0.00  0.00    +0.000 N 
ATOM      7  C   UNL     1       2.521   3.986  19.667  0.00  0.00    +0.000 A 
ATOM      8  C   UNL     1       3.128   2.823  19.192  0.00  0.00    +0.000 A 
ATOM      9  C   UNL     1       4.078   2.969  18.176  0.00  0.00    +0.000 A 
ATOM     10  F   UNL     1       4.655   1.851  17.707  0.00  0.00    +0.000 F 
ATOM     11  H   UNL     1       1.143   3.497  21.226  0.00  0.00    +0.000 HD
ENDROOT
BRANCH   1  15
ATOM     12  C   UNL     1       6.676   4.256  13.221  0.00  0.00    +0.000 C 
ATOM     13  N   UNL     1       6.402   4.364  14.634  0.00  0.00    +0.000 N 
ATOM     14  C   UNL     1       5.211   4.122  15.254  0.00  0.00    +0.000 A 
ATOM     15  C   UNL     1       5.424   4.347  16.602  0.00  0.00    +0.000 A 
ATOM     16  C   UNL     1       6.789   4.713  16.674  0.00  0.00    +0.000 A 
ATOM     17  N   UNL     1       7.382   4.727  15.477  0.00  0.00    +0.000 NA
ENDBRANCH   1  15
BRANCH   4  18
ATOM     18  C   UNL     1       1.789   7.597  19.666  0.00  0.00    +0.000 A 
ATOM     19  C   UNL     1       1.261   8.398  20.659  0.00  0.00    +0.000 A 
ATOM     20  C   UNL     1       1.057   9.737  20.381  0.00  0.00    +0.000 A 
ATOM     21  N   UNL     1       1.370  10.226  19.168  0.00  0.00    +0.000 NA
ATOM     22  C   UNL     1       1.898   9.382  18.271  0.00  0.00    +0.000 A 
ATOM     23  N   UNL     1       2.128   8.082  18.456  0.00  0.00    +0.000 NA
BRANCH  20  24
ATOM     24  N   UNL     1       0.493  10.586  21.317  0.00  0.00    +0.000 N 
ATOM     25  C   UNL     1       0.252  10.124  22.681  0.00  0.00    +0.000 C 
ATOM     26  C   UNL     1      -1.167  10.595  22.978  0.00  0.00    +0.000 C 
ATOM     27  C   UNL     1      -1.310  11.885  22.167  0.00  0.00    +0.000 C 
ATOM     28  C   UNL     1      -0.457  11.624  20.921  0.00  0.00    +0.000 C 
BRANCH  27  29
ATOM     29  C   UNL     1      -0.847  13.126  22.926  0.00  0.00    +0.000 C 
BRANCH  29  30
ATOM     30  O   UNL     1       0.059  13.883  22.127  0.00  0.00    +0.000 OA
ATOM     31  H   UNL     1      -0.317  14.772  22.013  0.00  0.00    +0.000 HD
ENDBRANCH  29  30
ENDBRANCH  27  29
ENDBRANCH  20  24
ENDBRANCH   4  18
TORSDOF 5
ENDMDL
MODEL 5
REMARK VINA RESULT:      -7.8      5.493     10.826
REMARK  Name = 
REMARK  6 active torsions:
REMARK  status: ('A' for Active; 'I' for Inactive)
REMARK    1  A    between atoms: C_1  and  N_2
REMARK    2  A    between atoms: C_4  and  C_5
REMARK    3  A    between atoms: C_8  and  C_9
REMARK    4  A    between atoms: C_11  and  N_12
REMARK    5  A    between atoms: C_15  and  C_16
REMARK    6  A    between atoms: C_16  and  O_17
REMARK                            x       y       z     vdW  Elec       q    Type
REMARK                         _______ _______ _______ _____ _____    ______ ____
ROOT
ATOM      1  C   UNL     1       2.652   6.308  19.234  0.00  0.00    +0.000 A 
ATOM      2  C   UNL     1       1.884   7.269  19.914  0.00  0.00    +0.000 A 
ATOM      3  C   UNL     1       1.662   8.539  19.340  0.00  0.00    +0.000 A 
ATOM      4  C   UNL     1       0.990   9.744  19.728  0.00  0.00    +0.000 A 
ATOM      5  N   UNL     1       1.071  10.666  18.746  0.00  0.00    +0.000 NA
ATOM      6  N   UNL     1       1.807  10.076  17.791  0.00  0.00    +0.000 N 
ATOM      7  C   UNL     1       2.203   8.804  18.087  0.00  0.00    +0.000 A 
ATOM      8  C   UNL     1       2.977   7.881  17.382  0.00  0.00    +0.000 A 
ATOM      9  C   UNL     1       3.185   6.634  17.981  0.00  0.00    +0.000 A 
ATOM     10  F   UNL     1       3.941   5.749  17.313  0.00  0.00    +0.000 F 
ATOM     11  H   UNL     1       2.011  10.604  16.951  0.00  0.00    +0.000 HD
ENDROOT
BRANCH   1  15
ATOM     12  C   UNL     1       4.579   1.864  20.325  0.00  0.00    +0.000 C 
ATOM     13  N   UNL     1       3.736   3.036  20.296  0.00  0.00    +0.000 N 
ATOM     14  C   UNL     1       3.907   4.143  19.518  0.00  0.00    +0.000 A 
ATOM     15  C   UNL     1       2.861   4.996  19.824  0.00  0.00    +0.000 A 
ATOM     16  C   UNL     1       2.119   4.287  20.797  0.00  0.00    +0.000 A 
ATOM     17  N   UNL     1       2.653   3.097  21.087  0.00  0.00    +0.000 NA
ENDBRANCH   1  15
BRANCH   4  18
ATOM     18  C   UNL     1       0.320  10.026  21.009  0.00  0.00    +0.000 A 
ATOM     19  C   UNL     1      -0.463  11.153  21.159  0.00  0.00    +0.000 A 
ATOM     20  C   UNL     1      -1.001  11.414  22.406  0.00  0.00    +0.000 A 
ATOM     21  N   UNL     1      -0.753  10.582  23.433  0.00  0.00    +0.000 NA
ATOM     22  C   UNL     1       0.001   9.501  23.192  0.00  0.00    +0.000 A 
ATOM     23  N   UNL     1       0.556   9.173  22.025  0.00  0.00    +0.000 NA
BRANCH  20  24
ATOM     24  N   UNL     1      -1.762  12.548  22.636  0.00  0.00    +0.000 N 
ATOM     25  C   UNL     1      -1.123  13.792  23.054  0.00  0.00    +0.000 C 
ATOM     26  C   UNL     1      -1.995  14.278  24.205  0.00  0.00    +0.000 C 
ATOM     27  C   UNL     1      -3.397  13.778  23.850  0.00  0.00    +0.000 C 
ATOM     28  C   UNL     1      -3.134  12.450  23.130  0.00  0.00    +0.000 C 
BRANCH  27  29
ATOM     29  C   UNL     1      -4.180  14.754  22.978  0.00  0.00    +0.000 C 
BRANCH  29  30
ATOM     30  O   UNL     1      -4.854  14.053  21.935  0.00  0.00    +0.000 OA
ATOM     31  H   UNL     1      -5.775  13.916  22.216  0.00  0.00    +0.000 HD
ENDBRANCH  29  30
ENDBRANCH  27  29
ENDBRANCH  20  24
ENDBRANCH   4  18
TORSDOF 5
ENDMDL
MODEL 6
REMARK VINA RESULT:      -7.7      5.744     10.848
REMARK  Name = 
REMARK  6 active torsions:
REMARK  status: ('A' for Active; 'I' for Inactive)
REMARK    1  A    between atoms: C_1  and  N_2
REMARK    2  A    between atoms: C_4  and  C_5
REMARK    3  A    between atoms: C_8  and  C_9
REMARK    4  A    between atoms: C_11  and  N_12
REMARK    5  A    between atoms: C_15  and  C_16
REMARK    6  A    between atoms: C_16  and  O_17
REMARK                            x       y       z     vdW  Elec       q    Type
REMARK                         _______ _______ _______ _____ _____    ______ ____
ROOT
ATOM      1  C   UNL     1       2.585   6.502  19.200  0.00  0.00    +0.000 A 
ATOM      2  C   UNL     1       1.801   7.452  19.878  0.00  0.00    +0.000 A 
ATOM      3  C   UNL     1       1.616   8.741  19.334  0.00  0.00    +0.000 A 
ATOM      4  C   UNL     1       0.942   9.942  19.731  0.00  0.00    +0.000 A 
ATOM      5  N   UNL     1       1.074  10.892  18.781  0.00  0.00    +0.000 NA
ATOM      6  N   UNL     1       1.841  10.322  17.840  0.00  0.00    +0.000 N 
ATOM      7  C   UNL     1       2.211   9.037  18.113  0.00  0.00    +0.000 A 
ATOM      8  C   UNL     1       3.003   8.126  17.412  0.00  0.00    +0.000 A 
ATOM      9  C   UNL     1       3.173   6.860  17.980  0.00  0.00    +0.000 A 
ATOM     10  F   UNL     1       3.946   5.985  17.317  0.00  0.00    +0.000 F 
ATOM     11  H   UNL     1       2.086  10.872  17.025  0.00  0.00    +0.000 HD
ENDROOT
BRANCH   1  15
ATOM     12  C   UNL     1       1.870   2.342  21.813  0.00  0.00    +0.000 C 
ATOM     13  N   UNL     1       2.414   3.336  20.919  0.00  0.00    +0.000 N 
ATOM     14  C   UNL     1       1.901   4.575  20.670  0.00  0.00    +0.000 A 
ATOM     15  C   UNL     1       2.755   5.171  19.758  0.00  0.00    +0.000 A 
ATOM     16  C   UNL     1       3.754   4.192  19.540  0.00  0.00    +0.000 A 
ATOM     17  N   UNL     1       3.544   3.076  20.243  0.00  0.00    +0.000 NA
ENDBRANCH   1  15
BRANCH   4  18
ATOM     18  C   UNL     1       0.223  10.194  20.991  0.00  0.00    +0.000 A 
ATOM     19  C   UNL     1      -0.681  11.233  21.089  0.00  0.00    +0.000 A 
ATOM     20  C   UNL     1      -1.266  11.477  22.318  0.00  0.00    +0.000 A 
ATOM     21  N   UNL     1      -0.946  10.714  23.378  0.00  0.00    +0.000 NA
ATOM     22  C   UNL     1      -0.075   9.714  23.187  0.00  0.00    +0.000 A 
ATOM     23  N   UNL     1       0.532   9.408  22.041  0.00  0.00    +0.000 NA
BRANCH  20  24
ATOM     24  N   UNL     1      -2.150  12.528  22.495  0.00  0.00    +0.000 N 
ATOM     25  C   UNL     1      -3.320  12.370  23.353  0.00  0.00    +0.000 C 
ATOM     26  C   UNL     1      -4.458  12.960  22.528  0.00  0.00    +0.000 C 
ATOM     27  C   UNL     1      -3.788  14.060  21.701  0.00  0.00    +0.000 C 
ATOM     28  C   UNL     1      -2.384  13.506  21.434  0.00  0.00    +0.000 C 
BRANCH  27  29
ATOM     29  C   UNL     1      -3.743  15.407  22.416  0.00  0.00    +0.000 C 
BRANCH  29  30
ATOM     30  O   UNL     1      -4.908  15.577  23.221  0.00  0.00    +0.000 OA
ATOM     31  H   UNL     1      -4.892  16.482  23.579  0.00  0.00    +0.000 HD
ENDBRANCH  29  30
ENDBRANCH  27  29
ENDBRANCH  20  24
ENDBRANCH   4  18
TORSDOF 5
ENDMDL
MODEL 7
REMARK VINA RESULT:      -7.7      4.028      9.366
REMARK  Name = 
REMARK  6 active torsions:
REMARK  status: ('A' for Active; 'I' for Inactive)
REMARK    1  A    between atoms: C_1  and  N_2
REMARK    2  A    between atoms: C_4  and  C_5
REMARK    3  A    between atoms: C_8  and  C_9
REMARK    4  A    between atoms: C_11  and  N_12
REMARK    5  A    between atoms: C_15  and  C_16
REMARK    6  A    between atoms: C_16  and  O_17
REMARK                            x       y       z     vdW  Elec       q    Type
REMARK                         _______ _______ _______ _____ _____    ______ ____
ROOT
ATOM      1  C   UNL     1       4.564   5.030  17.874  0.00  0.00    +0.000 A 
ATOM      2  C   UNL     1       3.848   6.195  18.205  0.00  0.00    +0.000 A 
ATOM      3  C   UNL     1       2.963   6.198  19.304  0.00  0.00    +0.000 A 
ATOM      4  C   UNL     1       2.069   7.142  19.907  0.00  0.00    +0.000 A 
ATOM      5  N   UNL     1       1.473   6.602  20.991  0.00  0.00    +0.000 NA
ATOM      6  N   UNL     1       1.945   5.346  21.042  0.00  0.00    +0.000 N 
ATOM      7  C   UNL     1       2.834   5.035  20.055  0.00  0.00    +0.000 A 
ATOM      8  C   UNL     1       3.519   3.856  19.756  0.00  0.00    +0.000 A 
ATOM      9  C   UNL     1       4.384   3.883  18.657  0.00  0.00    +0.000 A 
ATOM     10  F   UNL     1       5.034   2.748  18.357  0.00  0.00    +0.000 F 
ATOM     11  H   UNL     1       1.612   4.741  21.784  0.00  0.00    +0.000 HD
ENDROOT
BRANCH   1  15
ATOM     12  C   UNL     1       6.617   4.205  13.431  0.00  0.00    +0.000 C 
ATOM     13  N   UNL     1       6.373   4.668  14.776  0.00  0.00    +0.000 N 
ATOM     14  C   UNL     1       5.283   4.393  15.546  0.00  0.00    +0.000 A 
ATOM     15  C   UNL     1       5.488   5.041  16.752  0.00  0.00    +0.000 A 
ATOM     16  C   UNL     1       6.745   5.669  16.590  0.00  0.00    +0.000 A 
ATOM     17  N   UNL     1       7.281   5.445  15.387  0.00  0.00    +0.000 NA
ENDBRANCH   1  15
BRANCH   4  18
ATOM     18  C   UNL     1       1.760   8.507  19.446  0.00  0.00    +0.000 A 
ATOM     19  C   UNL     1       1.021   9.364  20.237  0.00  0.00    +0.000 A 
ATOM     20  C   UNL     1       0.688  10.604  19.723  0.00  0.00    +0.000 A 
ATOM     21  N   UNL     1       1.081  10.944  18.482  0.00  0.00    +0.000 NA
ATOM     22  C   UNL     1       1.814  10.058  17.794  0.00  0.00    +0.000 A 
ATOM     23  N   UNL     1       2.179   8.847  18.212  0.00  0.00    +0.000 NA
BRANCH  20  24
ATOM     24  N   UNL     1      -0.086  11.496  20.446  0.00  0.00    +0.000 N 
ATOM     25  C   UNL     1      -0.020  11.515  21.903  0.00  0.00    +0.000 C 
ATOM     26  C   UNL     1      -1.481  11.558  22.333  0.00  0.00    +0.000 C 
ATOM     27  C   UNL     1      -2.177  12.331  21.210  0.00  0.00    +0.000 C 
ATOM     28  C   UNL     1      -1.392  11.932  19.956  0.00  0.00    +0.000 C 
BRANCH  27  29
ATOM     29  C   UNL     1      -2.174  13.841  21.430  0.00  0.00    +0.000 C 
BRANCH  29  30
ATOM     30  O   UNL     1      -3.509  14.340  21.453  0.00  0.00    +0.000 OA
ATOM     31  H   UNL     1      -4.101  13.619  21.176  0.00  0.00    +0.000 HD
ENDBRANCH  29  30
ENDBRANCH  27  29
ENDBRANCH  20  24
ENDBRANCH   4  18
TORSDOF 5
ENDMDL
MODEL 8
REMARK VINA RESULT:      -7.6      4.164      6.832
REMARK  Name = 
REMARK  6 active torsions:
REMARK  status: ('A' for Active; 'I' for Inactive)
REMARK    1  A    between atoms: C_1  and  N_2
REMARK    2  A    between atoms: C_4  and  C_5
REMARK    3  A    between atoms: C_8  and  C_9
REMARK    4  A    between atoms: C_11  and  N_12
REMARK    5  A    between atoms: C_15  and  C_16
REMARK    6  A    between atoms: C_16  and  O_17
REMARK                            x       y       z     vdW  Elec       q    Type
REMARK                         _______ _______ _______ _____ _____    ______ ____
ROOT
ATOM      1  C   UNL     1      -0.089  13.114  21.117  0.00  0.00    +0.000 A 
ATOM      2  C   UNL     1       0.328  11.862  20.629  0.00  0.00    +0.000 A 
ATOM      3  C   UNL     1       0.037  10.685  21.351  0.00  0.00    +0.000 A 
ATOM      4  C   UNL     1       0.315   9.286  21.200  0.00  0.00    +0.000 A 
ATOM      5  N   UNL     1      -0.250   8.583  22.203  0.00  0.00    +0.000 NA
ATOM      6  N   UNL     1      -0.825   9.512  22.983  0.00  0.00    +0.000 N 
ATOM      7  C   UNL     1      -0.682  10.793  22.535  0.00  0.00    +0.000 A 
ATOM      8  C   UNL     1      -1.107  12.016  23.058  0.00  0.00    +0.000 A 
ATOM      9  C   UNL     1      -0.798  13.165  22.323  0.00  0.00    +0.000 A 
ATOM     10  F   UNL     1      -1.193  14.344  22.829  0.00  0.00    +0.000 F 
ATOM     11  H   UNL     1      -1.303   9.203  23.821  0.00  0.00    +0.000 HD
ENDROOT
BRANCH   1  15
ATOM     12  C   UNL     1       2.022  17.324  19.549  0.00  0.00    +0.000 C 
ATOM     13  N   UNL     1       1.154  16.178  19.679  0.00  0.00    +0.000 N 
ATOM     14  C   UNL     1       1.233  15.200  20.625  0.00  0.00    +0.000 A 
ATOM     15  C   UNL     1       0.198  14.320  20.358  0.00  0.00    +0.000 A 
ATOM     16  C   UNL     1      -0.441  14.881  19.228  0.00  0.00    +0.000 A 
ATOM     17  N   UNL     1       0.142  16.008  18.813  0.00  0.00    +0.000 NA
ENDBRANCH   1  15
BRANCH   4  18
ATOM     18  C   UNL     1       1.123   8.639  20.152  0.00  0.00    +0.000 A 
ATOM     19  C   UNL     1       1.677   7.393  20.362  0.00  0.00    +0.000 A 
ATOM     20  C   UNL     1       2.496   6.867  19.380  0.00  0.00    +0.000 A 
ATOM     21  N   UNL     1       2.734   7.569  18.258  0.00  0.00    +0.000 NA
ATOM     22  C   UNL     1       2.137   8.761  18.128  0.00  0.00    +0.000 A 
ATOM     23  N   UNL     1       1.336   9.340  19.021  0.00  0.00    +0.000 NA
BRANCH  20  24
ATOM     24  N   UNL     1       3.116   5.640  19.544  0.00  0.00    +0.000 N 
ATOM     25  C   UNL     1       4.501   5.453  19.121  0.00  0.00    +0.000 C 
ATOM     26  C   UNL     1       4.473   4.131  18.363  0.00  0.00    +0.000 C 
ATOM     27  C   UNL     1       3.371   3.326  19.056  0.00  0.00    +0.000 C 
ATOM     28  C   UNL     1       2.356   4.394  19.479  0.00  0.00    +0.000 C 
BRANCH  27  29
ATOM     29  C   UNL     1       3.877   2.516  20.246  0.00  0.00    +0.000 C 
BRANCH  29  30
ATOM     30  O   UNL     1       5.211   2.072  20.010  0.00  0.00    +0.000 OA
ATOM     31  H   UNL     1       5.764   2.388  20.746  0.00  0.00    +0.000 HD
ENDBRANCH  29  30
ENDBRANCH  27  29
ENDBRANCH  20  24
ENDBRANCH   4  18
TORSDOF 5
ENDMDL
MODEL 9
REMARK VINA RESULT:      -7.6      4.661      7.143
REMARK  Name = 
REMARK  6 active torsions:
REMARK  status: ('A' for Active; 'I' for Inactive)
REMARK    1  A    between atoms: C_1  and  N_2
REMARK    2  A    between atoms: C_4  and  C_5
REMARK    3  A    between atoms: C_8  and  C_9
REMARK    4  A    between atoms: C_11  and  N_12
REMARK    5  A    between atoms: C_15  and  C_16
REMARK    6  A    between atoms: C_16  and  O_17
REMARK                            x       y       z     vdW  Elec       q    Type
REMARK                         _______ _______ _______ _____ _____    ______ ____
ROOT
ATOM      1  C   UNL     1      -2.162  11.148  18.481  0.00  0.00    +0.000 A 
ATOM      2  C   UNL     1      -1.075  10.265  18.607  0.00  0.00    +0.000 A 
ATOM      3  C   UNL     1      -0.251  10.310  19.752  0.00  0.00    +0.000 A 
ATOM      4  C   UNL     1       0.923   9.623  20.206  0.00  0.00    +0.000 A 
ATOM      5  N   UNL     1       1.280  10.061  21.432  0.00  0.00    +0.000 NA
ATOM      6  N   UNL     1       0.387  11.020  21.719  0.00  0.00    +0.000 N 
ATOM      7  C   UNL     1      -0.553  11.227  20.750  0.00  0.00    +0.000 A 
ATOM      8  C   UNL     1      -1.617  12.126  20.662  0.00  0.00    +0.000 A 
ATOM      9  C   UNL     1      -2.410  12.062  19.512  0.00  0.00    +0.000 A 
ATOM     10  F   UNL     1      -3.427  12.934  19.416  0.00  0.00    +0.000 F 
ATOM     11  H   UNL     1       0.476  11.507  22.603  0.00  0.00    +0.000 HD
ENDROOT
BRANCH   1  15
ATOM     12  C   UNL     1      -3.864  10.192  13.917  0.00  0.00    +0.000 C 
ATOM     13  N   UNL     1      -3.751  10.643  15.283  0.00  0.00    +0.000 N 
ATOM     14  C   UNL     1      -2.671  10.496  16.103  0.00  0.00    +0.000 A 
ATOM     15  C   UNL     1      -3.017  11.084  17.307  0.00  0.00    +0.000 A 
ATOM     16  C   UNL     1      -4.331  11.558  17.088  0.00  0.00    +0.000 A 
ATOM     17  N   UNL     1      -4.779  11.287  15.859  0.00  0.00    +0.000 NA
ENDBRANCH   1  15
BRANCH   4  18
ATOM     18  C   UNL     1       1.705   8.606  19.483  0.00  0.00    +0.000 A 
ATOM     19  C   UNL     1       1.825   7.325  19.983  0.00  0.00    +0.000 A 
ATOM     20  C   UNL     1       2.639   6.433  19.309  0.00  0.00    +0.000 A 
ATOM     21  N   UNL     1       3.289   6.824  18.199  0.00  0.00    +0.000 NA
ATOM     22  C   UNL     1       3.098   8.080  17.773  0.00  0.00    +0.000 A 
ATOM     23  N   UNL     1       2.334   9.001  18.358  0.00  0.00    +0.000 NA
BRANCH  20  24
ATOM     24  N   UNL     1       2.835   5.146  19.779  0.00  0.00    +0.000 N 
ATOM     25  C   UNL     1       3.960   4.350  19.298  0.00  0.00    +0.000 C 
ATOM     26  C   UNL     1       3.339   2.993  18.989  0.00  0.00    +0.000 C 
ATOM     27  C   UNL     1       2.199   2.865  20.002  0.00  0.00    +0.000 C 
ATOM     28  C   UNL     1       1.707   4.306  20.176  0.00  0.00    +0.000 C 
BRANCH  27  29
ATOM     29  C   UNL     1       2.639   2.248  21.326  0.00  0.00    +0.000 C 
BRANCH  29  30
ATOM     30  O   UNL     1       2.327   3.124  22.406  0.00  0.00    +0.000 OA
ATOM     31  H   UNL     1       2.205   4.017  22.039  0.00  0.00    +0.000 HD
ENDBRANCH  29  30
ENDBRANCH  27  29
ENDBRANCH  20  24
ENDBRANCH   4  18
TORSDOF 5
ENDMDL
