MODEL 1
REMARK VINA RESULT:      -7.1      0.000      0.000
REMARK  Name = 
REMARK  11 active torsions:
REMARK  status: ('A' for Active; 'I' for Inactive)
REMARK    1  A    between atoms: C_1  and  C_2
REMARK    2  A    between atoms: C_2  and  C_3
REMARK    3  A    between atoms: C_2  and  C_4
REMARK    4  A    between atoms: C_4  and  N_5
REMARK    5  A    between atoms: C_7  and  C_8
REMARK    6  A    between atoms: N_10  and  C_11
REMARK    7  A    between atoms: C_11  and  C_12
REMARK    8  A    between atoms: C_12  and  C_13
REMARK    9  A    between atoms: C_13  and  N_14
REMARK   10  A    between atoms: C_17  and  C_18
REMARK   11  A    between atoms: N_28  and  C_29
REMARK                            x       y       z     vdW  Elec       q    Type
REMARK                         _______ _______ _______ _____ _____    ______ ____
ROOT
ATOM      1  N   UNL     1      -2.476  12.897  22.144  0.00  0.00    +0.000 N 
ATOM      2  C   UNL     1      -1.320  12.232  21.694  0.00  0.00    +0.000 A 
ATOM      3  C   UNL     1      -1.194  11.695  20.453  0.00  0.00    +0.000 A 
ATOM      4  C   UNL     1      -2.325  11.771  19.552  0.00  0.00    +0.000 A 
ATOM      5  C   UNL     1      -2.603  11.302  18.223  0.00  0.00    +0.000 A 
ATOM      6  C   UNL     1      -1.898  10.608  17.208  0.00  0.00    +0.000 A 
ATOM      7  C   UNL     1      -2.503  10.283  15.989  0.00  0.00    +0.000 A 
ATOM      8  C   UNL     1      -3.822  10.629  15.749  0.00  0.00    +0.000 A 
ATOM      9  C   UNL     1      -4.554  11.311  16.718  0.00  0.00    +0.000 A 
ATOM     10  C   UNL     1      -3.939  11.642  17.933  0.00  0.00    +0.000 A 
ATOM     11  N   UNL     1      -4.438  12.307  19.043  0.00  0.00    +0.000 N 
ATOM     12  C   UNL     1      -5.788  12.817  19.174  0.00  0.00    +0.000 C 
ATOM     13  C   UNL     1      -3.473  12.400  20.015  0.00  0.00    +0.000 A 
ATOM     14  C   UNL     1      -3.613  13.030  21.313  0.00  0.00    +0.000 A 
ATOM     15  O   UNL     1      -4.624  13.624  21.665  0.00  0.00    +0.000 OA
ENDROOT
BRANCH   3  16
ATOM     16  C   UNL     1       0.143  11.109  20.050  0.00  0.00    +0.000 C 
ATOM     17  O   UNL     1       1.135  11.817  19.855  0.00  0.00    +0.000 OA
ATOM     18  N   UNL     1       0.264   9.746  19.917  0.00  0.00    +0.000 N 
ATOM     19  H   UNL     1      -0.517   9.122  20.086  0.00  0.00    +0.000 HD
BRANCH  18  20
ATOM     20  C   UNL     1       1.548   9.194  19.545  0.00  0.00    +0.000 C 
BRANCH  20  21
ATOM     21  C   UNL     1       1.657   8.927  18.059  0.00  0.00    +0.000 C 
BRANCH  21  22
ATOM     22  C   UNL     1       1.893   7.444  17.739  0.00  0.00    +0.000 C 
BRANCH  22  23
ATOM     23  N   UNL     1       2.960   6.916  18.594  0.00  0.00    +0.000 NA
ATOM     24  C   UNL     1       4.119   6.395  17.847  0.00  0.00    +0.000 C 
ATOM     25  C   UNL     1       3.938   4.997  17.252  0.00  0.00    +0.000 C 
ATOM     26  C   UNL     1       3.452   4.003  18.309  0.00  0.00    +0.000 C 
ATOM     27  C   UNL     1       3.175   2.634  17.701  0.00  0.00    +0.000 C 
ATOM     28  C   UNL     1       2.203   4.558  18.996  0.00  0.00    +0.000 C 
ATOM     29  C   UNL     1       2.482   5.943  19.580  0.00  0.00    +0.000 C 
ENDBRANCH  22  23
ENDBRANCH  21  22
ENDBRANCH  20  21
ENDBRANCH  18  20
ENDBRANCH   3  16
BRANCH   1  30
ATOM     30  C   UNL     1      -2.474  13.566  23.445  0.00  0.00    +0.000 C 
BRANCH  30  32
ATOM     31  C   UNL     1      -1.597  15.785  22.617  0.00  0.00    +0.000 C 
ATOM     32  C   UNL     1      -1.360  14.630  23.587  0.00  0.00    +0.000 C 
ATOM     33  C   UNL     1      -1.272  15.176  25.016  0.00  0.00    +0.000 C 
ENDBRANCH  30  32
ENDBRANCH   1  30
TORSDOF 7
ENDMDL
MODEL 2
REMARK VINA RESULT:      -7.0      2.496      3.130
REMARK  Name = 
REMARK  11 active torsions:
REMARK  status: ('A' for Active; 'I' for Inactive)
REMARK    1  A    between atoms: C_1  and  C_2
REMARK    2  A    between atoms: C_2  and  C_3
REMARK    3  A    between atoms: C_2  and  C_4
REMARK    4  A    between atoms: C_4  and  N_5
REMARK    5  A    between atoms: C_7  and  C_8
REMARK    6  A    between atoms: N_10  and  C_11
REMARK    7  A    between atoms: C_11  and  C_12
REMARK    8  A    between atoms: C_12  and  C_13
REMARK    9  A    between atoms: C_13  and  N_14
REMARK   10  A    between atoms: C_17  and  C_18
REMARK   11  A    between atoms: N_28  and  C_29
REMARK                            x       y       z     vdW  Elec       q    Type
REMARK                         _______ _______ _______ _____ _____    ______ ____
ROOT
ATOM      1  N   UNL     1       1.372  13.365  20.648  0.00  0.00    +0.000 N 
ATOM      2  C   UNL     1       1.826  12.266  19.896  0.00  0.00    +0.000 A 
ATOM      3  C   UNL     1       1.014  11.484  19.136  0.00  0.00    +0.000 A 
ATOM      4  C   UNL     1      -0.405  11.768  19.131  0.00  0.00    +0.000 A 
ATOM      5  C   UNL     1      -1.562  11.172  18.522  0.00  0.00    +0.000 A 
ATOM      6  C   UNL     1      -1.820  10.091  17.643  0.00  0.00    +0.000 A 
ATOM      7  C   UNL     1      -3.123   9.762  17.252  0.00  0.00    +0.000 A 
ATOM      8  C   UNL     1      -4.200  10.489  17.728  0.00  0.00    +0.000 A 
ATOM      9  C   UNL     1      -3.995  11.559  18.595  0.00  0.00    +0.000 A 
ATOM     10  C   UNL     1      -2.686  11.889  18.976  0.00  0.00    +0.000 A 
ATOM     11  N   UNL     1      -2.217  12.891  19.813  0.00  0.00    +0.000 N 
ATOM     12  C   UNL     1      -3.048  13.853  20.511  0.00  0.00    +0.000 C 
ATOM     13  C   UNL     1      -0.849  12.834  19.903  0.00  0.00    +0.000 A 
ATOM     14  C   UNL     1       0.003  13.717  20.675  0.00  0.00    +0.000 A 
ATOM     15  O   UNL     1      -0.421  14.681  21.299  0.00  0.00    +0.000 OA
ENDROOT
BRANCH   3  16
ATOM     16  C   UNL     1       1.642  10.404  18.280  0.00  0.00    +0.000 C 
ATOM     17  O   UNL     1       2.421  10.669  17.361  0.00  0.00    +0.000 OA
ATOM     18  N   UNL     1       1.354   9.086  18.548  0.00  0.00    +0.000 N 
ATOM     19  H   UNL     1       0.737   8.818  19.306  0.00  0.00    +0.000 HD
BRANCH  18  20
ATOM     20  C   UNL     1       1.970   8.061  17.734  0.00  0.00    +0.000 C 
BRANCH  20  21
ATOM     21  C   UNL     1       3.151   7.408  18.418  0.00  0.00    +0.000 C 
BRANCH  21  22
ATOM     22  C   UNL     1       3.735   6.242  17.608  0.00  0.00    +0.000 C 
BRANCH  22  23
ATOM     23  N   UNL     1       4.167   5.174  18.515  0.00  0.00    +0.000 NA
ATOM     24  C   UNL     1       4.278   3.853  17.872  0.00  0.00    +0.000 C 
ATOM     25  C   UNL     1       2.955   3.112  17.668  0.00  0.00    +0.000 C 
ATOM     26  C   UNL     1       2.153   3.043  18.970  0.00  0.00    +0.000 C 
ATOM     27  C   UNL     1       0.792   2.393  18.752  0.00  0.00    +0.000 C 
ATOM     28  C   UNL     1       2.000   4.449  19.552  0.00  0.00    +0.000 C 
ATOM     29  C   UNL     1       3.369   5.102  19.743  0.00  0.00    +0.000 C 
ENDBRANCH  22  23
ENDBRANCH  21  22
ENDBRANCH  20  21
ENDBRANCH  18  20
ENDBRANCH   3  16
BRANCH   1  30
ATOM     30  C   UNL     1       2.335  14.234  21.324  0.00  0.00    +0.000 C 
BRANCH  30  32
ATOM     31  C   UNL     1       2.912  15.827  19.451  0.00  0.00    +0.000 C 
ATOM     32  C   UNL     1       3.455  14.754  20.392  0.00  0.00    +0.000 C 
ATOM     33  C   UNL     1       4.638  15.321  21.183  0.00  0.00    +0.000 C 
ENDBRANCH  30  32
ENDBRANCH   1  30
TORSDOF 7
ENDMDL
MODEL 3
REMARK VINA RESULT:      -6.9      2.346      2.959
REMARK  Name = 
REMARK  11 active torsions:
REMARK  status: ('A' for Active; 'I' for Inactive)
REMARK    1  A    between atoms: C_1  and  C_2
REMARK    2  A    between atoms: C_2  and  C_3
REMARK    3  A    between atoms: C_2  and  C_4
REMARK    4  A    between atoms: C_4  and  N_5
REMARK    5  A    between atoms: C_7  and  C_8
REMARK    6  A    between atoms: N_10  and  C_11
REMARK    7  A    between atoms: C_11  and  C_12
REMARK    8  A    between atoms: C_12  and  C_13
REMARK    9  A    between atoms: C_13  and  N_14
REMARK   10  A    between atoms: C_17  and  C_18
REMARK   11  A    between atoms: N_28  and  C_29
REMARK                            x       y       z     vdW  Elec       q    Type
REMARK                         _______ _______ _______ _____ _____    ______ ____
ROOT
ATOM      1  N   UNL     1       0.785  13.698  21.113  0.00  0.00    +0.000 N 
ATOM      2  C   UNL     1       1.401  12.678  20.364  0.00  0.00    +0.000 A 
ATOM      3  C   UNL     1       0.731  11.859  19.511  0.00  0.00    +0.000 A 
ATOM      4  C   UNL     1      -0.704  12.013  19.395  0.00  0.00    +0.000 A 
ATOM      5  C   UNL     1      -1.745  11.340  18.669  0.00  0.00    +0.000 A 
ATOM      6  C   UNL     1      -1.827  10.280  17.733  0.00  0.00    +0.000 A 
ATOM      7  C   UNL     1      -3.057   9.850  17.220  0.00  0.00    +0.000 A 
ATOM      8  C   UNL     1      -4.233  10.455  17.629  0.00  0.00    +0.000 A 
ATOM      9  C   UNL     1      -4.201  11.501  18.547  0.00  0.00    +0.000 A 
ATOM     10  C   UNL     1      -2.965  11.932  19.049  0.00  0.00    +0.000 A 
ATOM     11  N   UNL     1      -2.663  12.936  19.958  0.00  0.00    +0.000 N 
ATOM     12  C   UNL     1      -3.635  13.787  20.615  0.00  0.00    +0.000 C 
ATOM     13  C   UNL     1      -1.308  12.999  20.162  0.00  0.00    +0.000 A 
ATOM     14  C   UNL     1      -0.609  13.922  21.035  0.00  0.00    +0.000 A 
ATOM     15  O   UNL     1      -1.171  14.817  21.654  0.00  0.00    +0.000 OA
ENDROOT
BRANCH   3  16
ATOM     16  C   UNL     1       1.527  10.878  18.675  0.00  0.00    +0.000 C 
ATOM     17  O   UNL     1       2.336  11.253  17.822  0.00  0.00    +0.000 OA
ATOM     18  N   UNL     1       1.358   9.530  18.884  0.00  0.00    +0.000 N 
ATOM     19  H   UNL     1       0.720   9.174  19.586  0.00  0.00    +0.000 HD
BRANCH  18  20
ATOM     20  C   UNL     1       2.132   8.601  18.090  0.00  0.00    +0.000 C 
BRANCH  20  21
ATOM     21  C   UNL     1       2.531   7.366  18.867  0.00  0.00    +0.000 C 
BRANCH  21  22
ATOM     22  C   UNL     1       2.946   6.201  17.956  0.00  0.00    +0.000 C 
BRANCH  22  23
ATOM     23  N   UNL     1       4.388   5.966  18.078  0.00  0.00    +0.000 NA
ATOM     24  C   UNL     1       5.204   6.771  17.153  0.00  0.00    +0.000 C 
ATOM     25  C   UNL     1       5.266   6.252  15.715  0.00  0.00    +0.000 C 
ATOM     26  C   UNL     1       5.659   4.773  15.676  0.00  0.00    +0.000 C 
ATOM     27  C   UNL     1       5.626   4.225  14.255  0.00  0.00    +0.000 C 
ATOM     28  C   UNL     1       4.730   3.974  16.591  0.00  0.00    +0.000 C 
ATOM     29  C   UNL     1       4.750   4.547  18.008  0.00  0.00    +0.000 C 
ENDBRANCH  22  23
ENDBRANCH  21  22
ENDBRANCH  20  21
ENDBRANCH  18  20
ENDBRANCH   3  16
BRANCH   1  30
ATOM     30  C   UNL     1       1.603  14.622  21.899  0.00  0.00    +0.000 C 
BRANCH  30  32
ATOM     31  C   UNL     1       3.771  15.259  20.770  0.00  0.00    +0.000 C 
ATOM     32  C   UNL     1       2.329  15.684  21.041  0.00  0.00    +0.000 C 
ATOM     33  C   UNL     1       1.612  15.929  19.709  0.00  0.00    +0.000 C 
ENDBRANCH  30  32
ENDBRANCH   1  30
TORSDOF 7
ENDMDL
MODEL 4
REMARK VINA RESULT:      -6.9      8.423     10.862
REMARK  Name = 
REMARK  11 active torsions:
REMARK  status: ('A' for Active; 'I' for Inactive)
REMARK    1  A    between atoms: C_1  and  C_2
REMARK    2  A    between atoms: C_2  and  C_3
REMARK    3  A    between atoms: C_2  and  C_4
REMARK    4  A    between atoms: C_4  and  N_5
REMARK    5  A    between atoms: C_7  and  C_8
REMARK    6  A    between atoms: N_10  and  C_11
REMARK    7  A    between atoms: C_11  and  C_12
REMARK    8  A    between atoms: C_12  and  C_13
REMARK    9  A    between atoms: C_13  and  N_14
REMARK   10  A    between atoms: C_17  and  C_18
REMARK   11  A    between atoms: N_28  and  C_29
REMARK                            x       y       z     vdW  Elec       q    Type
REMARK                         _______ _______ _______ _____ _____    ______ ____
ROOT
ATOM      1  N   UNL     1       8.782  13.202  22.745  0.00  0.00    +0.000 N 
ATOM      2  C   UNL     1       8.958  12.276  21.700  0.00  0.00    +0.000 A 
ATOM      3  C   UNL     1       9.523  12.587  20.504  0.00  0.00    +0.000 A 
ATOM      4  C   UNL     1       9.931  13.957  20.271  0.00  0.00    +0.000 A 
ATOM      5  C   UNL     1      10.501  14.677  19.166  0.00  0.00    +0.000 A 
ATOM      6  C   UNL     1      10.948  14.368  17.858  0.00  0.00    +0.000 A 
ATOM      7  C   UNL     1      11.452  15.356  17.005  0.00  0.00    +0.000 A 
ATOM      8  C   UNL     1      11.517  16.673  17.424  0.00  0.00    +0.000 A 
ATOM      9  C   UNL     1      11.089  17.024  18.702  0.00  0.00    +0.000 A 
ATOM     10  C   UNL     1      10.594  16.027  19.554  0.00  0.00    +0.000 A 
ATOM     11  N   UNL     1      10.113  16.110  20.853  0.00  0.00    +0.000 N 
ATOM     12  C   UNL     1      10.014  17.329  21.630  0.00  0.00    +0.000 C 
ATOM     13  C   UNL     1       9.724  14.871  21.295  0.00  0.00    +0.000 A 
ATOM     14  C   UNL     1       9.176  14.553  22.599  0.00  0.00    +0.000 A 
ATOM     15  O   UNL     1       9.059  15.377  23.497  0.00  0.00    +0.000 OA
ENDROOT
BRANCH   3  16
ATOM     16  C   UNL     1       9.763  11.474  19.505  0.00  0.00    +0.000 C 
ATOM     17  O   UNL     1      10.899  11.087  19.219  0.00  0.00    +0.000 OA
ATOM     18  N   UNL     1       8.683  10.861  18.914  0.00  0.00    +0.000 N 
ATOM     19  H   UNL     1       7.731  11.130  19.132  0.00  0.00    +0.000 HD
BRANCH  18  20
ATOM     20  C   UNL     1       8.922   9.790  17.972  0.00  0.00    +0.000 C 
BRANCH  20  21
ATOM     21  C   UNL     1       8.314   8.478  18.418  0.00  0.00    +0.000 C 
BRANCH  21  22
ATOM     22  C   UNL     1       7.634   7.719  17.270  0.00  0.00    +0.000 C 
BRANCH  22  23
ATOM     23  N   UNL     1       6.778   6.660  17.814  0.00  0.00    +0.000 NA
ATOM     24  C   UNL     1       7.334   5.305  17.661  0.00  0.00    +0.000 C 
ATOM     25  C   UNL     1       7.174   4.685  16.270  0.00  0.00    +0.000 C 
ATOM     26  C   UNL     1       5.720   4.759  15.796  0.00  0.00    +0.000 C 
ATOM     27  C   UNL     1       5.572   4.234  14.373  0.00  0.00    +0.000 C 
ATOM     28  C   UNL     1       5.221   6.200  15.901  0.00  0.00    +0.000 C 
ATOM     29  C   UNL     1       5.397   6.727  17.325  0.00  0.00    +0.000 C 
ENDBRANCH  22  23
ENDBRANCH  21  22
ENDBRANCH  20  21
ENDBRANCH  18  20
ENDBRANCH   3  16
BRANCH   1  30
ATOM     30  C   UNL     1       8.294  12.749  24.047  0.00  0.00    +0.000 C 
BRANCH  30  32
ATOM     31  C   UNL     1       6.638  11.324  25.315  0.00  0.00    +0.000 C 
ATOM     32  C   UNL     1       6.964  11.964  23.966  0.00  0.00    +0.000 C 
ATOM     33  C   UNL     1       5.798  12.858  23.534  0.00  0.00    +0.000 C 
ENDBRANCH  30  32
ENDBRANCH   1  30
TORSDOF 7
ENDMDL
MODEL 5
REMARK VINA RESULT:      -6.9      3.074     10.098
REMARK  Name = 
REMARK  11 active torsions:
REMARK  status: ('A' for Active; 'I' for Inactive)
REMARK    1  A    between atoms: C_1  and  C_2
REMARK    2  A    between atoms: C_2  and  C_3
REMARK    3  A    between atoms: C_2  and  C_4
REMARK    4  A    between atoms: C_4  and  N_5
REMARK    5  A    between atoms: C_7  and  C_8
REMARK    6  A    between atoms: N_10  and  C_11
REMARK    7  A    between atoms: C_11  and  C_12
REMARK    8  A    between atoms: C_12  and  C_13
REMARK    9  A    between atoms: C_13  and  N_14
REMARK   10  A    between atoms: C_17  and  C_18
REMARK   11  A    between atoms: N_28  and  C_29
REMARK                            x       y       z     vdW  Elec       q    Type
REMARK                         _______ _______ _______ _____ _____    ______ ____
ROOT
ATOM      1  N   UNL     1       5.496   6.245  16.939  0.00  0.00    +0.000 N 
ATOM      2  C   UNL     1       4.518   7.070  17.523  0.00  0.00    +0.000 A 
ATOM      3  C   UNL     1       3.439   6.597  18.200  0.00  0.00    +0.000 A 
ATOM      4  C   UNL     1       3.258   5.163  18.291  0.00  0.00    +0.000 A 
ATOM      5  C   UNL     1       2.262   4.295  18.855  0.00  0.00    +0.000 A 
ATOM      6  C   UNL     1       1.062   4.449  19.592  0.00  0.00    +0.000 A 
ATOM      7  C   UNL     1       0.296   3.343  19.981  0.00  0.00    +0.000 A 
ATOM      8  C   UNL     1       0.696   2.063  19.641  0.00  0.00    +0.000 A 
ATOM      9  C   UNL     1       1.868   1.863  18.917  0.00  0.00    +0.000 A 
ATOM     10  C   UNL     1       2.635   2.974  18.539  0.00  0.00    +0.000 A 
ATOM     11  N   UNL     1       3.823   3.048  17.826  0.00  0.00    +0.000 N 
ATOM     12  C   UNL     1       4.547   1.913  17.290  0.00  0.00    +0.000 C 
ATOM     13  C   UNL     1       4.210   4.357  17.683  0.00  0.00    +0.000 A 
ATOM     14  C   UNL     1       5.399   4.836  17.005  0.00  0.00    +0.000 A 
ATOM     15  O   UNL     1       6.246   4.091  16.528  0.00  0.00    +0.000 OA
ENDROOT
BRANCH   3  16
ATOM     16  C   UNL     1       2.520   7.589  18.884  0.00  0.00    +0.000 C 
ATOM     17  O   UNL     1       2.154   7.441  20.053  0.00  0.00    +0.000 OA
ATOM     18  N   UNL     1       2.098   8.698  18.190  0.00  0.00    +0.000 N 
ATOM     19  H   UNL     1       2.389   8.874  17.235  0.00  0.00    +0.000 HD
BRANCH  18  20
ATOM     20  C   UNL     1       1.233   9.647  18.856  0.00  0.00    +0.000 C 
BRANCH  20  21
ATOM     21  C   UNL     1      -0.108   9.791  18.170  0.00  0.00    +0.000 C 
BRANCH  21  22
ATOM     22  C   UNL     1      -1.142  10.524  19.036  0.00  0.00    +0.000 C 
BRANCH  22  23
ATOM     23  N   UNL     1      -1.710  11.649  18.286  0.00  0.00    +0.000 NA
ATOM     24  C   UNL     1      -2.581  12.523  19.090  0.00  0.00    +0.000 C 
ATOM     25  C   UNL     1      -3.999  11.996  19.324  0.00  0.00    +0.000 C 
ATOM     26  C   UNL     1      -4.663  11.591  18.006  0.00  0.00    +0.000 C 
ATOM     27  C   UNL     1      -6.037  10.974  18.241  0.00  0.00    +0.000 C 
ATOM     28  C   UNL     1      -3.752  10.623  17.251  0.00  0.00    +0.000 C 
ATOM     29  C   UNL     1      -2.369  11.240  17.042  0.00  0.00    +0.000 C 
ENDBRANCH  22  23
ENDBRANCH  21  22
ENDBRANCH  20  21
ENDBRANCH  18  20
ENDBRANCH   3  16
BRANCH   1  30
ATOM     30  C   UNL     1       6.696   6.840  16.351  0.00  0.00    +0.000 C 
BRANCH  30  32
ATOM     31  C   UNL     1       7.758   8.671  17.729  0.00  0.00    +0.000 C 
ATOM     32  C   UNL     1       7.787   7.182  17.393  0.00  0.00    +0.000 C 
ATOM     33  C   UNL     1       7.624   6.366  18.679  0.00  0.00    +0.000 C 
ENDBRANCH  30  32
ENDBRANCH   1  30
TORSDOF 7
ENDMDL
MODEL 6
REMARK VINA RESULT:      -6.9      1.476      1.936
REMARK  Name = 
REMARK  11 active torsions:
REMARK  status: ('A' for Active; 'I' for Inactive)
REMARK    1  A    between atoms: C_1  and  C_2
REMARK    2  A    between atoms: C_2  and  C_3
REMARK    3  A    between atoms: C_2  and  C_4
REMARK    4  A    between atoms: C_4  and  N_5
REMARK    5  A    between atoms: C_7  and  C_8
REMARK    6  A    between atoms: N_10  and  C_11
REMARK    7  A    between atoms: C_11  and  C_12
REMARK    8  A    between atoms: C_12  and  C_13
REMARK    9  A    between atoms: C_13  and  N_14
REMARK   10  A    between atoms: C_17  and  C_18
REMARK   11  A    between atoms: N_28  and  C_29
REMARK                            x       y       z     vdW  Elec       q    Type
REMARK                         _______ _______ _______ _____ _____    ______ ____
ROOT
ATOM      1  N   UNL     1      -3.619  13.045  21.310  0.00  0.00    +0.000 N 
ATOM      2  C   UNL     1      -2.363  12.413  21.257  0.00  0.00    +0.000 A 
ATOM      3  C   UNL     1      -1.909  11.727  20.175  0.00  0.00    +0.000 A 
ATOM      4  C   UNL     1      -2.780  11.601  19.025  0.00  0.00    +0.000 A 
ATOM      5  C   UNL     1      -2.698  10.941  17.751  0.00  0.00    +0.000 A 
ATOM      6  C   UNL     1      -1.736  10.173  17.051  0.00  0.00    +0.000 A 
ATOM      7  C   UNL     1      -2.003   9.647  15.782  0.00  0.00    +0.000 A 
ATOM      8  C   UNL     1      -3.232   9.861  15.182  0.00  0.00    +0.000 A 
ATOM      9  C   UNL     1      -4.209  10.609  15.833  0.00  0.00    +0.000 A 
ATOM     10  C   UNL     1      -3.931  11.141  17.100  0.00  0.00    +0.000 A 
ATOM     11  N   UNL     1      -4.717  11.909  17.946  0.00  0.00    +0.000 N 
ATOM     12  C   UNL     1      -6.075  12.332  17.670  0.00  0.00    +0.000 C 
ATOM     13  C   UNL     1      -4.031  12.200  19.099  0.00  0.00    +0.000 A 
ATOM     14  C   UNL     1      -4.516  12.984  20.218  0.00  0.00    +0.000 A 
ATOM     15  O   UNL     1      -5.605  13.544  20.223  0.00  0.00    +0.000 OA
ENDROOT
BRANCH   3  16
ATOM     16  C   UNL     1      -0.492  11.192  20.199  0.00  0.00    +0.000 C 
ATOM     17  O   UNL     1       0.486  11.926  20.033  0.00  0.00    +0.000 OA
ATOM     18  N   UNL     1      -0.287   9.853  20.432  0.00  0.00    +0.000 N 
ATOM     19  H   UNL     1      -1.057   9.215  20.594  0.00  0.00    +0.000 HD
BRANCH  18  20
ATOM     20  C   UNL     1       1.071   9.354  20.467  0.00  0.00    +0.000 C 
BRANCH  20  21
ATOM     21  C   UNL     1       1.434   8.574  19.222  0.00  0.00    +0.000 C 
BRANCH  21  22
ATOM     22  C   UNL     1       2.252   7.312  19.531  0.00  0.00    +0.000 C 
BRANCH  22  23
ATOM     23  N   UNL     1       2.590   6.622  18.282  0.00  0.00    +0.000 NA
ATOM     24  C   UNL     1       1.851   5.363  18.078  0.00  0.00    +0.000 C 
ATOM     25  C   UNL     1       2.385   4.159  18.859  0.00  0.00    +0.000 C 
ATOM     26  C   UNL     1       3.888   3.977  18.637  0.00  0.00    +0.000 C 
ATOM     27  C   UNL     1       4.443   2.841  19.488  0.00  0.00    +0.000 C 
ATOM     28  C   UNL     1       4.612   5.290  18.939  0.00  0.00    +0.000 C 
ATOM     29  C   UNL     1       4.031   6.428  18.100  0.00  0.00    +0.000 C 
ENDBRANCH  22  23
ENDBRANCH  21  22
ENDBRANCH  20  21
ENDBRANCH  18  20
ENDBRANCH   3  16
BRANCH   1  30
ATOM     30  C   UNL     1      -3.968  13.879  22.460  0.00  0.00    +0.000 C 
BRANCH  30  32
ATOM     31  C   UNL     1      -4.219  12.652  24.653  0.00  0.00    +0.000 C 
ATOM     32  C   UNL     1      -4.959  13.200  23.434  0.00  0.00    +0.000 C 
ATOM     33  C   UNL     1      -6.056  14.163  23.896  0.00  0.00    +0.000 C 
ENDBRANCH  30  32
ENDBRANCH   1  30
TORSDOF 7
ENDMDL
MODEL 7
REMARK VINA RESULT:      -6.9      2.080      4.965
REMARK  Name = 
REMARK  11 active torsions:
REMARK  status: ('A' for Active; 'I' for Inactive)
REMARK    1  A    between atoms: C_1  and  C_2
REMARK    2  A    between atoms: C_2  and  C_3
REMARK    3  A    between atoms: C_2  and  C_4
REMARK    4  A    between atoms: C_4  and  N_5
REMARK    5  A    between atoms: C_7  and  C_8
REMARK    6  A    between atoms: N_10  and  C_11
REMARK    7  A    between atoms: C_11  and  C_12
REMARK    8  A    between atoms: C_12  and  C_13
REMARK    9  A    between atoms: C_13  and  N_14
REMARK   10  A    between atoms: C_17  and  C_18
REMARK   11  A    between atoms: N_28  and  C_29
REMARK                            x       y       z     vdW  Elec       q    Type
REMARK                         _______ _______ _______ _____ _____    ______ ____
ROOT
ATOM      1  N   UNL     1      -2.472  10.828  18.367  0.00  0.00    +0.000 N 
ATOM      2  C   UNL     1      -1.212  10.267  18.088  0.00  0.00    +0.000 A 
ATOM      3  C   UNL     1      -0.044  10.747  18.592  0.00  0.00    +0.000 A 
ATOM      4  C   UNL     1      -0.090  11.927  19.430  0.00  0.00    +0.000 A 
ATOM      5  C   UNL     1       0.888  12.744  20.093  0.00  0.00    +0.000 A 
ATOM      6  C   UNL     1       2.295  12.738  20.255  0.00  0.00    +0.000 A 
ATOM      7  C   UNL     1       2.952  13.739  20.980  0.00  0.00    +0.000 A 
ATOM      8  C   UNL     1       2.233  14.773  21.552  0.00  0.00    +0.000 A 
ATOM      9  C   UNL     1       0.847  14.821  21.419  0.00  0.00    +0.000 A 
ATOM     10  C   UNL     1       0.195  13.810  20.700  0.00  0.00    +0.000 A 
ATOM     11  N   UNL     1      -1.152  13.627  20.425  0.00  0.00    +0.000 N 
ATOM     12  C   UNL     1      -2.219  14.511  20.849  0.00  0.00    +0.000 C 
ATOM     13  C   UNL     1      -1.334  12.493  19.673  0.00  0.00    +0.000 A 
ATOM     14  C   UNL     1      -2.598  11.968  19.195  0.00  0.00    +0.000 A 
ATOM     15  O   UNL     1      -3.681  12.465  19.476  0.00  0.00    +0.000 OA
ENDROOT
BRANCH   3  16
ATOM     16  C   UNL     1       1.234   9.983  18.311  0.00  0.00    +0.000 C 
ATOM     17  O   UNL     1       2.117  10.436  17.578  0.00  0.00    +0.000 OA
ATOM     18  N   UNL     1       1.427   8.759  18.906  0.00  0.00    +0.000 N 
ATOM     19  H   UNL     1       0.740   8.355  19.532  0.00  0.00    +0.000 HD
BRANCH  18  20
ATOM     20  C   UNL     1       2.656   8.045  18.643  0.00  0.00    +0.000 C 
BRANCH  20  21
ATOM     21  C   UNL     1       2.423   6.732  17.927  0.00  0.00    +0.000 C 
BRANCH  21  22
ATOM     22  C   UNL     1       3.485   5.676  18.264  0.00  0.00    +0.000 C 
BRANCH  22  23
ATOM     23  N   UNL     1       2.985   4.341  17.918  0.00  0.00    +0.000 NA
ATOM     24  C   UNL     1       1.543   4.162  18.162  0.00  0.00    +0.000 C 
ATOM     25  C   UNL     1       1.155   3.902  19.619  0.00  0.00    +0.000 C 
ATOM     26  C   UNL     1       1.978   2.758  20.216  0.00  0.00    +0.000 C 
ATOM     27  C   UNL     1       1.665   2.559  21.694  0.00  0.00    +0.000 C 
ATOM     28  C   UNL     1       3.467   3.034  20.004  0.00  0.00    +0.000 C 
ATOM     29  C   UNL     1       3.766   3.258  18.522  0.00  0.00    +0.000 C 
ENDBRANCH  22  23
ENDBRANCH  21  22
ENDBRANCH  20  21
ENDBRANCH  18  20
ENDBRANCH   3  16
BRANCH   1  30
ATOM     30  C   UNL     1      -3.687  10.163  17.896  0.00  0.00    +0.000 C 
BRANCH  30  32
ATOM     31  C   UNL     1      -5.070  11.866  16.645  0.00  0.00    +0.000 C 
ATOM     32  C   UNL     1      -4.155  10.651  16.505  0.00  0.00    +0.000 C 
ATOM     33  C   UNL     1      -2.974  11.006  15.597  0.00  0.00    +0.000 C 
ENDBRANCH  30  32
ENDBRANCH   1  30
TORSDOF 7
ENDMDL
MODEL 8
REMARK VINA RESULT:      -6.9      0.974      1.380
REMARK  Name = 
REMARK  11 active torsions:
REMARK  status: ('A' for Active; 'I' for Inactive)
REMARK    1  A    between atoms: C_1  and  C_2
REMARK    2  A    between atoms: C_2  and  C_3
REMARK    3  A    between atoms: C_2  and  C_4
REMARK    4  A    between atoms: C_4  and  N_5
REMARK    5  A    between atoms: C_7  and  C_8
REMARK    6  A    between atoms: N_10  and  C_11
REMARK    7  A    between atoms: C_11  and  C_12
REMARK    8  A    between atoms: C_12  and  C_13
REMARK    9  A    between atoms: C_13  and  N_14
REMARK   10  A    between atoms: C_17  and  C_18
REMARK   11  A    between atoms: N_28  and  C_29
REMARK                            x       y       z     vdW  Elec       q    Type
REMARK                         _______ _______ _______ _____ _____    ______ ____
ROOT
ATOM      1  N   UNL     1      -1.769  12.477  21.946  0.00  0.00    +0.000 N 
ATOM      2  C   UNL     1      -0.760  11.657  21.407  0.00  0.00    +0.000 A 
ATOM      3  C   UNL     1      -0.812  11.117  20.162  0.00  0.00    +0.000 A 
ATOM      4  C   UNL     1      -1.990  11.361  19.355  0.00  0.00    +0.000 A 
ATOM      5  C   UNL     1      -2.438  10.946  18.054  0.00  0.00    +0.000 A 
ATOM      6  C   UNL     1      -1.924  10.167  16.989  0.00  0.00    +0.000 A 
ATOM      7  C   UNL     1      -2.666   9.941  15.824  0.00  0.00    +0.000 A 
ATOM      8  C   UNL     1      -3.936  10.473  15.691  0.00  0.00    +0.000 A 
ATOM      9  C   UNL     1      -4.483  11.245  16.712  0.00  0.00    +0.000 A 
ATOM     10  C   UNL     1      -3.731  11.475  17.873  0.00  0.00    +0.000 A 
ATOM     11  N   UNL     1      -4.038  12.197  19.017  0.00  0.00    +0.000 N 
ATOM     12  C   UNL     1      -5.287  12.893  19.254  0.00  0.00    +0.000 C 
ATOM     13  C   UNL     1      -2.995  12.143  19.907  0.00  0.00    +0.000 A 
ATOM     14  C   UNL     1      -2.938  12.777  21.209  0.00  0.00    +0.000 A 
ATOM     15  O   UNL     1      -3.822  13.507  21.639  0.00  0.00    +0.000 OA
ENDROOT
BRANCH   3  16
ATOM     16  C   UNL     1       0.390  10.348  19.654  0.00  0.00    +0.000 C 
ATOM     17  O   UNL     1       1.244  10.873  18.935  0.00  0.00    +0.000 OA
ATOM     18  N   UNL     1       0.548   9.033  20.021  0.00  0.00    +0.000 N 
ATOM     19  H   UNL     1      -0.116   8.565  20.627  0.00  0.00    +0.000 HD
BRANCH  18  20
ATOM     20  C   UNL     1       1.707   8.312  19.543  0.00  0.00    +0.000 C 
BRANCH  20  21
ATOM     21  C   UNL     1       2.198   7.280  20.535  0.00  0.00    +0.000 C 
BRANCH  21  22
ATOM     22  C   UNL     1       1.997   5.840  20.041  0.00  0.00    +0.000 C 
BRANCH  22  23
ATOM     23  N   UNL     1       2.616   5.677  18.722  0.00  0.00    +0.000 NA
ATOM     24  C   UNL     1       1.842   4.826  17.801  0.00  0.00    +0.000 C 
ATOM     25  C   UNL     1       1.986   3.319  18.027  0.00  0.00    +0.000 C 
ATOM     26  C   UNL     1       3.459   2.905  18.079  0.00  0.00    +0.000 C 
ATOM     27  C   UNL     1       3.610   1.424  18.402  0.00  0.00    +0.000 C 
ATOM     28  C   UNL     1       4.195   3.766  19.106  0.00  0.00    +0.000 C 
ATOM     29  C   UNL     1       4.016   5.251  18.789  0.00  0.00    +0.000 C 
ENDBRANCH  22  23
ENDBRANCH  21  22
ENDBRANCH  20  21
ENDBRANCH  18  20
ENDBRANCH   3  16
BRANCH   1  30
ATOM     30  C   UNL     1      -1.566  13.129  23.240  0.00  0.00    +0.000 C 
BRANCH  30  32
ATOM     31  C   UNL     1      -0.427  14.765  21.690  0.00  0.00    +0.000 C 
ATOM     32  C   UNL     1      -0.818  14.479  23.138  0.00  0.00    +0.000 C 
ATOM     33  C   UNL     1      -1.660  15.640  23.676  0.00  0.00    +0.000 C 
ENDBRANCH  30  32
ENDBRANCH   1  30
TORSDOF 7
ENDMDL
MODEL 9
REMARK VINA RESULT:      -6.8      2.709      4.336
REMARK  Name = 
REMARK  11 active torsions:
REMARK  status: ('A' for Active; 'I' for Inactive)
REMARK    1  A    between atoms: C_1  and  C_2
REMARK    2  A    between atoms: C_2  and  C_3
REMARK    3  A    between atoms: C_2  and  C_4
REMARK    4  A    between atoms: C_4  and  N_5
REMARK    5  A    between atoms: C_7  and  C_8
REMARK    6  A    between atoms: N_10  and  C_11
REMARK    7  A    between atoms: C_11  and  C_12
REMARK    8  A    between atoms: C_12  and  C_13
REMARK    9  A    between atoms: C_13  and  N_14
REMARK   10  A    between atoms: C_17  and  C_18
REMARK   11  A    between atoms: N_28  and  C_29
REMARK                            x       y       z     vdW  Elec       q    Type
REMARK                         _______ _______ _______ _____ _____    ______ ____
ROOT
ATOM      1  N   UNL     1      -1.170  12.340  22.286  0.00  0.00    +0.000 N 
ATOM      2  C   UNL     1      -0.929  11.593  21.119  0.00  0.00    +0.000 A 
ATOM      3  C   UNL     1      -0.042  11.960  20.158  0.00  0.00    +0.000 A 
ATOM      4  C   UNL     1       0.667  13.213  20.318  0.00  0.00    +0.000 A 
ATOM      5  C   UNL     1       1.616  13.955  19.535  0.00  0.00    +0.000 A 
ATOM      6  C   UNL     1       2.298  13.778  18.306  0.00  0.00    +0.000 A 
ATOM      7  C   UNL     1       3.175  14.749  17.810  0.00  0.00    +0.000 A 
ATOM      8  C   UNL     1       3.390  15.921  18.514  0.00  0.00    +0.000 A 
ATOM      9  C   UNL     1       2.741  16.139  19.727  0.00  0.00    +0.000 A 
ATOM     10  C   UNL     1       1.871  15.157  20.222  0.00  0.00    +0.000 A 
ATOM     11  N   UNL     1       1.115  15.128  21.385  0.00  0.00    +0.000 N 
ATOM     12  C   UNL     1       1.068  16.184  22.377  0.00  0.00    +0.000 C 
ATOM     13  C   UNL     1       0.398  13.960  21.457  0.00  0.00    +0.000 A 
ATOM     14  C   UNL     1      -0.500  13.563  22.523  0.00  0.00    +0.000 A 
ATOM     15  O   UNL     1      -0.669  14.224  23.540  0.00  0.00    +0.000 OA
ENDROOT
BRANCH   3  16
ATOM     16  C   UNL     1       0.213  11.010  19.005  0.00  0.00    +0.000 C 
ATOM     17  O   UNL     1      -0.645  10.776  18.150  0.00  0.00    +0.000 OA
ATOM     18  N   UNL     1       1.443  10.406  18.896  0.00  0.00    +0.000 N 
ATOM     19  H   UNL     1       2.186  10.582  19.562  0.00  0.00    +0.000 HD
BRANCH  18  20
ATOM     20  C   UNL     1       1.681   9.511  17.784  0.00  0.00    +0.000 C 
BRANCH  20  21
ATOM     21  C   UNL     1       2.653   8.404  18.128  0.00  0.00    +0.000 C 
BRANCH  21  22
ATOM     22  C   UNL     1       1.959   7.167  18.715  0.00  0.00    +0.000 C 
BRANCH  22  23
ATOM     23  N   UNL     1       2.944   6.104  18.938  0.00  0.00    +0.000 NA
ATOM     24  C   UNL     1       3.104   5.189  17.794  0.00  0.00    +0.000 C 
ATOM     25  C   UNL     1       2.019   4.119  17.656  0.00  0.00    +0.000 C 
ATOM     26  C   UNL     1       1.823   3.357  18.969  0.00  0.00    +0.000 C 
ATOM     27  C   UNL     1       0.677   2.358  18.868  0.00  0.00    +0.000 C 
ATOM     28  C   UNL     1       1.582   4.351  20.106  0.00  0.00    +0.000 C 
ATOM     29  C   UNL     1       2.724   5.364  20.184  0.00  0.00    +0.000 C 
ENDBRANCH  22  23
ENDBRANCH  21  22
ENDBRANCH  20  21
ENDBRANCH  18  20
ENDBRANCH   3  16
BRANCH   1  30
ATOM     30  C   UNL     1      -2.038  11.799  23.333  0.00  0.00    +0.000 C 
BRANCH  30  32
ATOM     31  C   UNL     1      -3.813  13.245  24.399  0.00  0.00    +0.000 C 
ATOM     32  C   UNL     1      -3.498  12.299  23.241  0.00  0.00    +0.000 C 
ATOM     33  C   UNL     1      -3.776  13.010  21.913  0.00  0.00    +0.000 C 
ENDBRANCH  30  32
ENDBRANCH   1  30
TORSDOF 7
ENDMDL
