MODEL 1
REMARK VINA RESULT:      -7.5      0.000      0.000
REMARK  Name = 
REMARK  6 active torsions:
REMARK  status: ('A' for Active; 'I' for Inactive)
REMARK    1  A    between atoms: C_1  and  C_2
REMARK    2  A    between atoms: C_5  and  C_6
REMARK    3  A    between atoms: C_6  and  N_7
REMARK    4  A    between atoms: C_21  and  C_22
REMARK    5  A    between atoms: C_21  and  C_23
REMARK    6  A    between atoms: N_25  and  C_26
REMARK                            x       y       z     vdW  Elec       q    Type
REMARK                         _______ _______ _______ _____ _____    ______ ____
ROOT
ATOM      1  N   UNL     1      -0.071  10.260  20.817  0.00  0.00    +0.000 N 
ATOM      2  C   UNL     1       1.022   9.588  21.386  0.00  0.00    +0.000 C 
ATOM      3  O   UNL     1       1.415   9.840  22.525  0.00  0.00    +0.000 OA
ATOM      4  C   UNL     1       1.510   8.489  20.615  0.00  0.00    +0.000 A 
ATOM      5  O   UNL     1       1.669   7.293  21.254  0.00  0.00    +0.000 OA
ATOM      6  C   UNL     1       2.008   6.380  20.312  0.00  0.00    +0.000 A 
ATOM      7  C   UNL     1       2.173   5.018  20.550  0.00  0.00    +0.000 A 
ATOM      8  C   UNL     1       2.531   4.237  19.451  0.00  0.00    +0.000 A 
ATOM      9  C   UNL     1       2.731   4.811  18.193  0.00  0.00    +0.000 A 
ATOM     10  C   UNL     1       2.546   6.189  17.981  0.00  0.00    +0.000 A 
ATOM     11  C   UNL     1       2.150   6.988  19.067  0.00  0.00    +0.000 A 
ATOM     12  C   UNL     1       1.775   8.337  19.276  0.00  0.00    +0.000 A 
ATOM     13  O   UNL     1       1.705   9.333  18.365  0.00  0.00    +0.000 OA
ATOM     14  C   UNL     1       0.401   9.945  18.341  0.00  0.00    +0.000 C 
ATOM     15  C   UNL     1       0.106  10.978  19.492  0.00  0.00    +0.000 C 
ATOM     16  C   UNL     1       1.296  11.963  19.592  0.00  0.00    +0.000 C 
ENDROOT
BRANCH  15  17
ATOM     17  C   UNL     1      -1.127  11.838  19.004  0.00  0.00    +0.000 C 
ATOM     18  O   UNL     1      -1.065  13.066  18.911  0.00  0.00    +0.000 OA
ATOM     19  N   UNL     1      -2.307  11.173  18.730  0.00  0.00    +0.000 N 
ATOM     20  H   UNL     1      -2.424  10.217  19.038  0.00  0.00    +0.000 HD
BRANCH  19  21
ATOM     21  C   UNL     1      -3.470  11.853  18.182  0.00  0.00    +0.000 C 
ATOM     22  C   UNL     1      -4.280  10.979  17.227  0.00  0.00    +0.000 C 
ATOM     23  C   UNL     1      -5.621  11.697  17.136  0.00  0.00    +0.000 C 
ATOM     24  C   UNL     1      -5.816  12.382  18.489  0.00  0.00    +0.000 C 
ATOM     25  C   UNL     1      -4.497  12.224  19.248  0.00  0.00    +0.000 C 
ENDBRANCH  19  21
ENDBRANCH  15  17
BRANCH   1  26
ATOM     26  C   UNL     1      -1.121  10.544  21.783  0.00  0.00    +0.000 C 
BRANCH  26  31
ATOM     27  C   UNL     1      -2.356  15.775  24.031  0.00  0.00    +0.000 C 
ATOM     28  C   UNL     1      -2.038  14.501  23.307  0.00  0.00    +0.000 A 
ATOM     29  C   UNL     1      -3.043  13.592  22.981  0.00  0.00    +0.000 A 
ATOM     30  C   UNL     1      -2.716  12.353  22.428  0.00  0.00    +0.000 A 
ATOM     31  C   UNL     1      -1.378  11.988  22.172  0.00  0.00    +0.000 A 
ATOM     32  C   UNL     1      -0.392  12.947  22.412  0.00  0.00    +0.000 A 
ATOM     33  C   UNL     1      -0.715  14.181  22.992  0.00  0.00    +0.000 A 
ENDBRANCH  26  31
ENDBRANCH   1  26
TORSDOF 4
ENDMDL
MODEL 2
REMARK VINA RESULT:      -7.4      3.433      6.731
REMARK  Name = 
REMARK  6 active torsions:
REMARK  status: ('A' for Active; 'I' for Inactive)
REMARK    1  A    between atoms: C_1  and  C_2
REMARK    2  A    between atoms: C_5  and  C_6
REMARK    3  A    between atoms: C_6  and  N_7
REMARK    4  A    between atoms: C_21  and  C_22
REMARK    5  A    between atoms: C_21  and  C_23
REMARK    6  A    between atoms: N_25  and  C_26
REMARK                            x       y       z     vdW  Elec       q    Type
REMARK                         _______ _______ _______ _____ _____    ______ ____
ROOT
ATOM      1  N   UNL     1      -0.985  12.842  21.130  0.00  0.00    +0.000 N 
ATOM      2  C   UNL     1       0.395  12.607  21.240  0.00  0.00    +0.000 C 
ATOM      3  O   UNL     1       0.838  11.561  21.715  0.00  0.00    +0.000 OA
ATOM      4  C   UNL     1       1.216  13.586  20.600  0.00  0.00    +0.000 A 
ATOM      5  O   UNL     1       2.179  13.137  19.744  0.00  0.00    +0.000 OA
ATOM      6  C   UNL     1       2.735  14.227  19.163  0.00  0.00    +0.000 A 
ATOM      7  C   UNL     1       3.700  14.187  18.160  0.00  0.00    +0.000 A 
ATOM      8  C   UNL     1       4.157  15.419  17.691  0.00  0.00    +0.000 A 
ATOM      9  C   UNL     1       3.678  16.617  18.228  0.00  0.00    +0.000 A 
ATOM     10  C   UNL     1       2.695  16.626  19.233  0.00  0.00    +0.000 A 
ATOM     11  C   UNL     1       2.195  15.396  19.693  0.00  0.00    +0.000 A 
ATOM     12  C   UNL     1       1.182  14.959  20.581  0.00  0.00    +0.000 A 
ATOM     13  O   UNL     1       0.336  15.713  21.317  0.00  0.00    +0.000 OA
ATOM     14  C   UNL     1      -1.041  15.380  21.057  0.00  0.00    +0.000 C 
ATOM     15  C   UNL     1      -1.580  14.083  21.769  0.00  0.00    +0.000 C 
ATOM     16  C   UNL     1      -1.186  14.137  23.264  0.00  0.00    +0.000 C 
ENDROOT
BRANCH  15  17
ATOM     17  C   UNL     1      -3.157  14.187  21.734  0.00  0.00    +0.000 C 
ATOM     18  O   UNL     1      -3.761  14.557  20.725  0.00  0.00    +0.000 OA
ATOM     19  N   UNL     1      -3.846  13.899  22.897  0.00  0.00    +0.000 N 
ATOM     20  H   UNL     1      -3.344  13.838  23.773  0.00  0.00    +0.000 HD
BRANCH  19  21
ATOM     21  C   UNL     1      -5.299  13.869  22.949  0.00  0.00    +0.000 C 
ATOM     22  C   UNL     1      -5.841  12.829  23.927  0.00  0.00    +0.000 C 
ATOM     23  C   UNL     1      -7.286  13.261  24.144  0.00  0.00    +0.000 C 
ATOM     24  C   UNL     1      -7.290  14.783  23.987  0.00  0.00    +0.000 C 
ATOM     25  C   UNL     1      -5.902  15.168  23.476  0.00  0.00    +0.000 C 
ENDBRANCH  19  21
ENDBRANCH  15  17
BRANCH   1  26
ATOM     26  C   UNL     1      -1.734  11.642  20.788  0.00  0.00    +0.000 C 
BRANCH  26  31
ATOM     27  C   UNL     1      -3.004   9.759  15.424  0.00  0.00    +0.000 C 
ATOM     28  C   UNL     1      -2.611  10.374  16.734  0.00  0.00    +0.000 A 
ATOM     29  C   UNL     1      -1.436   9.994  17.380  0.00  0.00    +0.000 A 
ATOM     30  C   UNL     1      -1.153  10.476  18.659  0.00  0.00    +0.000 A 
ATOM     31  C   UNL     1      -2.025  11.361  19.326  0.00  0.00    +0.000 A 
ATOM     32  C   UNL     1      -3.147  11.808  18.626  0.00  0.00    +0.000 A 
ATOM     33  C   UNL     1      -3.448  11.305  17.354  0.00  0.00    +0.000 A 
ENDBRANCH  26  31
ENDBRANCH   1  26
TORSDOF 4
ENDMDL
MODEL 3
REMARK VINA RESULT:      -7.3      1.077      1.231
REMARK  Name = 
REMARK  6 active torsions:
REMARK  status: ('A' for Active; 'I' for Inactive)
REMARK    1  A    between atoms: C_1  and  C_2
REMARK    2  A    between atoms: C_5  and  C_6
REMARK    3  A    between atoms: C_6  and  N_7
REMARK    4  A    between atoms: C_21  and  C_22
REMARK    5  A    between atoms: C_21  and  C_23
REMARK    6  A    between atoms: N_25  and  C_26
REMARK                            x       y       z     vdW  Elec       q    Type
REMARK                         _______ _______ _______ _____ _____    ______ ____
ROOT
ATOM      1  N   UNL     1       0.334   9.667  20.226  0.00  0.00    +0.000 N 
ATOM      2  C   UNL     1       1.305   8.969  20.961  0.00  0.00    +0.000 C 
ATOM      3  O   UNL     1       1.547   9.241  22.137  0.00  0.00    +0.000 OA
ATOM      4  C   UNL     1       1.843   7.825  20.296  0.00  0.00    +0.000 A 
ATOM      5  O   UNL     1       1.856   6.645  20.982  0.00  0.00    +0.000 OA
ATOM      6  C   UNL     1       2.279   5.688  20.122  0.00  0.00    +0.000 A 
ATOM      7  C   UNL     1       2.346   4.329  20.417  0.00  0.00    +0.000 A 
ATOM      8  C   UNL     1       2.816   3.498  19.400  0.00  0.00    +0.000 A 
ATOM      9  C   UNL     1       3.216   4.022  18.168  0.00  0.00    +0.000 A 
ATOM     10  C   UNL     1       3.127   5.398  17.895  0.00  0.00    +0.000 A 
ATOM     11  C   UNL     1       2.622   6.248  18.893  0.00  0.00    +0.000 A 
ATOM     12  C   UNL     1       2.285   7.618  19.011  0.00  0.00    +0.000 A 
ATOM     13  O   UNL     1       2.388   8.586  18.074  0.00  0.00    +0.000 OA
ATOM     14  C   UNL     1       1.131   9.252  17.851  0.00  0.00    +0.000 C 
ATOM     15  C   UNL     1       0.727  10.334  18.921  0.00  0.00    +0.000 C 
ATOM     16  C   UNL     1       1.936  11.270  19.161  0.00  0.00    +0.000 C 
ENDROOT
BRANCH  15  17
ATOM     17  C   UNL     1      -0.384  11.229  18.242  0.00  0.00    +0.000 C 
ATOM     18  O   UNL     1      -0.334  12.461  18.274  0.00  0.00    +0.000 OA
ATOM     19  N   UNL     1      -1.454  10.586  17.648  0.00  0.00    +0.000 N 
ATOM     20  H   UNL     1      -1.614   9.606  17.836  0.00  0.00    +0.000 HD
BRANCH  19  21
ATOM     21  C   UNL     1      -2.479  11.308  16.912  0.00  0.00    +0.000 C 
ATOM     22  C   UNL     1      -2.970  10.556  15.676  0.00  0.00    +0.000 C 
ATOM     23  C   UNL     1      -4.285  11.248  15.336  0.00  0.00    +0.000 C 
ATOM     24  C   UNL     1      -4.854  11.733  16.670  0.00  0.00    +0.000 C 
ATOM     25  C   UNL     1      -3.762  11.503  17.715  0.00  0.00    +0.000 C 
ENDBRANCH  19  21
ENDBRANCH  15  17
BRANCH   1  26
ATOM     26  C   UNL     1      -0.826  10.028  21.028  0.00  0.00    +0.000 C 
BRANCH  26  31
ATOM     27  C   UNL     1      -2.218  15.358  22.921  0.00  0.00    +0.000 C 
ATOM     28  C   UNL     1      -1.801  14.058  22.301  0.00  0.00    +0.000 A 
ATOM     29  C   UNL     1      -2.717  13.269  21.608  0.00  0.00    +0.000 A 
ATOM     30  C   UNL     1      -2.347  12.002  21.152  0.00  0.00    +0.000 A 
ATOM     31  C   UNL     1      -1.050  11.490  21.363  0.00  0.00    +0.000 A 
ATOM     32  C   UNL     1      -0.117  12.331  21.971  0.00  0.00    +0.000 A 
ATOM     33  C   UNL     1      -0.492  13.592  22.453  0.00  0.00    +0.000 A 
ENDBRANCH  26  31
ENDBRANCH   1  26
TORSDOF 4
ENDMDL
MODEL 4
REMARK VINA RESULT:      -7.2      3.628      6.732
REMARK  Name = 
REMARK  6 active torsions:
REMARK  status: ('A' for Active; 'I' for Inactive)
REMARK    1  A    between atoms: C_1  and  C_2
REMARK    2  A    between atoms: C_5  and  C_6
REMARK    3  A    between atoms: C_6  and  N_7
REMARK    4  A    between atoms: C_21  and  C_22
REMARK    5  A    between atoms: C_21  and  C_23
REMARK    6  A    between atoms: N_25  and  C_26
REMARK                            x       y       z     vdW  Elec       q    Type
REMARK                         _______ _______ _______ _____ _____    ______ ____
ROOT
ATOM      1  N   UNL     1      -1.384  13.383  21.019  0.00  0.00    +0.000 N 
ATOM      2  C   UNL     1       0.010  13.334  21.173  0.00  0.00    +0.000 C 
ATOM      3  O   UNL     1       0.556  12.464  21.853  0.00  0.00    +0.000 OA
ATOM      4  C   UNL     1       0.731  14.249  20.346  0.00  0.00    +0.000 A 
ATOM      5  O   UNL     1       1.757  13.748  19.599  0.00  0.00    +0.000 OA
ATOM      6  C   UNL     1       2.201  14.753  18.807  0.00  0.00    +0.000 A 
ATOM      7  C   UNL     1       3.187  14.619  17.832  0.00  0.00    +0.000 A 
ATOM      8  C   UNL     1       3.514  15.774  17.121  0.00  0.00    +0.000 A 
ATOM      9  C   UNL     1       2.893  16.993  17.402  0.00  0.00    +0.000 A 
ATOM     10  C   UNL     1       1.893  17.095  18.385  0.00  0.00    +0.000 A 
ATOM     11  C   UNL     1       1.522  15.936  19.087  0.00  0.00    +0.000 A 
ATOM     12  C   UNL     1       0.545  15.576  20.046  0.00  0.00    +0.000 A 
ATOM     13  O   UNL     1      -0.396  16.363  20.612  0.00  0.00    +0.000 OA
ATOM     14  C   UNL     1      -1.722  15.830  20.428  0.00  0.00    +0.000 C 
ATOM     15  C   UNL     1      -2.129  14.653  21.390  0.00  0.00    +0.000 C 
ATOM     16  C   UNL     1      -1.776  15.054  22.843  0.00  0.00    +0.000 C 
ENDROOT
BRANCH  15  17
ATOM     17  C   UNL     1      -3.706  14.568  21.337  0.00  0.00    +0.000 C 
ATOM     18  O   UNL     1      -4.362  15.203  20.508  0.00  0.00    +0.000 OA
ATOM     19  N   UNL     1      -4.341  13.794  22.289  0.00  0.00    +0.000 N 
ATOM     20  H   UNL     1      -3.827  13.481  23.102  0.00  0.00    +0.000 HD
BRANCH  19  21
ATOM     21  C   UNL     1      -5.778  13.569  22.272  0.00  0.00    +0.000 C 
ATOM     22  C   UNL     1      -6.190  12.404  21.376  0.00  0.00    +0.000 C 
ATOM     23  C   UNL     1      -7.606  12.080  21.839  0.00  0.00    +0.000 C 
ATOM     24  C   UNL     1      -7.646  12.438  23.325  0.00  0.00    +0.000 C 
ATOM     25  C   UNL     1      -6.331  13.155  23.632  0.00  0.00    +0.000 C 
ENDBRANCH  19  21
ENDBRANCH  15  17
BRANCH   1  26
ATOM     26  C   UNL     1      -1.988  12.062  20.930  0.00  0.00    +0.000 C 
BRANCH  26  31
ATOM     27  C   UNL     1      -2.785  10.544  15.363  0.00  0.00    +0.000 C 
ATOM     28  C   UNL     1      -2.639  10.788  16.835  0.00  0.00    +0.000 A 
ATOM     29  C   UNL     1      -3.607  11.500  17.542  0.00  0.00    +0.000 A 
ATOM     30  C   UNL     1      -3.393  11.834  18.881  0.00  0.00    +0.000 A 
ATOM     31  C   UNL     1      -2.214  11.458  19.557  0.00  0.00    +0.000 A 
ATOM     32  C   UNL     1      -1.300  10.662  18.865  0.00  0.00    +0.000 A 
ATOM     33  C   UNL     1      -1.500  10.348  17.514  0.00  0.00    +0.000 A 
ENDBRANCH  26  31
ENDBRANCH   1  26
TORSDOF 4
ENDMDL
MODEL 5
REMARK VINA RESULT:      -7.2      3.355      6.569
REMARK  Name = 
REMARK  6 active torsions:
REMARK  status: ('A' for Active; 'I' for Inactive)
REMARK    1  A    between atoms: C_1  and  C_2
REMARK    2  A    between atoms: C_5  and  C_6
REMARK    3  A    between atoms: C_6  and  N_7
REMARK    4  A    between atoms: C_21  and  C_22
REMARK    5  A    between atoms: C_21  and  C_23
REMARK    6  A    between atoms: N_25  and  C_26
REMARK                            x       y       z     vdW  Elec       q    Type
REMARK                         _______ _______ _______ _____ _____    ______ ____
ROOT
ATOM      1  N   UNL     1      -1.082  12.192  20.551  0.00  0.00    +0.000 N 
ATOM      2  C   UNL     1       0.320  12.164  20.592  0.00  0.00    +0.000 C 
ATOM      3  O   UNL     1       0.939  11.138  20.876  0.00  0.00    +0.000 OA
ATOM      4  C   UNL     1       0.952  13.351  20.110  0.00  0.00    +0.000 A 
ATOM      5  O   UNL     1       1.932  13.206  19.171  0.00  0.00    +0.000 OA
ATOM      6  C   UNL     1       2.288  14.451  18.771  0.00  0.00    +0.000 A 
ATOM      7  C   UNL     1       3.202  14.728  17.757  0.00  0.00    +0.000 A 
ATOM      8  C   UNL     1       3.443  16.076  17.494  0.00  0.00    +0.000 A 
ATOM      9  C   UNL     1       2.812  17.079  18.234  0.00  0.00    +0.000 A 
ATOM     10  C   UNL     1       1.886  16.769  19.245  0.00  0.00    +0.000 A 
ATOM     11  C   UNL     1       1.601  15.417  19.502  0.00  0.00    +0.000 A 
ATOM     12  C   UNL     1       0.709  14.686  20.323  0.00  0.00    +0.000 A 
ATOM     13  O   UNL     1      -0.208  15.167  21.191  0.00  0.00    +0.000 OA
ATOM     14  C   UNL     1      -1.529  14.667  20.907  0.00  0.00    +0.000 C 
ATOM     15  C   UNL     1      -1.830  13.203  21.400  0.00  0.00    +0.000 C 
ATOM     16  C   UNL     1      -1.381  13.074  22.876  0.00  0.00    +0.000 C 
ENDROOT
BRANCH  15  17
ATOM     17  C   UNL     1      -3.405  13.061  21.415  0.00  0.00    +0.000 C 
ATOM     18  O   UNL     1      -3.983  12.347  22.237  0.00  0.00    +0.000 OA
ATOM     19  N   UNL     1      -4.120  13.725  20.437  0.00  0.00    +0.000 N 
ATOM     20  H   UNL     1      -3.635  14.101  19.632  0.00  0.00    +0.000 HD
BRANCH  19  21
ATOM     21  C   UNL     1      -5.574  13.742  20.417  0.00  0.00    +0.000 C 
ATOM     22  C   UNL     1      -6.149  15.009  19.790  0.00  0.00    +0.000 C 
ATOM     23  C   UNL     1      -7.592  14.631  19.479  0.00  0.00    +0.000 C 
ATOM     24  C   UNL     1      -7.572  13.129  19.188  0.00  0.00    +0.000 C 
ATOM     25  C   UNL     1      -6.168  12.639  19.546  0.00  0.00    +0.000 C 
ENDBRANCH  19  21
ENDBRANCH  15  17
BRANCH   1  26
ATOM     26  C   UNL     1      -1.654  10.961  20.026  0.00  0.00    +0.000 C 
BRANCH  26  31
ATOM     27  C   UNL     1      -3.563  10.015  14.605  0.00  0.00    +0.000 C 
ATOM     28  C   UNL     1      -2.989  10.384  15.939  0.00  0.00    +0.000 A 
ATOM     29  C   UNL     1      -1.860   9.737  16.438  0.00  0.00    +0.000 A 
ATOM     30  C   UNL     1      -1.418   9.998  17.736  0.00  0.00    +0.000 A 
ATOM     31  C   UNL     1      -2.081  10.921  18.571  0.00  0.00    +0.000 A 
ATOM     32  C   UNL     1      -3.149  11.633  18.023  0.00  0.00    +0.000 A 
ATOM     33  C   UNL     1      -3.612  11.354  16.731  0.00  0.00    +0.000 A 
ENDBRANCH  26  31
ENDBRANCH   1  26
TORSDOF 4
ENDMDL
MODEL 6
REMARK VINA RESULT:      -7.2      2.513      6.416
REMARK  Name = 
REMARK  6 active torsions:
REMARK  status: ('A' for Active; 'I' for Inactive)
REMARK    1  A    between atoms: C_1  and  C_2
REMARK    2  A    between atoms: C_5  and  C_6
REMARK    3  A    between atoms: C_6  and  N_7
REMARK    4  A    between atoms: C_21  and  C_22
REMARK    5  A    between atoms: C_21  and  C_23
REMARK    6  A    between atoms: N_25  and  C_26
REMARK                            x       y       z     vdW  Elec       q    Type
REMARK                         _______ _______ _______ _____ _____    ______ ____
ROOT
ATOM      1  N   UNL     1      -0.348  11.798  20.028  0.00  0.00    +0.000 N 
ATOM      2  C   UNL     1       0.821  12.233  20.670  0.00  0.00    +0.000 C 
ATOM      3  O   UNL     1       1.284  11.641  21.645  0.00  0.00    +0.000 OA
ATOM      4  C   UNL     1       1.508  13.291  19.998  0.00  0.00    +0.000 A 
ATOM      5  O   UNL     1       2.843  13.126  19.765  0.00  0.00    +0.000 OA
ATOM      6  C   UNL     1       3.248  14.176  19.011  0.00  0.00    +0.000 A 
ATOM      7  C   UNL     1       4.530  14.331  18.488  0.00  0.00    +0.000 A 
ATOM      8  C   UNL     1       4.758  15.485  17.740  0.00  0.00    +0.000 A 
ATOM      9  C   UNL     1       3.750  16.435  17.555  0.00  0.00    +0.000 A 
ATOM     10  C   UNL     1       2.461  16.247  18.086  0.00  0.00    +0.000 A 
ATOM     11  C   UNL     1       2.201  15.073  18.812  0.00  0.00    +0.000 A 
ATOM     12  C   UNL     1       1.076  14.457  19.414  0.00  0.00    +0.000 A 
ATOM     13  O   UNL     1      -0.197  14.908  19.458  0.00  0.00    +0.000 OA
ATOM     14  C   UNL     1      -1.124  13.947  18.920  0.00  0.00    +0.000 C 
ATOM     15  C   UNL     1      -1.513  12.758  19.874  0.00  0.00    +0.000 C 
ATOM     16  C   UNL     1      -1.894  13.336  21.259  0.00  0.00    +0.000 C 
ENDROOT
BRANCH  15  17
ATOM     17  C   UNL     1      -2.843  12.139  19.285  0.00  0.00    +0.000 C 
ATOM     18  O   UNL     1      -2.824  11.301  18.381  0.00  0.00    +0.000 OA
ATOM     19  N   UNL     1      -4.045  12.608  19.780  0.00  0.00    +0.000 N 
ATOM     20  H   UNL     1      -4.061  13.455  20.332  0.00  0.00    +0.000 HD
BRANCH  19  21
ATOM     21  C   UNL     1      -5.323  12.040  19.379  0.00  0.00    +0.000 C 
ATOM     22  C   UNL     1      -6.300  11.885  20.542  0.00  0.00    +0.000 C 
ATOM     23  C   UNL     1      -7.649  11.710  19.854  0.00  0.00    +0.000 C 
ATOM     24  C   UNL     1      -7.553  12.501  18.549  0.00  0.00    +0.000 C 
ATOM     25  C   UNL     1      -6.093  12.934  18.412  0.00  0.00    +0.000 C 
ENDBRANCH  19  21
ENDBRANCH  15  17
BRANCH   1  26
ATOM     26  C   UNL     1      -0.454  10.347  19.976  0.00  0.00    +0.000 C 
BRANCH  26  31
ATOM     27  C   UNL     1       3.507   6.636  17.861  0.00  0.00    +0.000 C 
ATOM     28  C   UNL     1       2.612   7.689  18.442  0.00  0.00    +0.000 A 
ATOM     29  C   UNL     1       2.154   7.596  19.755  0.00  0.00    +0.000 A 
ATOM     30  C   UNL     1       1.217   8.511  20.237  0.00  0.00    +0.000 A 
ATOM     31  C   UNL     1       0.718   9.554  19.429  0.00  0.00    +0.000 A 
ATOM     32  C   UNL     1       1.260   9.692  18.150  0.00  0.00    +0.000 A 
ATOM     33  C   UNL     1       2.180   8.759  17.654  0.00  0.00    +0.000 A 
ENDBRANCH  26  31
ENDBRANCH   1  26
TORSDOF 4
ENDMDL
MODEL 7
REMARK VINA RESULT:      -7.1      2.694      6.603
REMARK  Name = 
REMARK  6 active torsions:
REMARK  status: ('A' for Active; 'I' for Inactive)
REMARK    1  A    between atoms: C_1  and  C_2
REMARK    2  A    between atoms: C_5  and  C_6
REMARK    3  A    between atoms: C_6  and  N_7
REMARK    4  A    between atoms: C_21  and  C_22
REMARK    5  A    between atoms: C_21  and  C_23
REMARK    6  A    between atoms: N_25  and  C_26
REMARK                            x       y       z     vdW  Elec       q    Type
REMARK                         _______ _______ _______ _____ _____    ______ ____
ROOT
ATOM      1  N   UNL     1      -0.593  12.280  20.678  0.00  0.00    +0.000 N 
ATOM      2  C   UNL     1       0.745  12.653  20.877  0.00  0.00    +0.000 C 
ATOM      3  O   UNL     1       1.521  11.958  21.533  0.00  0.00    +0.000 OA
ATOM      4  C   UNL     1       1.163  13.791  20.120  0.00  0.00    +0.000 A 
ATOM      5  O   UNL     1       2.307  13.672  19.385  0.00  0.00    +0.000 OA
ATOM      6  C   UNL     1       2.433  14.807  18.657  0.00  0.00    +0.000 A 
ATOM      7  C   UNL     1       3.430  15.038  17.712  0.00  0.00    +0.000 A 
ATOM      8  C   UNL     1       3.397  16.275  17.068  0.00  0.00    +0.000 A 
ATOM      9  C   UNL     1       2.424  17.227  17.384  0.00  0.00    +0.000 A 
ATOM     10  C   UNL     1       1.424  16.961  18.336  0.00  0.00    +0.000 A 
ATOM     11  C   UNL     1       1.417  15.707  18.970  0.00  0.00    +0.000 A 
ATOM     12  C   UNL     1       0.582  15.011  19.877  0.00  0.00    +0.000 A 
ATOM     13  O   UNL     1      -0.567  15.438  20.447  0.00  0.00    +0.000 OA
ATOM     14  C   UNL     1      -1.659  14.534  20.192  0.00  0.00    +0.000 C 
ATOM     15  C   UNL     1      -1.699  13.237  21.083  0.00  0.00    +0.000 C 
ATOM     16  C   UNL     1      -1.514  13.646  22.564  0.00  0.00    +0.000 C 
ENDROOT
BRANCH  15  17
ATOM     17  C   UNL     1      -3.172  12.674  20.971  0.00  0.00    +0.000 C 
ATOM     18  O   UNL     1      -3.765  12.211  21.948  0.00  0.00    +0.000 OA
ATOM     19  N   UNL     1      -3.765  12.666  19.723  0.00  0.00    +0.000 N 
ATOM     20  H   UNL     1      -3.197  12.814  18.899  0.00  0.00    +0.000 HD
BRANCH  19  21
ATOM     21  C   UNL     1      -5.148  12.263  19.525  0.00  0.00    +0.000 C 
ATOM     22  C   UNL     1      -6.127  13.433  19.581  0.00  0.00    +0.000 C 
ATOM     23  C   UNL     1      -7.388  12.875  18.932  0.00  0.00    +0.000 C 
ATOM     24  C   UNL     1      -6.907  11.847  17.908  0.00  0.00    +0.000 C 
ATOM     25  C   UNL     1      -5.404  11.680  18.138  0.00  0.00    +0.000 C 
ENDBRANCH  19  21
ENDBRANCH  15  17
BRANCH   1  26
ATOM     26  C   UNL     1      -0.756  10.844  20.506  0.00  0.00    +0.000 C 
BRANCH  26  31
ATOM     27  C   UNL     1       2.939   7.195  17.869  0.00  0.00    +0.000 C 
ATOM     28  C   UNL     1       2.117   8.230  18.575  0.00  0.00    +0.000 A 
ATOM     29  C   UNL     1       1.789   8.088  19.923  0.00  0.00    +0.000 A 
ATOM     30  C   UNL     1       0.913   8.989  20.530  0.00  0.00    +0.000 A 
ATOM     31  C   UNL     1       0.348  10.066  19.816  0.00  0.00    +0.000 A 
ATOM     32  C   UNL     1       0.762  10.251  18.496  0.00  0.00    +0.000 A 
ATOM     33  C   UNL     1       1.620   9.333  17.876  0.00  0.00    +0.000 A 
ENDBRANCH  26  31
ENDBRANCH   1  26
TORSDOF 4
ENDMDL
MODEL 8
REMARK VINA RESULT:      -7.1      1.649      7.754
REMARK  Name = 
REMARK  6 active torsions:
REMARK  status: ('A' for Active; 'I' for Inactive)
REMARK    1  A    between atoms: C_1  and  C_2
REMARK    2  A    between atoms: C_5  and  C_6
REMARK    3  A    between atoms: C_6  and  N_7
REMARK    4  A    between atoms: C_21  and  C_22
REMARK    5  A    between atoms: C_21  and  C_23
REMARK    6  A    between atoms: N_25  and  C_26
REMARK                            x       y       z     vdW  Elec       q    Type
REMARK                         _______ _______ _______ _____ _____    ______ ____
ROOT
ATOM      1  N   UNL     1      -0.707  12.731  19.629  0.00  0.00    +0.000 N 
ATOM      2  C   UNL     1      -0.725  14.124  19.797  0.00  0.00    +0.000 C 
ATOM      3  O   UNL     1      -0.495  14.893  18.863  0.00  0.00    +0.000 OA
ATOM      4  C   UNL     1      -1.199  14.562  21.073  0.00  0.00    +0.000 A 
ATOM      5  O   UNL     1      -2.181  15.510  21.087  0.00  0.00    +0.000 OA
ATOM      6  C   UNL     1      -2.561  15.670  22.378  0.00  0.00    +0.000 A 
ATOM      7  C   UNL     1      -3.604  16.489  22.802  0.00  0.00    +0.000 A 
ATOM      8  C   UNL     1      -3.840  16.528  24.177  0.00  0.00    +0.000 A 
ATOM      9  C   UNL     1      -3.047  15.797  25.065  0.00  0.00    +0.000 A 
ATOM     10  C   UNL     1      -2.007  14.969  24.605  0.00  0.00    +0.000 A 
ATOM     11  C   UNL     1      -1.776  14.888  23.222  0.00  0.00    +0.000 A 
ATOM     12  C   UNL     1      -0.940  14.144  22.355  0.00  0.00    +0.000 A 
ATOM     13  O   UNL     1      -0.021  13.209  22.683  0.00  0.00    +0.000 OA
ATOM     14  C   UNL     1      -0.265  11.960  22.008  0.00  0.00    +0.000 C 
ATOM     15  C   UNL     1       0.200  11.888  20.506  0.00  0.00    +0.000 C 
ATOM     16  C   UNL     1       1.652  12.417  20.409  0.00  0.00    +0.000 C 
ENDROOT
BRANCH  15  17
ATOM     17  C   UNL     1       0.276  10.351  20.143  0.00  0.00    +0.000 C 
ATOM     18  O   UNL     1      -0.623   9.567  20.454  0.00  0.00    +0.000 OA
ATOM     19  N   UNL     1       1.415   9.896  19.507  0.00  0.00    +0.000 N 
ATOM     20  H   UNL     1       2.238  10.483  19.477  0.00  0.00    +0.000 HD
BRANCH  19  21
ATOM     21  C   UNL     1       1.547   8.525  19.042  0.00  0.00    +0.000 C 
ATOM     22  C   UNL     1       2.623   8.357  17.971  0.00  0.00    +0.000 C 
ATOM     23  C   UNL     1       2.886   6.855  17.962  0.00  0.00    +0.000 C 
ATOM     24  C   UNL     1       2.623   6.381  19.391  0.00  0.00    +0.000 C 
ATOM     25  C   UNL     1       2.013   7.569  20.136  0.00  0.00    +0.000 C 
ENDBRANCH  19  21
ENDBRANCH  15  17
BRANCH   1  26
ATOM     26  C   UNL     1      -1.242  12.314  18.341  0.00  0.00    +0.000 C 
BRANCH  26  31
ATOM     27  C   UNL     1      -7.014  11.579  18.075  0.00  0.00    +0.000 C 
ATOM     28  C   UNL     1      -5.519  11.609  18.178  0.00  0.00    +0.000 A 
ATOM     29  C   UNL     1      -4.889  12.016  19.353  0.00  0.00    +0.000 A 
ATOM     30  C   UNL     1      -3.502  12.167  19.389  0.00  0.00    +0.000 A 
ATOM     31  C   UNL     1      -2.700  11.905  18.259  0.00  0.00    +0.000 A 
ATOM     32  C   UNL     1      -3.335  11.404  17.121  0.00  0.00    +0.000 A 
ATOM     33  C   UNL     1      -4.729  11.278  17.073  0.00  0.00    +0.000 A 
ENDBRANCH  26  31
ENDBRANCH   1  26
TORSDOF 4
ENDMDL
MODEL 9
REMARK VINA RESULT:      -7.1      3.117      6.697
REMARK  Name = 
REMARK  6 active torsions:
REMARK  status: ('A' for Active; 'I' for Inactive)
REMARK    1  A    between atoms: C_1  and  C_2
REMARK    2  A    between atoms: C_5  and  C_6
REMARK    3  A    between atoms: C_6  and  N_7
REMARK    4  A    between atoms: C_21  and  C_22
REMARK    5  A    between atoms: C_21  and  C_23
REMARK    6  A    between atoms: N_25  and  C_26
REMARK                            x       y       z     vdW  Elec       q    Type
REMARK                         _______ _______ _______ _____ _____    ______ ____
ROOT
ATOM      1  N   UNL     1      -1.263  13.579  22.143  0.00  0.00    +0.000 N 
ATOM      2  C   UNL     1      -0.645  14.558  22.937  0.00  0.00    +0.000 C 
ATOM      3  O   UNL     1      -0.854  14.637  24.147  0.00  0.00    +0.000 OA
ATOM      4  C   UNL     1       0.361  15.318  22.265  0.00  0.00    +0.000 A 
ATOM      5  O   UNL     1       1.579  15.425  22.872  0.00  0.00    +0.000 OA
ATOM      6  C   UNL     1       2.401  16.065  22.006  0.00  0.00    +0.000 A 
ATOM      7  C   UNL     1       3.758  16.292  22.220  0.00  0.00    +0.000 A 
ATOM      8  C   UNL     1       4.438  16.977  21.212  0.00  0.00    +0.000 A 
ATOM      9  C   UNL     1       3.770  17.423  20.069  0.00  0.00    +0.000 A 
ATOM     10  C   UNL     1       2.401  17.170  19.876  0.00  0.00    +0.000 A 
ATOM     11  C   UNL     1       1.706  16.450  20.862  0.00  0.00    +0.000 A 
ATOM     12  C   UNL     1       0.407  15.913  21.028  0.00  0.00    +0.000 A 
ATOM     13  O   UNL     1      -0.637  15.976  20.172  0.00  0.00    +0.000 OA
ATOM     14  C   UNL     1      -1.145  14.667  19.851  0.00  0.00    +0.000 C 
ATOM     15  C   UNL     1      -2.076  14.007  20.935  0.00  0.00    +0.000 C 
ATOM     16  C   UNL     1      -3.144  15.041  21.369  0.00  0.00    +0.000 C 
ENDROOT
BRANCH  15  17
ATOM     17  C   UNL     1      -2.866  12.856  20.193  0.00  0.00    +0.000 C 
ATOM     18  O   UNL     1      -3.992  12.506  20.554  0.00  0.00    +0.000 OA
ATOM     19  N   UNL     1      -2.232  12.211  19.149  0.00  0.00    +0.000 N 
ATOM     20  H   UNL     1      -1.236  12.330  19.019  0.00  0.00    +0.000 HD
BRANCH  19  21
ATOM     21  C   UNL     1      -2.902  11.207  18.337  0.00  0.00    +0.000 C 
ATOM     22  C   UNL     1      -3.833  11.811  17.288  0.00  0.00    +0.000 C 
ATOM     23  C   UNL     1      -4.063  10.663  16.312  0.00  0.00    +0.000 C 
ATOM     24  C   UNL     1      -2.783   9.828  16.347  0.00  0.00    +0.000 C 
ATOM     25  C   UNL     1      -1.935  10.385  17.491  0.00  0.00    +0.000 C 
ENDBRANCH  19  21
ENDBRANCH  15  17
BRANCH   1  26
ATOM     26  C   UNL     1      -1.403  12.304  22.830  0.00  0.00    +0.000 C 
BRANCH  26  31
ATOM     27  C   UNL     1       1.274   7.490  20.936  0.00  0.00    +0.000 C 
ATOM     28  C   UNL     1       0.723   8.763  21.503  0.00  0.00    +0.000 A 
ATOM     29  C   UNL     1      -0.072   8.752  22.648  0.00  0.00    +0.000 A 
ATOM     30  C   UNL     1      -0.687   9.927  23.085  0.00  0.00    +0.000 A 
ATOM     31  C   UNL     1      -0.517  11.149  22.402  0.00  0.00    +0.000 A 
ATOM     32  C   UNL     1       0.360  11.163  21.317  0.00  0.00    +0.000 A 
ATOM     33  C   UNL     1       0.957   9.981  20.859  0.00  0.00    +0.000 A 
ENDBRANCH  26  31
ENDBRANCH   1  26
TORSDOF 4
ENDMDL
