MODEL 1
REMARK VINA RESULT:      -7.4      0.000      0.000
REMARK  Name = 
REMARK  5 active torsions:
REMARK  status: ('A' for Active; 'I' for Inactive)
REMARK    1  A    between atoms: C_1  and  C_2
REMARK    2  A    between atoms: C_5  and  N_6
REMARK    3  A    between atoms: C_9  and  C_10
REMARK    4  A    between atoms: C_13  and  N_14
REMARK    5  A    between atoms: C_15  and  C_17
REMARK                            x       y       z     vdW  Elec       q    Type
REMARK                         _______ _______ _______ _____ _____    ______ ____
ROOT
ATOM      1  N   UNL     1       2.092   7.387  20.983  0.00  0.00    +0.000 N 
ATOM      2  C   UNL     1       1.280   8.467  20.916  0.00  0.00    +0.000 A 
ATOM      3  N   UNL     1       0.800   8.978  19.807  0.00  0.00    +0.000 NA
ATOM      4  C   UNL     1      -0.051  10.048  20.081  0.00  0.00    +0.000 A 
ATOM      5  C   UNL     1      -0.240  10.294  21.432  0.00  0.00    +0.000 A 
ATOM      6  S   UNL     1       0.822   9.301  22.335  0.00  0.00    +0.000 S 
ATOM      7  H   UNL     1       2.477   7.127  21.882  0.00  0.00    +0.000 HD
ENDROOT
BRANCH   1  12
ATOM      8  C   UNL     1       2.296   2.938  17.395  0.00  0.00    +0.000 C 
ATOM      9  C   UNL     1       2.167   4.121  18.305  0.00  0.00    +0.000 A 
ATOM     10  C   UNL     1       1.482   4.036  19.523  0.00  0.00    +0.000 A 
ATOM     11  C   UNL     1       1.422   5.138  20.381  0.00  0.00    +0.000 A 
ATOM     12  C   UNL     1       2.063   6.335  20.048  0.00  0.00    +0.000 A 
ATOM     13  C   UNL     1       2.712   6.421  18.808  0.00  0.00    +0.000 A 
ATOM     14  C   UNL     1       2.762   5.330  17.944  0.00  0.00    +0.000 A 
ENDBRANCH   1  12
BRANCH   4  15
ATOM     15  C   UNL     1      -0.675  10.754  18.967  0.00  0.00    +0.000 C 
ATOM     16  N   UNL     1       0.174  11.603  18.315  0.00  0.00    +0.000 N 
ATOM     17  O   UNL     1      -1.850  10.619  18.639  0.00  0.00    +0.000 OA
ATOM     18  H   UNL     1       1.129  11.698  18.655  0.00  0.00    +0.000 HD
ATOM     19  H   UNL     1      -0.157  12.185  17.560  0.00  0.00    +0.000 HD
ENDBRANCH   4  15
BRANCH   5  20
ATOM     20  N   UNL     1      -1.051  11.230  22.067  0.00  0.00    +0.000 N 
ATOM     21  C   UNL     1      -0.730  12.574  22.191  0.00  0.00    +0.000 C 
ATOM     22  O   UNL     1       0.342  13.088  21.877  0.00  0.00    +0.000 OA
ATOM     23  H   UNL     1      -1.837  10.857  22.596  0.00  0.00    +0.000 HD
BRANCH  21  24
ATOM     24  C   UNL     1      -1.780  13.500  22.709  0.00  0.00    +0.000 A 
ATOM     25  C   UNL     1      -1.498  14.078  23.966  0.00  0.00    +0.000 A 
ATOM     26  C   UNL     1      -2.363  15.002  24.551  0.00  0.00    +0.000 A 
ATOM     27  C   UNL     1      -3.524  15.371  23.886  0.00  0.00    +0.000 A 
ATOM     28  C   UNL     1      -3.840  14.779  22.661  0.00  0.00    +0.000 A 
ATOM     29  C   UNL     1      -2.985  13.828  22.080  0.00  0.00    +0.000 A 
ATOM     30 BR   UNL     1      -3.625  12.976  20.510  0.00  0.00    +0.000 Br
ENDBRANCH  21  24
ENDBRANCH   5  20
TORSDOF 4
ENDMDL
MODEL 2
REMARK VINA RESULT:      -7.3      1.198      1.358
REMARK  Name = 
REMARK  5 active torsions:
REMARK  status: ('A' for Active; 'I' for Inactive)
REMARK    1  A    between atoms: C_1  and  C_2
REMARK    2  A    between atoms: C_5  and  N_6
REMARK    3  A    between atoms: C_9  and  C_10
REMARK    4  A    between atoms: C_13  and  N_14
REMARK    5  A    between atoms: C_15  and  C_17
REMARK                            x       y       z     vdW  Elec       q    Type
REMARK                         _______ _______ _______ _____ _____    ______ ____
ROOT
ATOM      1  N   UNL     1       2.186   7.444  20.945  0.00  0.00    +0.000 N 
ATOM      2  C   UNL     1       1.307   8.472  20.950  0.00  0.00    +0.000 A 
ATOM      3  N   UNL     1       0.717   8.960  19.884  0.00  0.00    +0.000 NA
ATOM      4  C   UNL     1      -0.177   9.973  20.231  0.00  0.00    +0.000 A 
ATOM      5  C   UNL     1      -0.281  10.198  21.596  0.00  0.00    +0.000 A 
ATOM      6  S   UNL     1       0.903   9.266  22.407  0.00  0.00    +0.000 S 
ATOM      7  H   UNL     1       2.651   7.202  21.811  0.00  0.00    +0.000 HD
ENDROOT
BRANCH   1  12
ATOM      8  C   UNL     1       2.376   3.020  17.326  0.00  0.00    +0.000 C 
ATOM      9  C   UNL     1       2.250   4.196  18.245  0.00  0.00    +0.000 A 
ATOM     10  C   UNL     1       1.564   4.106  19.461  0.00  0.00    +0.000 A 
ATOM     11  C   UNL     1       1.508   5.202  20.327  0.00  0.00    +0.000 A 
ATOM     12  C   UNL     1       2.153   6.399  20.003  0.00  0.00    +0.000 A 
ATOM     13  C   UNL     1       2.804   6.491  18.764  0.00  0.00    +0.000 A 
ATOM     14  C   UNL     1       2.850   5.406  17.892  0.00  0.00    +0.000 A 
ENDBRANCH   1  12
BRANCH   4  15
ATOM     15  C   UNL     1      -0.922  10.646  19.173  0.00  0.00    +0.000 C 
ATOM     16  N   UNL     1      -0.449  10.383  17.920  0.00  0.00    +0.000 N 
ATOM     17  O   UNL     1      -1.878  11.391  19.373  0.00  0.00    +0.000 OA
ATOM     18  H   UNL     1       0.369   9.785  17.820  0.00  0.00    +0.000 HD
ATOM     19  H   UNL     1      -0.851  10.833  17.111  0.00  0.00    +0.000 HD
ENDBRANCH   4  15
BRANCH   5  20
ATOM     20  N   UNL     1      -1.099  11.077  22.298  0.00  0.00    +0.000 N 
ATOM     21  C   UNL     1      -0.821  12.425  22.467  0.00  0.00    +0.000 C 
ATOM     22  O   UNL     1       0.221  12.989  22.137  0.00  0.00    +0.000 OA
ATOM     23  H   UNL     1      -1.852  10.654  22.838  0.00  0.00    +0.000 HD
BRANCH  21  24
ATOM     24  C   UNL     1      -1.882  13.290  23.062  0.00  0.00    +0.000 A 
ATOM     25  C   UNL     1      -3.110  12.641  23.311  0.00  0.00    +0.000 A 
ATOM     26  C   UNL     1      -4.176  13.310  23.912  0.00  0.00    +0.000 A 
ATOM     27  C   UNL     1      -4.030  14.640  24.282  0.00  0.00    +0.000 A 
ATOM     28  C   UNL     1      -2.836  15.310  24.005  0.00  0.00    +0.000 A 
ATOM     29  C   UNL     1      -1.769  14.648  23.377  0.00  0.00    +0.000 A 
ATOM     30 BR   UNL     1      -0.281  15.725  22.901  0.00  0.00    +0.000 Br
ENDBRANCH  21  24
ENDBRANCH   5  20
TORSDOF 4
ENDMDL
MODEL 3
REMARK VINA RESULT:      -7.0      1.633      1.704
REMARK  Name = 
REMARK  5 active torsions:
REMARK  status: ('A' for Active; 'I' for Inactive)
REMARK    1  A    between atoms: C_1  and  C_2
REMARK    2  A    between atoms: C_5  and  N_6
REMARK    3  A    between atoms: C_9  and  C_10
REMARK    4  A    between atoms: C_13  and  N_14
REMARK    5  A    between atoms: C_15  and  C_17
REMARK                            x       y       z     vdW  Elec       q    Type
REMARK                         _______ _______ _______ _____ _____    ______ ____
ROOT
ATOM      1  N   UNL     1       1.865   6.674  21.205  0.00  0.00    +0.000 N 
ATOM      2  C   UNL     1       1.439   7.920  20.896  0.00  0.00    +0.000 A 
ATOM      3  N   UNL     1       1.571   8.488  19.720  0.00  0.00    +0.000 NA
ATOM      4  C   UNL     1       0.976   9.749  19.708  0.00  0.00    +0.000 A 
ATOM      5  C   UNL     1       0.344  10.093  20.894  0.00  0.00    +0.000 A 
ATOM      6  S   UNL     1       0.689   8.903  22.075  0.00  0.00    +0.000 S 
ATOM      7  H   UNL     1       1.793   6.365  22.167  0.00  0.00    +0.000 HD
ENDROOT
BRANCH   1  12
ATOM      8  C   UNL     1       2.400   2.195  17.690  0.00  0.00    +0.000 C 
ATOM      9  C   UNL     1       2.197   3.396  18.563  0.00  0.00    +0.000 A 
ATOM     10  C   UNL     1       1.213   3.421  19.557  0.00  0.00    +0.000 A 
ATOM     11  C   UNL     1       1.079   4.531  20.396  0.00  0.00    +0.000 A 
ATOM     12  C   UNL     1       1.940   5.625  20.271  0.00  0.00    +0.000 A 
ATOM     13  C   UNL     1       2.898   5.606  19.247  0.00  0.00    +0.000 A 
ATOM     14  C   UNL     1       3.024   4.508  18.399  0.00  0.00    +0.000 A 
ENDBRANCH   1  12
BRANCH   4  15
ATOM     15  C   UNL     1       1.030  10.541  18.484  0.00  0.00    +0.000 C 
ATOM     16  N   UNL     1      -0.075  10.402  17.694  0.00  0.00    +0.000 N 
ATOM     17  O   UNL     1       1.975  11.260  18.173  0.00  0.00    +0.000 OA
ATOM     18  H   UNL     1      -0.811   9.763  17.988  0.00  0.00    +0.000 HD
ATOM     19  H   UNL     1      -0.129  10.861  16.797  0.00  0.00    +0.000 HD
ENDBRANCH   4  15
BRANCH   5  20
ATOM     20  N   UNL     1      -0.388  11.229  21.222  0.00  0.00    +0.000 N 
ATOM     21  C   UNL     1       0.176  12.478  21.440  0.00  0.00    +0.000 C 
ATOM     22  O   UNL     1       1.380  12.720  21.497  0.00  0.00    +0.000 OA
ATOM     23  H   UNL     1      -1.366  11.078  21.462  0.00  0.00    +0.000 HD
BRANCH  21  24
ATOM     24  C   UNL     1      -0.741  13.646  21.579  0.00  0.00    +0.000 A 
ATOM     25  C   UNL     1      -1.479  13.686  22.781  0.00  0.00    +0.000 A 
ATOM     26  C   UNL     1      -2.338  14.745  23.072  0.00  0.00    +0.000 A 
ATOM     27  C   UNL     1      -2.468  15.791  22.168  0.00  0.00    +0.000 A 
ATOM     28  C   UNL     1      -1.778  15.749  20.955  0.00  0.00    +0.000 A 
ATOM     29  C   UNL     1      -0.932  14.671  20.646  0.00  0.00    +0.000 A 
ATOM     30 BR   UNL     1      -0.202  14.656  18.894  0.00  0.00    +0.000 Br
ENDBRANCH  21  24
ENDBRANCH   5  20
TORSDOF 4
ENDMDL
MODEL 4
REMARK VINA RESULT:      -7.0      1.603      1.839
REMARK  Name = 
REMARK  5 active torsions:
REMARK  status: ('A' for Active; 'I' for Inactive)
REMARK    1  A    between atoms: C_1  and  C_2
REMARK    2  A    between atoms: C_5  and  N_6
REMARK    3  A    between atoms: C_9  and  C_10
REMARK    4  A    between atoms: C_13  and  N_14
REMARK    5  A    between atoms: C_15  and  C_17
REMARK                            x       y       z     vdW  Elec       q    Type
REMARK                         _______ _______ _______ _____ _____    ______ ____
ROOT
ATOM      1  N   UNL     1       1.831   6.641  21.280  0.00  0.00    +0.000 N 
ATOM      2  C   UNL     1       1.367   7.853  20.899  0.00  0.00    +0.000 A 
ATOM      3  N   UNL     1       1.547   8.387  19.714  0.00  0.00    +0.000 NA
ATOM      4  C   UNL     1       0.893   9.615  19.618  0.00  0.00    +0.000 A 
ATOM      5  C   UNL     1       0.172   9.967  20.749  0.00  0.00    +0.000 A 
ATOM      6  S   UNL     1       0.497   8.836  21.992  0.00  0.00    +0.000 S 
ATOM      7  H   UNL     1       1.713   6.361  22.246  0.00  0.00    +0.000 HD
ENDROOT
BRANCH   1  12
ATOM      8  C   UNL     1       2.767   2.061  17.985  0.00  0.00    +0.000 C 
ATOM      9  C   UNL     1       2.467   3.288  18.792  0.00  0.00    +0.000 A 
ATOM     10  C   UNL     1       1.355   3.354  19.638  0.00  0.00    +0.000 A 
ATOM     11  C   UNL     1       1.126   4.489  20.423  0.00  0.00    +0.000 A 
ATOM     12  C   UNL     1       2.016   5.566  20.392  0.00  0.00    +0.000 A 
ATOM     13  C   UNL     1       3.106   5.505  19.512  0.00  0.00    +0.000 A 
ATOM     14  C   UNL     1       3.329   4.382  18.718  0.00  0.00    +0.000 A 
ENDBRANCH   1  12
BRANCH   4  15
ATOM     15  C   UNL     1       0.988  10.367  18.371  0.00  0.00    +0.000 C 
ATOM     16  N   UNL     1      -0.161  10.347  17.633  0.00  0.00    +0.000 N 
ATOM     17  O   UNL     1       1.998  10.958  18.001  0.00  0.00    +0.000 OA
ATOM     18  H   UNL     1      -0.955   9.810  17.977  0.00  0.00    +0.000 HD
ATOM     19  H   UNL     1      -0.201  10.789  16.727  0.00  0.00    +0.000 HD
ENDBRANCH   4  15
BRANCH   5  20
ATOM     20  N   UNL     1      -0.634  11.075  20.989  0.00  0.00    +0.000 N 
ATOM     21  C   UNL     1      -0.145  12.329  21.325  0.00  0.00    +0.000 C 
ATOM     22  O   UNL     1       1.029  12.597  21.576  0.00  0.00    +0.000 OA
ATOM     23  H   UNL     1      -1.633  10.894  21.069  0.00  0.00    +0.000 HD
BRANCH  21  24
ATOM     24  C   UNL     1      -1.105  13.471  21.350  0.00  0.00    +0.000 A 
ATOM     25  C   UNL     1      -0.734  14.579  20.558  0.00  0.00    +0.000 A 
ATOM     26  C   UNL     1      -1.558  15.698  20.443  0.00  0.00    +0.000 A 
ATOM     27  C   UNL     1      -2.774  15.727  21.113  0.00  0.00    +0.000 A 
ATOM     28  C   UNL     1      -3.138  14.657  21.934  0.00  0.00    +0.000 A 
ATOM     29  C   UNL     1      -2.299  13.540  22.074  0.00  0.00    +0.000 A 
ATOM     30 BR   UNL     1      -2.834  12.248  23.358  0.00  0.00    +0.000 Br
ENDBRANCH  21  24
ENDBRANCH   5  20
TORSDOF 4
ENDMDL
MODEL 5
REMARK VINA RESULT:      -7.0      0.740      1.196
REMARK  Name = 
REMARK  5 active torsions:
REMARK  status: ('A' for Active; 'I' for Inactive)
REMARK    1  A    between atoms: C_1  and  C_2
REMARK    2  A    between atoms: C_5  and  N_6
REMARK    3  A    between atoms: C_9  and  C_10
REMARK    4  A    between atoms: C_13  and  N_14
REMARK    5  A    between atoms: C_15  and  C_17
REMARK                            x       y       z     vdW  Elec       q    Type
REMARK                         _______ _______ _______ _____ _____    ______ ____
ROOT
ATOM      1  N   UNL     1       1.969   7.693  21.313  0.00  0.00    +0.000 N 
ATOM      2  C   UNL     1       1.123   8.743  21.206  0.00  0.00    +0.000 A 
ATOM      3  N   UNL     1       0.693   9.249  20.074  0.00  0.00    +0.000 NA
ATOM      4  C   UNL     1      -0.214  10.283  20.305  0.00  0.00    +0.000 A 
ATOM      5  C   UNL     1      -0.495  10.507  21.645  0.00  0.00    +0.000 A 
ATOM      6  S   UNL     1       0.546   9.543  22.602  0.00  0.00    +0.000 S 
ATOM      7  H   UNL     1       2.307   7.438  22.233  0.00  0.00    +0.000 HD
ENDROOT
BRANCH   1  12
ATOM      8  C   UNL     1       1.896   3.619  17.300  0.00  0.00    +0.000 C 
ATOM      9  C   UNL     1       1.994   4.667  18.367  0.00  0.00    +0.000 A 
ATOM     10  C   UNL     1       2.547   5.926  18.109  0.00  0.00    +0.000 A 
ATOM     11  C   UNL     1       2.577   6.906  19.105  0.00  0.00    +0.000 A 
ATOM     12  C   UNL     1       2.037   6.653  20.369  0.00  0.00    +0.000 A 
ATOM     13  C   UNL     1       1.522   5.374  20.629  0.00  0.00    +0.000 A 
ATOM     14  C   UNL     1       1.503   4.391  19.644  0.00  0.00    +0.000 A 
ENDBRANCH   1  12
BRANCH   4  15
ATOM     15  C   UNL     1      -0.793  10.979  19.161  0.00  0.00    +0.000 C 
ATOM     16  N   UNL     1      -1.397  10.144  18.264  0.00  0.00    +0.000 N 
ATOM     17  O   UNL     1      -0.743  12.194  18.998  0.00  0.00    +0.000 OA
ATOM     18  H   UNL     1      -1.376   9.141  18.436  0.00  0.00    +0.000 HD
ATOM     19  H   UNL     1      -1.789  10.505  17.407  0.00  0.00    +0.000 HD
ENDBRANCH   4  15
BRANCH   5  20
ATOM     20  N   UNL     1      -1.378  11.404  22.237  0.00  0.00    +0.000 N 
ATOM     21  C   UNL     1      -1.092  12.745  22.450  0.00  0.00    +0.000 C 
ATOM     22  O   UNL     1      -0.001  13.283  22.267  0.00  0.00    +0.000 OA
ATOM     23  H   UNL     1      -2.207  10.999  22.668  0.00  0.00    +0.000 HD
BRANCH  21  24
ATOM     24  C   UNL     1      -2.201  13.635  22.902  0.00  0.00    +0.000 A 
ATOM     25  C   UNL     1      -2.007  14.236  24.164  0.00  0.00    +0.000 A 
ATOM     26  C   UNL     1      -2.935  15.132  24.693  0.00  0.00    +0.000 A 
ATOM     27  C   UNL     1      -4.073  15.450  23.964  0.00  0.00    +0.000 A 
ATOM     28  C   UNL     1      -4.303  14.833  22.732  0.00  0.00    +0.000 A 
ATOM     29  C   UNL     1      -3.383  13.910  22.208  0.00  0.00    +0.000 A 
ATOM     30 BR   UNL     1      -3.909  13.017  20.618  0.00  0.00    +0.000 Br
ENDBRANCH  21  24
ENDBRANCH   5  20
TORSDOF 4
ENDMDL
MODEL 6
REMARK VINA RESULT:      -6.9      0.982      1.382
REMARK  Name = 
REMARK  5 active torsions:
REMARK  status: ('A' for Active; 'I' for Inactive)
REMARK    1  A    between atoms: C_1  and  C_2
REMARK    2  A    between atoms: C_5  and  N_6
REMARK    3  A    between atoms: C_9  and  C_10
REMARK    4  A    between atoms: C_13  and  N_14
REMARK    5  A    between atoms: C_15  and  C_17
REMARK                            x       y       z     vdW  Elec       q    Type
REMARK                         _______ _______ _______ _____ _____    ______ ____
ROOT
ATOM      1  N   UNL     1       1.854   7.518  21.378  0.00  0.00    +0.000 N 
ATOM      2  C   UNL     1       1.060   8.600  21.208  0.00  0.00    +0.000 A 
ATOM      3  N   UNL     1       0.757   9.134  20.049  0.00  0.00    +0.000 NA
ATOM      4  C   UNL     1      -0.130  10.199  20.209  0.00  0.00    +0.000 A 
ATOM      5  C   UNL     1      -0.527  10.417  21.519  0.00  0.00    +0.000 A 
ATOM      6  S   UNL     1       0.385   9.405  22.555  0.00  0.00    +0.000 S 
ATOM      7  H   UNL     1       2.095   7.240  22.321  0.00  0.00    +0.000 HD
ENDROOT
BRANCH   1  12
ATOM      8  C   UNL     1       1.997   3.482  17.328  0.00  0.00    +0.000 C 
ATOM      9  C   UNL     1       2.038   4.519  18.409  0.00  0.00    +0.000 A 
ATOM     10  C   UNL     1       2.610   5.778  18.195  0.00  0.00    +0.000 A 
ATOM     11  C   UNL     1       2.586   6.749  19.202  0.00  0.00    +0.000 A 
ATOM     12  C   UNL     1       1.972   6.486  20.429  0.00  0.00    +0.000 A 
ATOM     13  C   UNL     1       1.437   5.208  20.646  0.00  0.00    +0.000 A 
ATOM     14  C   UNL     1       1.471   4.234  19.651  0.00  0.00    +0.000 A 
ENDBRANCH   1  12
BRANCH   4  15
ATOM     15  C   UNL     1      -0.574  10.928  19.026  0.00  0.00    +0.000 C 
ATOM     16  N   UNL     1       0.428  11.181  18.133  0.00  0.00    +0.000 N 
ATOM     17  O   UNL     1      -1.730  11.296  18.840  0.00  0.00    +0.000 OA
ATOM     18  H   UNL     1       1.374  10.882  18.359  0.00  0.00    +0.000 HD
ATOM     19  H   UNL     1       0.252  11.724  17.300  0.00  0.00    +0.000 HD
ENDBRANCH   4  15
BRANCH   5  20
ATOM     20  N   UNL     1      -1.428  11.341  22.040  0.00  0.00    +0.000 N 
ATOM     21  C   UNL     1      -1.097  12.649  22.361  0.00  0.00    +0.000 C 
ATOM     22  O   UNL     1       0.036  13.125  22.350  0.00  0.00    +0.000 OA
ATOM     23  H   UNL     1      -2.329  10.969  22.337  0.00  0.00    +0.000 HD
BRANCH  21  24
ATOM     24  C   UNL     1      -2.205  13.585  22.713  0.00  0.00    +0.000 A 
ATOM     25  C   UNL     1      -3.106  13.104  23.686  0.00  0.00    +0.000 A 
ATOM     26  C   UNL     1      -4.161  13.889  24.152  0.00  0.00    +0.000 A 
ATOM     27  C   UNL     1      -4.328  15.175  23.657  0.00  0.00    +0.000 A 
ATOM     28  C   UNL     1      -3.471  15.653  22.664  0.00  0.00    +0.000 A 
ATOM     29  C   UNL     1      -2.424  14.857  22.173  0.00  0.00    +0.000 A 
ATOM     30 BR   UNL     1      -1.454  15.562  20.702  0.00  0.00    +0.000 Br
ENDBRANCH  21  24
ENDBRANCH   5  20
TORSDOF 4
ENDMDL
MODEL 7
REMARK VINA RESULT:      -6.9      1.130      1.130
REMARK  Name = 
REMARK  5 active torsions:
REMARK  status: ('A' for Active; 'I' for Inactive)
REMARK    1  A    between atoms: C_1  and  C_2
REMARK    2  A    between atoms: C_5  and  N_6
REMARK    3  A    between atoms: C_9  and  C_10
REMARK    4  A    between atoms: C_13  and  N_14
REMARK    5  A    between atoms: C_15  and  C_17
REMARK                            x       y       z     vdW  Elec       q    Type
REMARK                         _______ _______ _______ _____ _____    ______ ____
ROOT
ATOM      1  N   UNL     1       2.047   8.014  20.592  0.00  0.00    +0.000 N 
ATOM      2  C   UNL     1       1.177   9.035  20.416  0.00  0.00    +0.000 A 
ATOM      3  N   UNL     1       0.475   9.243  19.327  0.00  0.00    +0.000 NA
ATOM      4  C   UNL     1      -0.372  10.340  19.485  0.00  0.00    +0.000 A 
ATOM      5  C   UNL     1      -0.326  10.920  20.744  0.00  0.00    +0.000 A 
ATOM      6  S   UNL     1       0.937  10.197  21.645  0.00  0.00    +0.000 S 
ATOM      7  H   UNL     1       2.604   7.995  21.438  0.00  0.00    +0.000 HD
ENDROOT
BRANCH   1  12
ATOM      8  C   UNL     1       1.843   2.799  18.255  0.00  0.00    +0.000 C 
ATOM      9  C   UNL     1       1.816   4.175  18.847  0.00  0.00    +0.000 A 
ATOM     10  C   UNL     1       1.340   4.405  20.143  0.00  0.00    +0.000 A 
ATOM     11  C   UNL     1       1.377   5.690  20.695  0.00  0.00    +0.000 A 
ATOM     12  C   UNL     1       1.909   6.760  19.971  0.00  0.00    +0.000 A 
ATOM     13  C   UNL     1       2.347   6.525  18.659  0.00  0.00    +0.000 A 
ATOM     14  C   UNL     1       2.299   5.250  18.101  0.00  0.00    +0.000 A 
ENDBRANCH   1  12
BRANCH   4  15
ATOM     15  C   UNL     1      -1.227  10.735  18.370  0.00  0.00    +0.000 C 
ATOM     16  N   UNL     1      -1.024   9.996  17.239  0.00  0.00    +0.000 N 
ATOM     17  O   UNL     1      -2.046  11.647  18.422  0.00  0.00    +0.000 OA
ATOM     18  H   UNL     1      -0.305   9.275  17.246  0.00  0.00    +0.000 HD
ATOM     19  H   UNL     1      -1.520  10.210  16.387  0.00  0.00    +0.000 HD
ENDBRANCH   4  15
BRANCH   5  20
ATOM     20  N   UNL     1      -1.059  11.979  21.269  0.00  0.00    +0.000 N 
ATOM     21  C   UNL     1      -1.662  11.958  22.518  0.00  0.00    +0.000 C 
ATOM     22  O   UNL     1      -1.737  10.981  23.262  0.00  0.00    +0.000 OA
ATOM     23  H   UNL     1      -1.282  12.733  20.623  0.00  0.00    +0.000 HD
BRANCH  21  24
ATOM     24  C   UNL     1      -2.239  13.232  23.039  0.00  0.00    +0.000 A 
ATOM     25  C   UNL     1      -1.387  13.968  23.891  0.00  0.00    +0.000 A 
ATOM     26  C   UNL     1      -1.771  15.203  24.412  0.00  0.00    +0.000 A 
ATOM     27  C   UNL     1      -3.013  15.730  24.083  0.00  0.00    +0.000 A 
ATOM     28  C   UNL     1      -3.885  14.997  23.275  0.00  0.00    +0.000 A 
ATOM     29  C   UNL     1      -3.513  13.740  22.770  0.00  0.00    +0.000 A 
ATOM     30 BR   UNL     1      -4.860  12.780  21.840  0.00  0.00    +0.000 Br
ENDBRANCH  21  24
ENDBRANCH   5  20
TORSDOF 4
ENDMDL
MODEL 8
REMARK VINA RESULT:      -6.9      1.708      2.051
REMARK  Name = 
REMARK  5 active torsions:
REMARK  status: ('A' for Active; 'I' for Inactive)
REMARK    1  A    between atoms: C_1  and  C_2
REMARK    2  A    between atoms: C_5  and  N_6
REMARK    3  A    between atoms: C_9  and  C_10
REMARK    4  A    between atoms: C_13  and  N_14
REMARK    5  A    between atoms: C_15  and  C_17
REMARK                            x       y       z     vdW  Elec       q    Type
REMARK                         _______ _______ _______ _____ _____    ______ ____
ROOT
ATOM      1  N   UNL     1       1.995   6.519  21.314  0.00  0.00    +0.000 N 
ATOM      2  C   UNL     1       1.527   7.724  20.917  0.00  0.00    +0.000 A 
ATOM      3  N   UNL     1       1.675   8.229  19.715  0.00  0.00    +0.000 NA
ATOM      4  C   UNL     1       1.025   9.458  19.609  0.00  0.00    +0.000 A 
ATOM      5  C   UNL     1       0.339   9.841  20.752  0.00  0.00    +0.000 A 
ATOM      6  S   UNL     1       0.694   8.738  22.012  0.00  0.00    +0.000 S 
ATOM      7  H   UNL     1       1.904   6.262  22.289  0.00  0.00    +0.000 HD
ENDROOT
BRANCH   1  12
ATOM      8  C   UNL     1       2.521   2.319  17.467  0.00  0.00    +0.000 C 
ATOM      9  C   UNL     1       2.425   3.372  18.529  0.00  0.00    +0.000 A 
ATOM     10  C   UNL     1       3.477   4.260  18.777  0.00  0.00    +0.000 A 
ATOM     11  C   UNL     1       3.342   5.270  19.735  0.00  0.00    +0.000 A 
ATOM     12  C   UNL     1       2.149   5.422  20.446  0.00  0.00    +0.000 A 
ATOM     13  C   UNL     1       1.115   4.502  20.217  0.00  0.00    +0.000 A 
ATOM     14  C   UNL     1       1.251   3.486  19.274  0.00  0.00    +0.000 A 
ENDBRANCH   1  12
BRANCH   4  15
ATOM     15  C   UNL     1       1.088  10.180  18.343  0.00  0.00    +0.000 C 
ATOM     16  N   UNL     1      -0.100  10.203  17.668  0.00  0.00    +0.000 N 
ATOM     17  O   UNL     1       2.103  10.712  17.905  0.00  0.00    +0.000 OA
ATOM     18  H   UNL     1      -0.899   9.713  18.066  0.00  0.00    +0.000 HD
ATOM     19  H   UNL     1      -0.167  10.629  16.756  0.00  0.00    +0.000 HD
ENDBRANCH   4  15
BRANCH   5  20
ATOM     20  N   UNL     1      -0.454  10.959  20.988  0.00  0.00    +0.000 N 
ATOM     21  C   UNL     1       0.052  12.221  21.263  0.00  0.00    +0.000 C 
ATOM     22  O   UNL     1       1.235  12.493  21.457  0.00  0.00    +0.000 OA
ATOM     23  H   UNL     1      -1.449  10.784  21.115  0.00  0.00    +0.000 HD
BRANCH  21  24
ATOM     24  C   UNL     1      -0.904  13.368  21.291  0.00  0.00    +0.000 A 
ATOM     25  C   UNL     1      -1.794  13.376  22.386  0.00  0.00    +0.000 A 
ATOM     26  C   UNL     1      -2.708  14.413  22.571  0.00  0.00    +0.000 A 
ATOM     27  C   UNL     1      -2.743  15.466  21.667  0.00  0.00    +0.000 A 
ATOM     28  C   UNL     1      -1.898  15.454  20.555  0.00  0.00    +0.000 A 
ATOM     29  C   UNL     1      -0.994  14.399  20.350  0.00  0.00    +0.000 A 
ATOM     30 BR   UNL     1      -0.040  14.421  18.710  0.00  0.00    +0.000 Br
ENDBRANCH  21  24
ENDBRANCH   5  20
TORSDOF 4
ENDMDL
MODEL 9
REMARK VINA RESULT:      -6.9      1.709      1.829
REMARK  Name = 
REMARK  5 active torsions:
REMARK  status: ('A' for Active; 'I' for Inactive)
REMARK    1  A    between atoms: C_1  and  C_2
REMARK    2  A    between atoms: C_5  and  N_6
REMARK    3  A    between atoms: C_9  and  C_10
REMARK    4  A    between atoms: C_13  and  N_14
REMARK    5  A    between atoms: C_15  and  C_17
REMARK                            x       y       z     vdW  Elec       q    Type
REMARK                         _______ _______ _______ _____ _____    ______ ____
ROOT
ATOM      1  N   UNL     1       2.015   6.533  21.056  0.00  0.00    +0.000 N 
ATOM      2  C   UNL     1       1.554   7.772  20.773  0.00  0.00    +0.000 A 
ATOM      3  N   UNL     1       1.663   8.366  19.608  0.00  0.00    +0.000 NA
ATOM      4  C   UNL     1       1.033   9.610  19.624  0.00  0.00    +0.000 A 
ATOM      5  C   UNL     1       0.401   9.914  20.820  0.00  0.00    +0.000 A 
ATOM      6  S   UNL     1       0.786   8.711  21.976  0.00  0.00    +0.000 S 
ATOM      7  H   UNL     1       1.958   6.203  22.011  0.00  0.00    +0.000 HD
ENDROOT
BRANCH   1  12
ATOM      8  C   UNL     1       2.606   2.120  17.466  0.00  0.00    +0.000 C 
ATOM      9  C   UNL     1       2.394   3.307  18.355  0.00  0.00    +0.000 A 
ATOM     10  C   UNL     1       1.337   3.358  19.270  0.00  0.00    +0.000 A 
ATOM     11  C   UNL     1       1.192   4.452  20.128  0.00  0.00    +0.000 A 
ATOM     12  C   UNL     1       2.112   5.504  20.101  0.00  0.00    +0.000 A 
ATOM     13  C   UNL     1       3.144   5.462  19.153  0.00  0.00    +0.000 A 
ATOM     14  C   UNL     1       3.284   4.380  18.287  0.00  0.00    +0.000 A 
ENDBRANCH   1  12
BRANCH   4  15
ATOM     15  C   UNL     1       1.058  10.428  18.415  0.00  0.00    +0.000 C 
ATOM     16  N   UNL     1      -0.159  10.535  17.804  0.00  0.00    +0.000 N 
ATOM     17  O   UNL     1       2.068  10.965  17.970  0.00  0.00    +0.000 OA
ATOM     18  H   UNL     1      -0.953  10.037  18.201  0.00  0.00    +0.000 HD
ATOM     19  H   UNL     1      -0.256  11.032  16.931  0.00  0.00    +0.000 HD
ENDBRANCH   4  15
BRANCH   5  20
ATOM     20  N   UNL     1      -0.360  11.024  21.175  0.00  0.00    +0.000 N 
ATOM     21  C   UNL     1      -0.653  11.375  22.484  0.00  0.00    +0.000 C 
ATOM     22  O   UNL     1      -0.396  10.703  23.482  0.00  0.00    +0.000 OA
ATOM     23  H   UNL     1      -0.845  11.496  20.414  0.00  0.00    +0.000 HD
BRANCH  21  24
ATOM     24  C   UNL     1      -1.300  12.698  22.727  0.00  0.00    +0.000 A 
ATOM     25  C   UNL     1      -2.608  12.634  23.255  0.00  0.00    +0.000 A 
ATOM     26  C   UNL     1      -3.316  13.790  23.581  0.00  0.00    +0.000 A 
ATOM     27  C   UNL     1      -2.726  15.033  23.391  0.00  0.00    +0.000 A 
ATOM     28  C   UNL     1      -1.449  15.116  22.831  0.00  0.00    +0.000 A 
ATOM     29  C   UNL     1      -0.742  13.955  22.477  0.00  0.00    +0.000 A 
ATOM     30 BR   UNL     1       0.899  14.222  21.563  0.00  0.00    +0.000 Br
ENDBRANCH  21  24
ENDBRANCH   5  20
TORSDOF 4
ENDMDL
