MODEL 1
REMARK VINA RESULT:      -7.6      0.000      0.000
REMARK  Name = 
REMARK  7 active torsions:
REMARK  status: ('A' for Active; 'I' for Inactive)
REMARK    1  A    between atoms: C_1  and  C_2
REMARK    2  A    between atoms: C_2  and  C_3
REMARK    3  A    between atoms: C_3  and  C_4
REMARK    4  A    between atoms: C_4  and  N_5
REMARK    5  A    between atoms: C_6  and  C_8
REMARK    6  A    between atoms: C_8  and  C_9
REMARK    7  A    between atoms: C_13  and  C_15
REMARK                            x       y       z     vdW  Elec       q    Type
REMARK                         _______ _______ _______ _____ _____    ______ ____
ROOT
ATOM      1  C   UNL     1       2.011   3.879  20.189  0.00  0.00    +0.000 C 
ATOM      2  C   UNL     1       2.554   3.721  21.615  0.00  0.00    +0.000 C 
ATOM      3  C   UNL     1       0.703   3.054  19.997  0.00  0.00    +0.000 C 
ATOM      4  C   UNL     1       1.549   1.916  19.432  0.00  0.00    +0.000 C 
ATOM      5  N   UNL     1       2.635   2.881  19.289  0.00  0.00    +0.000 N 
ATOM      6  C   UNL     1       3.484   2.959  18.199  0.00  0.00    +0.000 C 
ATOM      7  O   UNL     1       3.394   2.123  17.300  0.00  0.00    +0.000 OA
ENDROOT
BRANCH   6   8
ATOM      8  C   UNL     1       4.496   4.004  18.139  0.00  0.00    +0.000 A 
ATOM      9  C   UNL     1       5.498   4.213  19.067  0.00  0.00    +0.000 A 
ATOM     10  C   UNL     1       6.351   5.317  18.741  0.00  0.00    +0.000 A 
ATOM     11  C   UNL     1       7.526   5.791  19.371  0.00  0.00    +0.000 A 
ATOM     12  C   UNL     1       8.233   6.867  18.827  0.00  0.00    +0.000 A 
ATOM     13  C   UNL     1       7.769   7.505  17.685  0.00  0.00    +0.000 A 
ATOM     14  C   UNL     1       6.590   7.084  17.065  0.00  0.00    +0.000 A 
ATOM     15  C   UNL     1       5.901   5.978  17.598  0.00  0.00    +0.000 A 
ATOM     16  S   UNL     1       4.463   5.262  16.993  0.00  0.00    +0.000 S 
ENDBRANCH   6   8
BRANCH   1  18
ATOM     17  N   UNL     1       2.062   6.358  20.644  0.00  0.00    +0.000 N 
ATOM     18  C   UNL     1       1.883   5.385  19.668  0.00  0.00    +0.000 C 
ATOM     19  O   UNL     1       1.607   5.699  18.510  0.00  0.00    +0.000 OA
ATOM     20  H   UNL     1       2.385   6.104  21.565  0.00  0.00    +0.000 HD
BRANCH  17  21
ATOM     21  C   UNL     1       1.844   7.768  20.399  0.00  0.00    +0.000 C 
BRANCH  21  22
ATOM     22  C   UNL     1       0.648   8.326  21.165  0.00  0.00    +0.000 C 
BRANCH  22  24
ATOM     23  C   UNL     1      -0.162   9.645  23.158  0.00  0.00    +0.000 C 
ATOM     24  C   UNL     1       1.055   9.164  22.379  0.00  0.00    +0.000 C 
ENDBRANCH  22  24
ENDBRANCH  21  22
ENDBRANCH  17  21
ENDBRANCH   1  18
TORSDOF 5
ENDMDL
MODEL 2
REMARK VINA RESULT:      -7.4      0.673      1.001
REMARK  Name = 
REMARK  7 active torsions:
REMARK  status: ('A' for Active; 'I' for Inactive)
REMARK    1  A    between atoms: C_1  and  C_2
REMARK    2  A    between atoms: C_2  and  C_3
REMARK    3  A    between atoms: C_3  and  C_4
REMARK    4  A    between atoms: C_4  and  N_5
REMARK    5  A    between atoms: C_6  and  C_8
REMARK    6  A    between atoms: C_8  and  C_9
REMARK    7  A    between atoms: C_13  and  C_15
REMARK                            x       y       z     vdW  Elec       q    Type
REMARK                         _______ _______ _______ _____ _____    ______ ____
ROOT
ATOM      1  C   UNL     1       2.030   3.839  20.102  0.00  0.00    +0.000 C 
ATOM      2  C   UNL     1       2.510   3.780  21.558  0.00  0.00    +0.000 C 
ATOM      3  C   UNL     1       0.756   2.965  19.900  0.00  0.00    +0.000 C 
ATOM      4  C   UNL     1       1.660   1.823  19.441  0.00  0.00    +0.000 C 
ATOM      5  N   UNL     1       2.723   2.812  19.291  0.00  0.00    +0.000 N 
ATOM      6  C   UNL     1       3.620   2.854  18.237  0.00  0.00    +0.000 C 
ATOM      7  O   UNL     1       3.597   1.965  17.385  0.00  0.00    +0.000 OA
ENDROOT
BRANCH   6   8
ATOM      8  C   UNL     1       4.604   3.924  18.162  0.00  0.00    +0.000 A 
ATOM      9  C   UNL     1       5.578   4.195  19.104  0.00  0.00    +0.000 A 
ATOM     10  C   UNL     1       6.407   5.311  18.758  0.00  0.00    +0.000 A 
ATOM     11  C   UNL     1       7.553   5.840  19.398  0.00  0.00    +0.000 A 
ATOM     12  C   UNL     1       8.242   6.916  18.831  0.00  0.00    +0.000 A 
ATOM     13  C   UNL     1       7.788   7.499  17.656  0.00  0.00    +0.000 A 
ATOM     14  C   UNL     1       6.637   7.023  17.025  0.00  0.00    +0.000 A 
ATOM     15  C   UNL     1       5.966   5.917  17.582  0.00  0.00    +0.000 A 
ATOM     16  S   UNL     1       4.563   5.139  16.971  0.00  0.00    +0.000 S 
ENDBRANCH   6   8
BRANCH   1  18
ATOM     17  N   UNL     1       2.174   6.341  20.372  0.00  0.00    +0.000 N 
ATOM     18  C   UNL     1       1.884   5.309  19.489  0.00  0.00    +0.000 C 
ATOM     19  O   UNL     1       1.506   5.549  18.342  0.00  0.00    +0.000 OA
ATOM     20  H   UNL     1       2.577   6.143  21.275  0.00  0.00    +0.000 HD
BRANCH  17  21
ATOM     21  C   UNL     1       1.962   7.736  20.049  0.00  0.00    +0.000 C 
BRANCH  21  22
ATOM     22  C   UNL     1       1.056   8.448  21.049  0.00  0.00    +0.000 C 
BRANCH  22  24
ATOM     23  C   UNL     1       0.669   9.863  18.997  0.00  0.00    +0.000 C 
ATOM     24  C   UNL     1       0.474   9.754  20.503  0.00  0.00    +0.000 C 
ENDBRANCH  22  24
ENDBRANCH  21  22
ENDBRANCH  17  21
ENDBRANCH   1  18
TORSDOF 5
ENDMDL
MODEL 3
REMARK VINA RESULT:      -7.3      0.891      1.407
REMARK  Name = 
REMARK  7 active torsions:
REMARK  status: ('A' for Active; 'I' for Inactive)
REMARK    1  A    between atoms: C_1  and  C_2
REMARK    2  A    between atoms: C_2  and  C_3
REMARK    3  A    between atoms: C_3  and  C_4
REMARK    4  A    between atoms: C_4  and  N_5
REMARK    5  A    between atoms: C_6  and  C_8
REMARK    6  A    between atoms: C_8  and  C_9
REMARK    7  A    between atoms: C_13  and  C_15
REMARK                            x       y       z     vdW  Elec       q    Type
REMARK                         _______ _______ _______ _____ _____    ______ ____
ROOT
ATOM      1  C   UNL     1       1.827   4.258  20.229  0.00  0.00    +0.000 C 
ATOM      2  C   UNL     1       2.377   3.736  21.562  0.00  0.00    +0.000 C 
ATOM      3  C   UNL     1       0.387   3.720  19.972  0.00  0.00    +0.000 C 
ATOM      4  C   UNL     1       0.998   2.587  19.151  0.00  0.00    +0.000 C 
ATOM      5  N   UNL     1       2.234   3.364  19.120  0.00  0.00    +0.000 N 
ATOM      6  C   UNL     1       3.049   3.509  18.011  0.00  0.00    +0.000 C 
ATOM      7  O   UNL     1       2.784   2.891  16.979  0.00  0.00    +0.000 OA
ENDROOT
BRANCH   6   8
ATOM      8  C   UNL     1       4.229   4.358  18.081  0.00  0.00    +0.000 A 
ATOM      9  C   UNL     1       4.571   5.344  17.175  0.00  0.00    +0.000 A 
ATOM     10  C   UNL     1       5.789   6.021  17.507  0.00  0.00    +0.000 A 
ATOM     11  C   UNL     1       6.420   7.132  16.898  0.00  0.00    +0.000 A 
ATOM     12  C   UNL     1       7.592   7.663  17.445  0.00  0.00    +0.000 A 
ATOM     13  C   UNL     1       8.167   7.083  18.567  0.00  0.00    +0.000 A 
ATOM     14  C   UNL     1       7.588   5.961  19.164  0.00  0.00    +0.000 A 
ATOM     15  C   UNL     1       6.389   5.452  18.629  0.00  0.00    +0.000 A 
ATOM     16  S   UNL     1       5.480   4.116  19.209  0.00  0.00    +0.000 S 
ENDBRANCH   6   8
BRANCH   1  18
ATOM     17  N   UNL     1       1.605   6.610  21.108  0.00  0.00    +0.000 N 
ATOM     18  C   UNL     1       1.953   5.836  20.007  0.00  0.00    +0.000 C 
ATOM     19  O   UNL     1       2.288   6.365  18.947  0.00  0.00    +0.000 OA
ATOM     20  H   UNL     1       1.427   6.178  22.001  0.00  0.00    +0.000 HD
BRANCH  17  21
ATOM     21  C   UNL     1       1.516   8.054  21.058  0.00  0.00    +0.000 C 
BRANCH  21  22
ATOM     22  C   UNL     1       0.158   8.583  21.508  0.00  0.00    +0.000 C 
BRANCH  22  24
ATOM     23  C   UNL     1      -0.785  10.446  22.924  0.00  0.00    +0.000 C 
ATOM     24  C   UNL     1       0.214   9.299  22.860  0.00  0.00    +0.000 C 
ENDBRANCH  22  24
ENDBRANCH  21  22
ENDBRANCH  17  21
ENDBRANCH   1  18
TORSDOF 5
ENDMDL
MODEL 4
REMARK VINA RESULT:      -7.2      1.699      2.193
REMARK  Name = 
REMARK  7 active torsions:
REMARK  status: ('A' for Active; 'I' for Inactive)
REMARK    1  A    between atoms: C_1  and  C_2
REMARK    2  A    between atoms: C_2  and  C_3
REMARK    3  A    between atoms: C_3  and  C_4
REMARK    4  A    between atoms: C_4  and  N_5
REMARK    5  A    between atoms: C_6  and  C_8
REMARK    6  A    between atoms: C_8  and  C_9
REMARK    7  A    between atoms: C_13  and  C_15
REMARK                            x       y       z     vdW  Elec       q    Type
REMARK                         _______ _______ _______ _____ _____    ______ ____
ROOT
ATOM      1  C   UNL     1       1.962   3.592  20.166  0.00  0.00    +0.000 C 
ATOM      2  C   UNL     1       2.648   2.667  21.181  0.00  0.00    +0.000 C 
ATOM      3  C   UNL     1       0.478   3.171  19.945  0.00  0.00    +0.000 C 
ATOM      4  C   UNL     1       0.930   2.358  18.734  0.00  0.00    +0.000 C 
ATOM      5  N   UNL     1       2.187   3.098  18.788  0.00  0.00    +0.000 N 
ATOM      6  C   UNL     1       2.864   3.586  17.684  0.00  0.00    +0.000 C 
ATOM      7  O   UNL     1       2.445   3.333  16.555  0.00  0.00    +0.000 OA
ENDROOT
BRANCH   6   8
ATOM      8  C   UNL     1       4.082   4.363  17.864  0.00  0.00    +0.000 A 
ATOM      9  C   UNL     1       4.495   5.415  17.068  0.00  0.00    +0.000 A 
ATOM     10  C   UNL     1       5.736   5.993  17.491  0.00  0.00    +0.000 A 
ATOM     11  C   UNL     1       6.436   7.124  17.011  0.00  0.00    +0.000 A 
ATOM     12  C   UNL     1       7.619   7.537  17.631  0.00  0.00    +0.000 A 
ATOM     13  C   UNL     1       8.136   6.820  18.701  0.00  0.00    +0.000 A 
ATOM     14  C   UNL     1       7.488   5.675  19.170  0.00  0.00    +0.000 A 
ATOM     15  C   UNL     1       6.279   5.284  18.562  0.00  0.00    +0.000 A 
ATOM     16  S   UNL     1       5.291   3.946  18.986  0.00  0.00    +0.000 S 
ENDBRANCH   6   8
BRANCH   1  18
ATOM     17  N   UNL     1       1.847   5.976  19.356  0.00  0.00    +0.000 N 
ATOM     18  C   UNL     1       2.134   5.157  20.442  0.00  0.00    +0.000 C 
ATOM     19  O   UNL     1       2.527   5.637  21.505  0.00  0.00    +0.000 OA
ATOM     20  H   UNL     1       1.432   5.592  18.522  0.00  0.00    +0.000 HD
BRANCH  17  21
ATOM     21  C   UNL     1       2.080   7.405  19.365  0.00  0.00    +0.000 C 
BRANCH  21  22
ATOM     22  C   UNL     1       2.322   7.977  17.971  0.00  0.00    +0.000 C 
BRANCH  22  24
ATOM     23  C   UNL     1       0.924   9.817  18.983  0.00  0.00    +0.000 C 
ATOM     24  C   UNL     1       1.827   9.417  17.824  0.00  0.00    +0.000 C 
ENDBRANCH  22  24
ENDBRANCH  21  22
ENDBRANCH  17  21
ENDBRANCH   1  18
TORSDOF 5
ENDMDL
MODEL 5
REMARK VINA RESULT:      -6.8      1.443      2.049
REMARK  Name = 
REMARK  7 active torsions:
REMARK  status: ('A' for Active; 'I' for Inactive)
REMARK    1  A    between atoms: C_1  and  C_2
REMARK    2  A    between atoms: C_2  and  C_3
REMARK    3  A    between atoms: C_3  and  C_4
REMARK    4  A    between atoms: C_4  and  N_5
REMARK    5  A    between atoms: C_6  and  C_8
REMARK    6  A    between atoms: C_8  and  C_9
REMARK    7  A    between atoms: C_13  and  C_15
REMARK                            x       y       z     vdW  Elec       q    Type
REMARK                         _______ _______ _______ _____ _____    ______ ____
ROOT
ATOM      1  C   UNL     1       1.935   3.849  19.978  0.00  0.00    +0.000 C 
ATOM      2  C   UNL     1       2.292   3.829  21.471  0.00  0.00    +0.000 C 
ATOM      3  C   UNL     1       0.658   3.000  19.700  0.00  0.00    +0.000 C 
ATOM      4  C   UNL     1       1.564   1.820  19.356  0.00  0.00    +0.000 C 
ATOM      5  N   UNL     1       2.663   2.775  19.262  0.00  0.00    +0.000 N 
ATOM      6  C   UNL     1       3.645   2.757  18.286  0.00  0.00    +0.000 C 
ATOM      7  O   UNL     1       3.666   1.840  17.465  0.00  0.00    +0.000 OA
ENDROOT
BRANCH   6   8
ATOM      8  C   UNL     1       4.661   3.799  18.257  0.00  0.00    +0.000 A 
ATOM      9  C   UNL     1       4.863   4.704  17.233  0.00  0.00    +0.000 A 
ATOM     10  C   UNL     1       5.937   5.617  17.487  0.00  0.00    +0.000 A 
ATOM     11  C   UNL     1       6.393   6.732  16.744  0.00  0.00    +0.000 A 
ATOM     12  C   UNL     1       7.440   7.522  17.229  0.00  0.00    +0.000 A 
ATOM     13  C   UNL     1       8.065   7.199  18.426  0.00  0.00    +0.000 A 
ATOM     14  C   UNL     1       7.663   6.080  19.159  0.00  0.00    +0.000 A 
ATOM     15  C   UNL     1       6.586   5.308  18.682  0.00  0.00    +0.000 A 
ATOM     16  S   UNL     1       5.895   3.922  19.423  0.00  0.00    +0.000 S 
ENDBRANCH   6   8
BRANCH   1  18
ATOM     17  N   UNL     1       2.176   6.351  20.165  0.00  0.00    +0.000 N 
ATOM     18  C   UNL     1       1.882   5.298  19.306  0.00  0.00    +0.000 C 
ATOM     19  O   UNL     1       1.568   5.510  18.135  0.00  0.00    +0.000 OA
ATOM     20  H   UNL     1       2.527   6.171  21.092  0.00  0.00    +0.000 HD
BRANCH  17  21
ATOM     21  C   UNL     1       2.040   7.740  19.782  0.00  0.00    +0.000 C 
BRANCH  21  22
ATOM     22  C   UNL     1       2.671   8.048  18.427  0.00  0.00    +0.000 C 
BRANCH  22  24
ATOM     23  C   UNL     1       0.952   9.891  18.549  0.00  0.00    +0.000 C 
ATOM     24  C   UNL     1       1.917   9.131  17.651  0.00  0.00    +0.000 C 
ENDBRANCH  22  24
ENDBRANCH  21  22
ENDBRANCH  17  21
ENDBRANCH   1  18
TORSDOF 5
ENDMDL
MODEL 6
REMARK VINA RESULT:      -6.6      2.761      6.121
REMARK  Name = 
REMARK  7 active torsions:
REMARK  status: ('A' for Active; 'I' for Inactive)
REMARK    1  A    between atoms: C_1  and  C_2
REMARK    2  A    between atoms: C_2  and  C_3
REMARK    3  A    between atoms: C_3  and  C_4
REMARK    4  A    between atoms: C_4  and  N_5
REMARK    5  A    between atoms: C_6  and  C_8
REMARK    6  A    between atoms: C_8  and  C_9
REMARK    7  A    between atoms: C_13  and  C_15
REMARK                            x       y       z     vdW  Elec       q    Type
REMARK                         _______ _______ _______ _____ _____    ______ ____
ROOT
ATOM      1  C   UNL     1       5.949   5.346  16.158  0.00  0.00    +0.000 C 
ATOM      2  C   UNL     1       5.644   6.203  14.922  0.00  0.00    +0.000 C 
ATOM      3  C   UNL     1       6.860   4.137  15.785  0.00  0.00    +0.000 C 
ATOM      4  C   UNL     1       5.602   3.284  15.639  0.00  0.00    +0.000 C 
ATOM      5  N   UNL     1       4.885   4.334  16.356  0.00  0.00    +0.000 N 
ATOM      6  C   UNL     1       3.931   4.113  17.334  0.00  0.00    +0.000 C 
ATOM      7  O   UNL     1       3.582   2.961  17.591  0.00  0.00    +0.000 OA
ENDROOT
BRANCH   6   8
ATOM      8  C   UNL     1       3.322   5.241  18.024  0.00  0.00    +0.000 A 
ATOM      9  C   UNL     1       3.058   6.480  17.472  0.00  0.00    +0.000 A 
ATOM     10  C   UNL     1       2.449   7.393  18.393  0.00  0.00    +0.000 A 
ATOM     11  C   UNL     1       1.947   8.701  18.197  0.00  0.00    +0.000 A 
ATOM     12  C   UNL     1       1.334   9.386  19.251  0.00  0.00    +0.000 A 
ATOM     13  C   UNL     1       1.245   8.803  20.507  0.00  0.00    +0.000 A 
ATOM     14  C   UNL     1       1.768   7.530  20.740  0.00  0.00    +0.000 A 
ATOM     15  C   UNL     1       2.355   6.832  19.667  0.00  0.00    +0.000 A 
ATOM     16  S   UNL     1       3.027   5.253  19.700  0.00  0.00    +0.000 S 
ENDBRANCH   6   8
BRANCH   1  18
ATOM     17  N   UNL     1       7.187   7.305  17.149  0.00  0.00    +0.000 N 
ATOM     18  C   UNL     1       6.469   6.151  17.437  0.00  0.00    +0.000 C 
ATOM     19  O   UNL     1       6.304   5.787  18.602  0.00  0.00    +0.000 OA
ATOM     20  H   UNL     1       7.236   7.653  16.204  0.00  0.00    +0.000 HD
BRANCH  17  21
ATOM     21  C   UNL     1       7.860   8.087  18.164  0.00  0.00    +0.000 C 
BRANCH  21  22
ATOM     22  C   UNL     1       8.252   9.480  17.679  0.00  0.00    +0.000 C 
BRANCH  22  24
ATOM     23  C   UNL     1       9.897  11.366  18.000  0.00  0.00    +0.000 C 
ATOM     24  C   UNL     1       9.139  10.230  18.675  0.00  0.00    +0.000 C 
ENDBRANCH  22  24
ENDBRANCH  21  22
ENDBRANCH  17  21
ENDBRANCH   1  18
TORSDOF 5
ENDMDL
MODEL 7
REMARK VINA RESULT:      -6.6      1.529      1.655
REMARK  Name = 
REMARK  7 active torsions:
REMARK  status: ('A' for Active; 'I' for Inactive)
REMARK    1  A    between atoms: C_1  and  C_2
REMARK    2  A    between atoms: C_2  and  C_3
REMARK    3  A    between atoms: C_3  and  C_4
REMARK    4  A    between atoms: C_4  and  N_5
REMARK    5  A    between atoms: C_6  and  C_8
REMARK    6  A    between atoms: C_8  and  C_9
REMARK    7  A    between atoms: C_13  and  C_15
REMARK                            x       y       z     vdW  Elec       q    Type
REMARK                         _______ _______ _______ _____ _____    ______ ____
ROOT
ATOM      1  C   UNL     1       1.623   3.883  19.423  0.00  0.00    +0.000 C 
ATOM      2  C   UNL     1       1.697   4.415  20.860  0.00  0.00    +0.000 C 
ATOM      3  C   UNL     1       0.437   2.884  19.260  0.00  0.00    +0.000 C 
ATOM      4  C   UNL     1       1.415   1.741  19.518  0.00  0.00    +0.000 C 
ATOM      5  N   UNL     1       2.493   2.694  19.271  0.00  0.00    +0.000 N 
ATOM      6  C   UNL     1       3.638   2.420  18.543  0.00  0.00    +0.000 C 
ATOM      7  O   UNL     1       3.830   1.279  18.121  0.00  0.00    +0.000 OA
ENDROOT
BRANCH   6   8
ATOM      8  C   UNL     1       4.620   3.469  18.311  0.00  0.00    +0.000 A 
ATOM      9  C   UNL     1       5.379   4.096  19.282  0.00  0.00    +0.000 A 
ATOM     10  C   UNL     1       6.267   5.089  18.754  0.00  0.00    +0.000 A 
ATOM     11  C   UNL     1       7.257   5.871  19.393  0.00  0.00    +0.000 A 
ATOM     12  C   UNL     1       8.053   6.746  18.649  0.00  0.00    +0.000 A 
ATOM     13  C   UNL     1       7.854   6.883  17.282  0.00  0.00    +0.000 A 
ATOM     14  C   UNL     1       6.856   6.154  16.632  0.00  0.00    +0.000 A 
ATOM     15  C   UNL     1       6.081   5.249  17.381  0.00  0.00    +0.000 A 
ATOM     16  S   UNL     1       4.832   4.224  16.801  0.00  0.00    +0.000 S 
ENDBRANCH   6   8
BRANCH   1  18
ATOM     17  N   UNL     1       2.362   6.151  18.610  0.00  0.00    +0.000 N 
ATOM     18  C   UNL     1       1.664   4.997  18.277  0.00  0.00    +0.000 C 
ATOM     19  O   UNL     1       1.099   4.895  17.188  0.00  0.00    +0.000 OA
ATOM     20  H   UNL     1       2.905   6.193  19.458  0.00  0.00    +0.000 HD
BRANCH  17  21
ATOM     21  C   UNL     1       2.390   7.325  17.763  0.00  0.00    +0.000 C 
BRANCH  21  22
ATOM     22  C   UNL     1       1.194   8.246  17.984  0.00  0.00    +0.000 C 
BRANCH  22  24
ATOM     23  C   UNL     1       0.260  10.065  19.462  0.00  0.00    +0.000 C 
ATOM     24  C   UNL     1       1.522   9.447  18.873  0.00  0.00    +0.000 C 
ENDBRANCH  22  24
ENDBRANCH  21  22
ENDBRANCH  17  21
ENDBRANCH   1  18
TORSDOF 5
ENDMDL
MODEL 8
REMARK VINA RESULT:      -6.6      3.324      7.479
REMARK  Name = 
REMARK  7 active torsions:
REMARK  status: ('A' for Active; 'I' for Inactive)
REMARK    1  A    between atoms: C_1  and  C_2
REMARK    2  A    between atoms: C_2  and  C_3
REMARK    3  A    between atoms: C_3  and  C_4
REMARK    4  A    between atoms: C_4  and  N_5
REMARK    5  A    between atoms: C_6  and  C_8
REMARK    6  A    between atoms: C_8  and  C_9
REMARK    7  A    between atoms: C_13  and  C_15
REMARK                            x       y       z     vdW  Elec       q    Type
REMARK                         _______ _______ _______ _____ _____    ______ ____
ROOT
ATOM      1  C   UNL     1       6.852   5.676  17.176  0.00  0.00    +0.000 C 
ATOM      2  C   UNL     1       7.780   5.162  18.284  0.00  0.00    +0.000 C 
ATOM      3  C   UNL     1       7.554   6.782  16.331  0.00  0.00    +0.000 C 
ATOM      4  C   UNL     1       6.891   7.830  17.222  0.00  0.00    +0.000 C 
ATOM      5  N   UNL     1       5.999   6.773  17.689  0.00  0.00    +0.000 N 
ATOM      6  C   UNL     1       4.638   6.923  17.898  0.00  0.00    +0.000 C 
ATOM      7  O   UNL     1       4.123   8.033  17.763  0.00  0.00    +0.000 OA
ENDROOT
BRANCH   6   8
ATOM      8  C   UNL     1       3.836   5.780  18.310  0.00  0.00    +0.000 A 
ATOM      9  C   UNL     1       2.625   5.403  17.762  0.00  0.00    +0.000 A 
ATOM     10  C   UNL     1       2.068   4.231  18.369  0.00  0.00    +0.000 A 
ATOM     11  C   UNL     1       0.913   3.484  18.040  0.00  0.00    +0.000 A 
ATOM     12  C   UNL     1       0.597   2.323  18.753  0.00  0.00    +0.000 A 
ATOM     13  C   UNL     1       1.395   1.913  19.813  0.00  0.00    +0.000 A 
ATOM     14  C   UNL     1       2.518   2.654  20.186  0.00  0.00    +0.000 A 
ATOM     15  C   UNL     1       2.849   3.804  19.443  0.00  0.00    +0.000 A 
ATOM     16  S   UNL     1       4.192   4.845  19.686  0.00  0.00    +0.000 S 
ENDBRANCH   6   8
BRANCH   1  18
ATOM     17  N   UNL     1       6.145   4.813  14.915  0.00  0.00    +0.000 N 
ATOM     18  C   UNL     1       6.165   4.545  16.279  0.00  0.00    +0.000 C 
ATOM     19  O   UNL     1       5.646   3.523  16.727  0.00  0.00    +0.000 OA
ATOM     20  H   UNL     1       6.655   5.598  14.542  0.00  0.00    +0.000 HD
BRANCH  17  21
ATOM     21  C   UNL     1       5.443   3.982  13.960  0.00  0.00    +0.000 C 
BRANCH  21  22
ATOM     22  C   UNL     1       6.304   3.594  12.762  0.00  0.00    +0.000 C 
BRANCH  22  24
ATOM     23  C   UNL     1       4.214   3.229  11.398  0.00  0.00    +0.000 C 
ATOM     24  C   UNL     1       5.579   2.672  11.780  0.00  0.00    +0.000 C 
ENDBRANCH  22  24
ENDBRANCH  21  22
ENDBRANCH  17  21
ENDBRANCH   1  18
TORSDOF 5
ENDMDL
MODEL 9
REMARK VINA RESULT:      -6.5      1.698      1.881
REMARK  Name = 
REMARK  7 active torsions:
REMARK  status: ('A' for Active; 'I' for Inactive)
REMARK    1  A    between atoms: C_1  and  C_2
REMARK    2  A    between atoms: C_2  and  C_3
REMARK    3  A    between atoms: C_3  and  C_4
REMARK    4  A    between atoms: C_4  and  N_5
REMARK    5  A    between atoms: C_6  and  C_8
REMARK    6  A    between atoms: C_8  and  C_9
REMARK    7  A    between atoms: C_13  and  C_15
REMARK                            x       y       z     vdW  Elec       q    Type
REMARK                         _______ _______ _______ _____ _____    ______ ____
ROOT
ATOM      1  C   UNL     1       2.086   3.551  20.138  0.00  0.00    +0.000 C 
ATOM      2  C   UNL     1       2.820   2.659  21.148  0.00  0.00    +0.000 C 
ATOM      3  C   UNL     1       0.621   3.063  19.928  0.00  0.00    +0.000 C 
ATOM      4  C   UNL     1       1.100   2.270  18.714  0.00  0.00    +0.000 C 
ATOM      5  N   UNL     1       2.322   3.066  18.758  0.00  0.00    +0.000 N 
ATOM      6  C   UNL     1       2.969   3.584  17.649  0.00  0.00    +0.000 C 
ATOM      7  O   UNL     1       2.553   3.311  16.523  0.00  0.00    +0.000 OA
ENDROOT
BRANCH   6   8
ATOM      8  C   UNL     1       4.152   4.415  17.819  0.00  0.00    +0.000 A 
ATOM      9  C   UNL     1       5.066   4.319  18.851  0.00  0.00    +0.000 A 
ATOM     10  C   UNL     1       6.134   5.269  18.753  0.00  0.00    +0.000 A 
ATOM     11  C   UNL     1       7.297   5.433  19.541  0.00  0.00    +0.000 A 
ATOM     12  C   UNL     1       8.241   6.410  19.212  0.00  0.00    +0.000 A 
ATOM     13  C   UNL     1       8.028   7.252  18.129  0.00  0.00    +0.000 A 
ATOM     14  C   UNL     1       6.870   7.140  17.357  0.00  0.00    +0.000 A 
ATOM     15  C   UNL     1       5.939   6.132  17.674  0.00  0.00    +0.000 A 
ATOM     16  S   UNL     1       4.472   5.780  16.855  0.00  0.00    +0.000 S 
ENDBRANCH   6   8
BRANCH   1  18
ATOM     17  N   UNL     1       1.845   5.927  19.332  0.00  0.00    +0.000 N 
ATOM     18  C   UNL     1       2.189   5.123  20.411  0.00  0.00    +0.000 C 
ATOM     19  O   UNL     1       2.578   5.620  21.468  0.00  0.00    +0.000 OA
ATOM     20  H   UNL     1       1.434   5.523  18.504  0.00  0.00    +0.000 HD
BRANCH  17  21
ATOM     21  C   UNL     1       2.012   7.365  19.337  0.00  0.00    +0.000 C 
BRANCH  21  22
ATOM     22  C   UNL     1       2.073   7.962  17.935  0.00  0.00    +0.000 C 
BRANCH  22  24
ATOM     23  C   UNL     1       0.419   9.859  18.109  0.00  0.00    +0.000 C 
ATOM     24  C   UNL     1       1.882   9.481  17.924  0.00  0.00    +0.000 C 
ENDBRANCH  22  24
ENDBRANCH  21  22
ENDBRANCH  17  21
ENDBRANCH   1  18
TORSDOF 5
ENDMDL
