MODEL 1
REMARK VINA RESULT:      -7.7      0.000      0.000
REMARK  Name = 
REMARK  8 active torsions:
REMARK  status: ('A' for Active; 'I' for Inactive)
REMARK    1  A    between atoms: C_1  and  C_2
REMARK    2  A    between atoms: C_2  and  C_3
REMARK    3  A    between atoms: C_6  and  C_7
REMARK    4  A    between atoms: C_8  and  C_9
REMARK    5  A    between atoms: N_11  and  C_12
REMARK    6  A    between atoms: N_15  and  C_16
REMARK    7  A    between atoms: C_16  and  C_17
REMARK    8  A    between atoms: N_19  and  C_20
REMARK                            x       y       z     vdW  Elec       q    Type
REMARK                         _______ _______ _______ _____ _____    ______ ____
ROOT
ATOM      1  C   UNL     1       2.277   7.738  18.876  0.00  0.00    +0.000 A 
ATOM      2  C   UNL     1       2.416   8.428  17.650  0.00  0.00    +0.000 A 
ATOM      3  N   UNL     1       1.854   9.639  17.687  0.00  0.00    +0.000 NA
ATOM      4  N   UNL     1       1.386   9.740  18.949  0.00  0.00    +0.000 N 
ATOM      5  C   UNL     1       1.491   8.567  19.645  0.00  0.00    +0.000 A 
ENDROOT
BRANCH   1   8
ATOM      6  C   UNL     1       2.466   5.310  18.820  0.00  0.00    +0.000 C 
ATOM      7  O   UNL     1       1.706   5.152  17.885  0.00  0.00    +0.000 OA
ATOM      8  N   UNL     1       2.788   6.550  19.352  0.00  0.00    +0.000 N 
ATOM      9  H   UNL     1       3.608   6.630  19.931  0.00  0.00    +0.000 HD
BRANCH   6  15
ATOM     10  C   UNL     1       4.490   3.722  19.080  0.00  0.00    +0.000 A 
ATOM     11  N   UNL     1       4.843   2.663  19.817  0.00  0.00    +0.000 NA
ATOM     12  O   UNL     1       3.765   2.384  20.618  0.00  0.00    +0.000 OA
ATOM     13  C   UNL     1       2.769   3.279  20.386  0.00  0.00    +0.000 A 
ATOM     14  C   UNL     1       1.551   3.041  21.189  0.00  0.00    +0.000 C 
ATOM     15  C   UNL     1       3.178   4.180  19.417  0.00  0.00    +0.000 A 
BRANCH  10  17
ATOM     16  C   UNL     1       4.993   4.054  16.654  0.00  0.00    +0.000 C 
ATOM     17  C   UNL     1       5.466   4.260  18.086  0.00  0.00    +0.000 C 
ENDBRANCH  10  17
ENDBRANCH   6  15
ENDBRANCH   1   8
BRANCH   4  18
ATOM     18  C   UNL     1       0.883  11.018  19.420  0.00  0.00    +0.000 C 
BRANCH  18  19
ATOM     19  C   UNL     1      -0.167  11.627  18.508  0.00  0.00    +0.000 C 
ATOM     20  O   UNL     1      -0.238  12.839  18.303  0.00  0.00    +0.000 OA
ATOM     21  N   UNL     1      -1.073  10.735  17.956  0.00  0.00    +0.000 N 
ATOM     22  H   UNL     1      -0.738   9.785  17.814  0.00  0.00    +0.000 HD
BRANCH  21  23
ATOM     23  C   UNL     1      -2.131  11.209  17.077  0.00  0.00    +0.000 C 
ATOM     24  C   UNL     1      -2.490  10.190  15.999  0.00  0.00    +0.000 C 
ATOM     25  C   UNL     1      -3.870  10.624  15.522  0.00  0.00    +0.000 C 
ATOM     26  C   UNL     1      -4.532  11.307  16.714  0.00  0.00    +0.000 C 
ATOM     27  C   UNL     1      -3.461  11.424  17.794  0.00  0.00    +0.000 C 
ENDBRANCH  21  23
ENDBRANCH  18  19
ENDBRANCH   4  18
TORSDOF 6
ENDMDL
MODEL 2
REMARK VINA RESULT:      -7.5      0.654      1.963
REMARK  Name = 
REMARK  8 active torsions:
REMARK  status: ('A' for Active; 'I' for Inactive)
REMARK    1  A    between atoms: C_1  and  C_2
REMARK    2  A    between atoms: C_2  and  C_3
REMARK    3  A    between atoms: C_6  and  C_7
REMARK    4  A    between atoms: C_8  and  C_9
REMARK    5  A    between atoms: N_11  and  C_12
REMARK    6  A    between atoms: N_15  and  C_16
REMARK    7  A    between atoms: C_16  and  C_17
REMARK    8  A    between atoms: N_19  and  C_20
REMARK                            x       y       z     vdW  Elec       q    Type
REMARK                         _______ _______ _______ _____ _____    ______ ____
ROOT
ATOM      1  C   UNL     1       2.292   7.793  18.940  0.00  0.00    +0.000 A 
ATOM      2  C   UNL     1       2.374   8.556  17.753  0.00  0.00    +0.000 A 
ATOM      3  N   UNL     1       1.729   9.721  17.857  0.00  0.00    +0.000 NA
ATOM      4  N   UNL     1       1.264   9.720  19.124  0.00  0.00    +0.000 N 
ATOM      5  C   UNL     1       1.455   8.522  19.755  0.00  0.00    +0.000 A 
ENDROOT
BRANCH   1   8
ATOM      6  C   UNL     1       2.715   5.406  18.701  0.00  0.00    +0.000 C 
ATOM      7  O   UNL     1       2.025   5.260  17.711  0.00  0.00    +0.000 OA
ATOM      8  N   UNL     1       2.888   6.620  19.350  0.00  0.00    +0.000 N 
ATOM      9  H   UNL     1       3.665   6.724  19.982  0.00  0.00    +0.000 HD
BRANCH   6  15
ATOM     10  C   UNL     1       3.023   3.256  20.103  0.00  0.00    +0.000 A 
ATOM     11  N   UNL     1       4.001   2.399  20.421  0.00  0.00    +0.000 NA
ATOM     12  O   UNL     1       5.135   2.880  19.818  0.00  0.00    +0.000 OA
ATOM     13  C   UNL     1       4.847   4.010  19.120  0.00  0.00    +0.000 A 
ATOM     14  C   UNL     1       6.019   4.616  18.453  0.00  0.00    +0.000 C 
ATOM     15  C   UNL     1       3.499   4.298  19.248  0.00  0.00    +0.000 A 
BRANCH  10  17
ATOM     16  C   UNL     1       0.681   2.594  19.534  0.00  0.00    +0.000 C 
ATOM     17  C   UNL     1       1.650   3.004  20.633  0.00  0.00    +0.000 C 
ENDBRANCH  10  17
ENDBRANCH   6  15
ENDBRANCH   1   8
BRANCH   4  18
ATOM     18  C   UNL     1       0.676  10.933  19.665  0.00  0.00    +0.000 C 
BRANCH  18  19
ATOM     19  C   UNL     1      -0.338  11.578  18.737  0.00  0.00    +0.000 C 
ATOM     20  O   UNL     1      -0.468  12.800  18.651  0.00  0.00    +0.000 OA
ATOM     21  N   UNL     1      -1.144  10.703  18.027  0.00  0.00    +0.000 N 
ATOM     22  H   UNL     1      -0.742   9.792  17.817  0.00  0.00    +0.000 HD
BRANCH  21  23
ATOM     23  C   UNL     1      -2.160  11.210  17.118  0.00  0.00    +0.000 C 
ATOM     24  C   UNL     1      -2.471  10.231  15.989  0.00  0.00    +0.000 C 
ATOM     25  C   UNL     1      -3.827  10.684  15.466  0.00  0.00    +0.000 C 
ATOM     26  C   UNL     1      -4.543  11.327  16.650  0.00  0.00    +0.000 C 
ATOM     27  C   UNL     1      -3.522  11.403  17.781  0.00  0.00    +0.000 C 
ENDBRANCH  21  23
ENDBRANCH  18  19
ENDBRANCH   4  18
TORSDOF 6
ENDMDL
MODEL 3
REMARK VINA RESULT:      -7.0      2.620      4.130
REMARK  Name = 
REMARK  8 active torsions:
REMARK  status: ('A' for Active; 'I' for Inactive)
REMARK    1  A    between atoms: C_1  and  C_2
REMARK    2  A    between atoms: C_2  and  C_3
REMARK    3  A    between atoms: C_6  and  C_7
REMARK    4  A    between atoms: C_8  and  C_9
REMARK    5  A    between atoms: N_11  and  C_12
REMARK    6  A    between atoms: N_15  and  C_16
REMARK    7  A    between atoms: C_16  and  C_17
REMARK    8  A    between atoms: N_19  and  C_20
REMARK                            x       y       z     vdW  Elec       q    Type
REMARK                         _______ _______ _______ _____ _____    ______ ____
ROOT
ATOM      1  C   UNL     1       2.228   7.814  19.051  0.00  0.00    +0.000 A 
ATOM      2  C   UNL     1       2.259   8.680  17.934  0.00  0.00    +0.000 A 
ATOM      3  N   UNL     1       1.519   9.775  18.124  0.00  0.00    +0.000 NA
ATOM      4  N   UNL     1       1.042   9.628  19.378  0.00  0.00    +0.000 N 
ATOM      5  C   UNL     1       1.325   8.400  19.909  0.00  0.00    +0.000 A 
ENDROOT
BRANCH   1   8
ATOM      6  C   UNL     1       2.689   5.440  18.754  0.00  0.00    +0.000 C 
ATOM      7  O   UNL     1       1.868   5.267  17.876  0.00  0.00    +0.000 OA
ATOM      8  N   UNL     1       2.915   6.663  19.370  0.00  0.00    +0.000 N 
ATOM      9  H   UNL     1       3.772   6.795  19.883  0.00  0.00    +0.000 HD
BRANCH   6  15
ATOM     10  C   UNL     1       3.191   3.112  19.759  0.00  0.00    +0.000 A 
ATOM     11  N   UNL     1       4.255   2.349  20.037  0.00  0.00    +0.000 NA
ATOM     12  O   UNL     1       5.354   3.091  19.686  0.00  0.00    +0.000 OA
ATOM     13  C   UNL     1       4.962   4.290  19.179  0.00  0.00    +0.000 A 
ATOM     14  C   UNL     1       6.085   5.173  18.795  0.00  0.00    +0.000 C 
ATOM     15  C   UNL     1       3.579   4.361  19.182  0.00  0.00    +0.000 A 
BRANCH  10  17
ATOM     16  C   UNL     1       1.441   2.766  21.510  0.00  0.00    +0.000 C 
ATOM     17  C   UNL     1       1.829   2.574  20.051  0.00  0.00    +0.000 C 
ENDBRANCH  10  17
ENDBRANCH   6  15
ENDBRANCH   1   8
BRANCH   4  18
ATOM     18  C   UNL     1       0.350  10.737  20.010  0.00  0.00    +0.000 C 
BRANCH  18  19
ATOM     19  C   UNL     1       1.230  11.957  20.218  0.00  0.00    +0.000 C 
ATOM     20  O   UNL     1       1.558  12.349  21.338  0.00  0.00    +0.000 OA
ATOM     21  N   UNL     1       1.603  12.632  19.066  0.00  0.00    +0.000 N 
ATOM     22  H   UNL     1       1.669  12.072  18.219  0.00  0.00    +0.000 HD
BRANCH  21  23
ATOM     23  C   UNL     1       2.435  13.822  19.146  0.00  0.00    +0.000 C 
ATOM     24  C   UNL     1       3.406  13.933  17.974  0.00  0.00    +0.000 C 
ATOM     25  C   UNL     1       3.811  15.402  17.963  0.00  0.00    +0.000 C 
ATOM     26  C   UNL     1       2.627  16.170  18.543  0.00  0.00    +0.000 C 
ATOM     27  C   UNL     1       1.640  15.123  19.050  0.00  0.00    +0.000 C 
ENDBRANCH  21  23
ENDBRANCH  18  19
ENDBRANCH   4  18
TORSDOF 6
ENDMDL
MODEL 4
REMARK VINA RESULT:      -6.9      1.634      2.757
REMARK  Name = 
REMARK  8 active torsions:
REMARK  status: ('A' for Active; 'I' for Inactive)
REMARK    1  A    between atoms: C_1  and  C_2
REMARK    2  A    between atoms: C_2  and  C_3
REMARK    3  A    between atoms: C_6  and  C_7
REMARK    4  A    between atoms: C_8  and  C_9
REMARK    5  A    between atoms: N_11  and  C_12
REMARK    6  A    between atoms: N_15  and  C_16
REMARK    7  A    between atoms: C_16  and  C_17
REMARK    8  A    between atoms: N_19  and  C_20
REMARK                            x       y       z     vdW  Elec       q    Type
REMARK                         _______ _______ _______ _____ _____    ______ ____
ROOT
ATOM      1  C   UNL     1       1.141   8.145  21.148  0.00  0.00    +0.000 A 
ATOM      2  C   UNL     1      -0.165   8.433  21.603  0.00  0.00    +0.000 A 
ATOM      3  N   UNL     1      -0.440   9.739  21.554  0.00  0.00    +0.000 NA
ATOM      4  N   UNL     1       0.679  10.285  21.033  0.00  0.00    +0.000 N 
ATOM      5  C   UNL     1       1.699   9.382  20.914  0.00  0.00    +0.000 A 
ENDROOT
BRANCH   1   8
ATOM      6  C   UNL     1       2.330   6.634  19.653  0.00  0.00    +0.000 C 
ATOM      7  O   UNL     1       2.240   7.342  18.669  0.00  0.00    +0.000 OA
ATOM      8  N   UNL     1       1.814   6.969  20.896  0.00  0.00    +0.000 N 
ATOM      9  H   UNL     1       2.150   6.476  21.708  0.00  0.00    +0.000 HD
BRANCH   6  15
ATOM     10  C   UNL     1       2.611   4.092  20.032  0.00  0.00    +0.000 A 
ATOM     11  N   UNL     1       3.549   3.152  19.864  0.00  0.00    +0.000 NA
ATOM     12  O   UNL     1       4.652   3.802  19.374  0.00  0.00    +0.000 OA
ATOM     13  C   UNL     1       4.383   5.126  19.224  0.00  0.00    +0.000 A 
ATOM     14  C   UNL     1       5.527   5.917  18.722  0.00  0.00    +0.000 C 
ATOM     15  C   UNL     1       3.079   5.377  19.615  0.00  0.00    +0.000 A 
BRANCH  10  17
ATOM     16  C   UNL     1       1.410   2.642  21.676  0.00  0.00    +0.000 C 
ATOM     17  C   UNL     1       1.281   3.686  20.577  0.00  0.00    +0.000 C 
ENDBRANCH  10  17
ENDBRANCH   6  15
ENDBRANCH   1   8
BRANCH   4  18
ATOM     18  C   UNL     1       0.672  11.683  20.642  0.00  0.00    +0.000 C 
BRANCH  18  19
ATOM     19  C   UNL     1      -0.068  11.941  19.341  0.00  0.00    +0.000 C 
ATOM     20  O   UNL     1       0.146  12.937  18.648  0.00  0.00    +0.000 OA
ATOM     21  N   UNL     1      -1.035  11.008  19.005  0.00  0.00    +0.000 N 
ATOM     22  H   UNL     1      -0.884  10.062  19.346  0.00  0.00    +0.000 HD
BRANCH  21  23
ATOM     23  C   UNL     1      -1.816  11.162  17.787  0.00  0.00    +0.000 C 
ATOM     24  C   UNL     1      -1.924   9.860  16.998  0.00  0.00    +0.000 C 
ATOM     25  C   UNL     1      -3.120  10.079  16.080  0.00  0.00    +0.000 C 
ATOM     26  C   UNL     1      -4.040  11.051  16.812  0.00  0.00    +0.000 C 
ATOM     27  C   UNL     1      -3.277  11.521  18.046  0.00  0.00    +0.000 C 
ENDBRANCH  21  23
ENDBRANCH  18  19
ENDBRANCH   4  18
TORSDOF 6
ENDMDL
MODEL 5
REMARK VINA RESULT:      -6.9      2.459      4.029
REMARK  Name = 
REMARK  8 active torsions:
REMARK  status: ('A' for Active; 'I' for Inactive)
REMARK    1  A    between atoms: C_1  and  C_2
REMARK    2  A    between atoms: C_2  and  C_3
REMARK    3  A    between atoms: C_6  and  C_7
REMARK    4  A    between atoms: C_8  and  C_9
REMARK    5  A    between atoms: N_11  and  C_12
REMARK    6  A    between atoms: N_15  and  C_16
REMARK    7  A    between atoms: C_16  and  C_17
REMARK    8  A    between atoms: N_19  and  C_20
REMARK                            x       y       z     vdW  Elec       q    Type
REMARK                         _______ _______ _______ _____ _____    ______ ____
ROOT
ATOM      1  C   UNL     1       2.172   7.751  19.264  0.00  0.00    +0.000 A 
ATOM      2  C   UNL     1       2.115   8.587  18.126  0.00  0.00    +0.000 A 
ATOM      3  N   UNL     1       1.425   9.707  18.358  0.00  0.00    +0.000 NA
ATOM      4  N   UNL     1       1.070   9.605  19.656  0.00  0.00    +0.000 N 
ATOM      5  C   UNL     1       1.373   8.383  20.190  0.00  0.00    +0.000 A 
ENDROOT
BRANCH   1   8
ATOM      6  C   UNL     1       2.677   5.405  18.847  0.00  0.00    +0.000 C 
ATOM      7  O   UNL     1       1.902   5.277  17.921  0.00  0.00    +0.000 OA
ATOM      8  N   UNL     1       2.857   6.589  19.547  0.00  0.00    +0.000 N 
ATOM      9  H   UNL     1       3.686   6.698  20.108  0.00  0.00    +0.000 HD
BRANCH   6  15
ATOM     10  C   UNL     1       3.161   3.046  19.790  0.00  0.00    +0.000 A 
ATOM     11  N   UNL     1       4.220   2.272  20.056  0.00  0.00    +0.000 NA
ATOM     12  O   UNL     1       5.324   3.019  19.736  0.00  0.00    +0.000 OA
ATOM     13  C   UNL     1       4.942   4.234  19.260  0.00  0.00    +0.000 A 
ATOM     14  C   UNL     1       6.071   5.122  18.911  0.00  0.00    +0.000 C 
ATOM     15  C   UNL     1       3.559   4.310  19.253  0.00  0.00    +0.000 A 
BRANCH  10  17
ATOM     16  C   UNL     1       1.313   2.836  21.460  0.00  0.00    +0.000 C 
ATOM     17  C   UNL     1       1.795   2.506  20.054  0.00  0.00    +0.000 C 
ENDBRANCH  10  17
ENDBRANCH   6  15
ENDBRANCH   1   8
BRANCH   4  18
ATOM     18  C   UNL     1       0.473  10.750  20.321  0.00  0.00    +0.000 C 
BRANCH  18  19
ATOM     19  C   UNL     1       0.454  12.003  19.464  0.00  0.00    +0.000 C 
ATOM     20  O   UNL     1      -0.550  12.365  18.850  0.00  0.00    +0.000 OA
ATOM     21  N   UNL     1       1.654  12.691  19.380  0.00  0.00    +0.000 N 
ATOM     22  H   UNL     1       2.276  12.609  20.180  0.00  0.00    +0.000 HD
BRANCH  21  23
ATOM     23  C   UNL     1       1.756  13.899  18.576  0.00  0.00    +0.000 C 
ATOM     24  C   UNL     1       1.441  15.159  19.378  0.00  0.00    +0.000 C 
ATOM     25  C   UNL     1       2.053  16.286  18.556  0.00  0.00    +0.000 C 
ATOM     26  C   UNL     1       3.233  15.671  17.810  0.00  0.00    +0.000 C 
ATOM     27  C   UNL     1       3.169  14.169  18.065  0.00  0.00    +0.000 C 
ENDBRANCH  21  23
ENDBRANCH  18  19
ENDBRANCH   4  18
TORSDOF 6
ENDMDL
MODEL 6
REMARK VINA RESULT:      -6.8      3.117      8.600
REMARK  Name = 
REMARK  8 active torsions:
REMARK  status: ('A' for Active; 'I' for Inactive)
REMARK    1  A    between atoms: C_1  and  C_2
REMARK    2  A    between atoms: C_2  and  C_3
REMARK    3  A    between atoms: C_6  and  C_7
REMARK    4  A    between atoms: C_8  and  C_9
REMARK    5  A    between atoms: N_11  and  C_12
REMARK    6  A    between atoms: N_15  and  C_16
REMARK    7  A    between atoms: C_16  and  C_17
REMARK    8  A    between atoms: N_19  and  C_20
REMARK                            x       y       z     vdW  Elec       q    Type
REMARK                         _______ _______ _______ _____ _____    ______ ____
ROOT
ATOM      1  C   UNL     1       2.826   7.073  18.199  0.00  0.00    +0.000 A 
ATOM      2  C   UNL     1       2.949   5.683  17.976  0.00  0.00    +0.000 A 
ATOM      3  N   UNL     1       4.180   5.344  17.582  0.00  0.00    +0.000 NA
ATOM      4  N   UNL     1       4.855   6.513  17.589  0.00  0.00    +0.000 N 
ATOM      5  C   UNL     1       4.041   7.589  17.811  0.00  0.00    +0.000 A 
ENDROOT
BRANCH   1   8
ATOM      6  C   UNL     1       1.531   9.136  18.268  0.00  0.00    +0.000 C 
ATOM      7  O   UNL     1       2.131   9.685  17.366  0.00  0.00    +0.000 OA
ATOM      8  N   UNL     1       1.821   7.858  18.724  0.00  0.00    +0.000 N 
ATOM      9  H   UNL     1       1.130   7.372  19.273  0.00  0.00    +0.000 HD
BRANCH   6  15
ATOM     10  C   UNL     1       0.246  10.122  20.284  0.00  0.00    +0.000 A 
ATOM     11  N   UNL     1      -0.941  10.685  20.536  0.00  0.00    +0.000 NA
ATOM     12  O   UNL     1      -1.623  10.679  19.346  0.00  0.00    +0.000 OA
ATOM     13  C   UNL     1      -0.849  10.134  18.370  0.00  0.00    +0.000 A 
ATOM     14  C   UNL     1      -1.513  10.061  17.050  0.00  0.00    +0.000 C 
ATOM     15  C   UNL     1       0.375   9.769  18.904  0.00  0.00    +0.000 A 
BRANCH  10  17
ATOM     16  C   UNL     1       0.579   9.342  22.635  0.00  0.00    +0.000 C 
ATOM     17  C   UNL     1       1.219   9.971  21.406  0.00  0.00    +0.000 C 
ENDBRANCH  10  17
ENDBRANCH   6  15
ENDBRANCH   1   8
BRANCH   4  18
ATOM     18  C   UNL     1       6.295   6.502  17.407  0.00  0.00    +0.000 C 
BRANCH  18  19
ATOM     19  C   UNL     1       6.775   5.424  16.451  0.00  0.00    +0.000 C 
ATOM     20  O   UNL     1       7.676   4.637  16.745  0.00  0.00    +0.000 OA
ATOM     21  N   UNL     1       6.165   5.411  15.207  0.00  0.00    +0.000 N 
ATOM     22  H   UNL     1       5.211   5.761  15.171  0.00  0.00    +0.000 HD
BRANCH  21  23
ATOM     23  C   UNL     1       6.556   4.429  14.206  0.00  0.00    +0.000 C 
ATOM     24  C   UNL     1       5.354   3.834  13.478  0.00  0.00    +0.000 C 
ATOM     25  C   UNL     1       5.946   3.243  12.204  0.00  0.00    +0.000 C 
ATOM     26  C   UNL     1       7.176   4.085  11.881  0.00  0.00    +0.000 C 
ATOM     27  C   UNL     1       7.381   5.023  13.067  0.00  0.00    +0.000 C 
ENDBRANCH  21  23
ENDBRANCH  18  19
ENDBRANCH   4  18
TORSDOF 6
ENDMDL
MODEL 7
REMARK VINA RESULT:      -6.8      6.088      9.258
REMARK  Name = 
REMARK  8 active torsions:
REMARK  status: ('A' for Active; 'I' for Inactive)
REMARK    1  A    between atoms: C_1  and  C_2
REMARK    2  A    between atoms: C_2  and  C_3
REMARK    3  A    between atoms: C_6  and  C_7
REMARK    4  A    between atoms: C_8  and  C_9
REMARK    5  A    between atoms: N_11  and  C_12
REMARK    6  A    between atoms: N_15  and  C_16
REMARK    7  A    between atoms: C_16  and  C_17
REMARK    8  A    between atoms: N_19  and  C_20
REMARK                            x       y       z     vdW  Elec       q    Type
REMARK                         _______ _______ _______ _____ _____    ______ ____
ROOT
ATOM      1  C   UNL     1       7.937   8.395  17.904  0.00  0.00    +0.000 A 
ATOM      2  C   UNL     1       8.339   7.214  18.567  0.00  0.00    +0.000 A 
ATOM      3  N   UNL     1       7.514   6.193  18.322  0.00  0.00    +0.000 NA
ATOM      4  N   UNL     1       6.603   6.711  17.472  0.00  0.00    +0.000 N 
ATOM      5  C   UNL     1       6.739   8.063  17.314  0.00  0.00    +0.000 A 
ENDROOT
BRANCH   1   8
ATOM      6  C   UNL     1       9.052  10.367  18.799  0.00  0.00    +0.000 C 
ATOM      7  O   UNL     1       9.055   9.990  19.954  0.00  0.00    +0.000 OA
ATOM      8  N   UNL     1       8.521   9.634  17.748  0.00  0.00    +0.000 N 
ATOM      9  H   UNL     1       8.787   9.875  16.807  0.00  0.00    +0.000 HD
BRANCH   6  15
ATOM     10  C   UNL     1       9.101  12.700  17.686  0.00  0.00    +0.000 A 
ATOM     11  N   UNL     1       9.969  13.701  17.496  0.00  0.00    +0.000 NA
ATOM     12  O   UNL     1      11.151  13.287  18.054  0.00  0.00    +0.000 OA
ATOM     13  C   UNL     1      11.001  12.051  18.598  0.00  0.00    +0.000 A 
ATOM     14  C   UNL     1      12.236  11.509  19.204  0.00  0.00    +0.000 C 
ATOM     15  C   UNL     1       9.698  11.622  18.411  0.00  0.00    +0.000 A 
BRANCH  10  17
ATOM     16  C   UNL     1       7.056  14.137  17.653  0.00  0.00    +0.000 C 
ATOM     17  C   UNL     1       7.710  12.852  17.166  0.00  0.00    +0.000 C 
ENDBRANCH  10  17
ENDBRANCH   6  15
ENDBRANCH   1   8
BRANCH   4  18
ATOM     18  C   UNL     1       5.652   5.826  16.822  0.00  0.00    +0.000 C 
BRANCH  18  19
ATOM     19  C   UNL     1       4.323   5.729  17.551  0.00  0.00    +0.000 C 
ATOM     20  O   UNL     1       3.519   6.661  17.578  0.00  0.00    +0.000 OA
ATOM     21  N   UNL     1       4.092   4.540  18.224  0.00  0.00    +0.000 N 
ATOM     22  H   UNL     1       4.546   3.713  17.843  0.00  0.00    +0.000 HD
BRANCH  21  23
ATOM     23  C   UNL     1       2.857   4.343  18.967  0.00  0.00    +0.000 C 
ATOM     24  C   UNL     1       1.800   3.605  18.150  0.00  0.00    +0.000 C 
ATOM     25  C   UNL     1       0.824   3.077  19.194  0.00  0.00    +0.000 C 
ATOM     26  C   UNL     1       1.641   2.863  20.465  0.00  0.00    +0.000 C 
ATOM     27  C   UNL     1       3.025   3.445  20.191  0.00  0.00    +0.000 C 
ENDBRANCH  21  23
ENDBRANCH  18  19
ENDBRANCH   4  18
TORSDOF 6
ENDMDL
MODEL 8
REMARK VINA RESULT:      -6.8      3.172      8.625
REMARK  Name = 
REMARK  8 active torsions:
REMARK  status: ('A' for Active; 'I' for Inactive)
REMARK    1  A    between atoms: C_1  and  C_2
REMARK    2  A    between atoms: C_2  and  C_3
REMARK    3  A    between atoms: C_6  and  C_7
REMARK    4  A    between atoms: C_8  and  C_9
REMARK    5  A    between atoms: N_11  and  C_12
REMARK    6  A    between atoms: N_15  and  C_16
REMARK    7  A    between atoms: C_16  and  C_17
REMARK    8  A    between atoms: N_19  and  C_20
REMARK                            x       y       z     vdW  Elec       q    Type
REMARK                         _______ _______ _______ _____ _____    ______ ____
ROOT
ATOM      1  C   UNL     1       3.120   6.949  18.281  0.00  0.00    +0.000 A 
ATOM      2  C   UNL     1       3.171   5.605  17.847  0.00  0.00    +0.000 A 
ATOM      3  N   UNL     1       4.379   5.269  17.388  0.00  0.00    +0.000 NA
ATOM      4  N   UNL     1       5.113   6.389  17.561  0.00  0.00    +0.000 N 
ATOM      5  C   UNL     1       4.357   7.458  17.957  0.00  0.00    +0.000 A 
ENDROOT
BRANCH   1   8
ATOM      6  C   UNL     1       1.714   8.928  18.486  0.00  0.00    +0.000 C 
ATOM      7  O   UNL     1       2.122   9.471  17.480  0.00  0.00    +0.000 OA
ATOM      8  N   UNL     1       2.160   7.693  18.934  0.00  0.00    +0.000 N 
ATOM      9  H   UNL     1       1.602   7.191  19.605  0.00  0.00    +0.000 HD
BRANCH   6  15
ATOM     10  C   UNL     1      -0.583  10.079  18.781  0.00  0.00    +0.000 A 
ATOM     11  N   UNL     1      -1.356  10.531  19.776  0.00  0.00    +0.000 NA
ATOM     12  O   UNL     1      -0.652  10.311  20.932  0.00  0.00    +0.000 OA
ATOM     13  C   UNL     1       0.534   9.710  20.647  0.00  0.00    +0.000 A 
ATOM     14  C   UNL     1       1.377   9.456  21.835  0.00  0.00    +0.000 C 
ATOM     15  C   UNL     1       0.634   9.516  19.279  0.00  0.00    +0.000 A 
BRANCH  10  17
ATOM     16  C   UNL     1      -2.327  11.063  17.286  0.00  0.00    +0.000 C 
ATOM     17  C   UNL     1      -1.080  10.196  17.378  0.00  0.00    +0.000 C 
ENDBRANCH  10  17
ENDBRANCH   6  15
ENDBRANCH   1   8
BRANCH   4  18
ATOM     18  C   UNL     1       6.550   6.335  17.358  0.00  0.00    +0.000 C 
BRANCH  18  19
ATOM     19  C   UNL     1       6.979   5.270  16.364  0.00  0.00    +0.000 C 
ATOM     20  O   UNL     1       7.818   4.412  16.640  0.00  0.00    +0.000 OA
ATOM     21  N   UNL     1       6.400   5.353  15.107  0.00  0.00    +0.000 N 
ATOM     22  H   UNL     1       5.472   5.769  15.067  0.00  0.00    +0.000 HD
BRANCH  21  23
ATOM     23  C   UNL     1       6.747   4.393  14.071  0.00  0.00    +0.000 C 
ATOM     24  C   UNL     1       5.516   3.757  13.432  0.00  0.00    +0.000 C 
ATOM     25  C   UNL     1       6.030   3.196  12.112  0.00  0.00    +0.000 C 
ATOM     26  C   UNL     1       7.199   4.086  11.702  0.00  0.00    +0.000 C 
ATOM     27  C   UNL     1       7.460   5.024  12.877  0.00  0.00    +0.000 C 
ENDBRANCH  21  23
ENDBRANCH  18  19
ENDBRANCH   4  18
TORSDOF 6
ENDMDL
MODEL 9
REMARK VINA RESULT:      -6.8      2.557      3.558
REMARK  Name = 
REMARK  8 active torsions:
REMARK  status: ('A' for Active; 'I' for Inactive)
REMARK    1  A    between atoms: C_1  and  C_2
REMARK    2  A    between atoms: C_2  and  C_3
REMARK    3  A    between atoms: C_6  and  C_7
REMARK    4  A    between atoms: C_8  and  C_9
REMARK    5  A    between atoms: N_11  and  C_12
REMARK    6  A    between atoms: N_15  and  C_16
REMARK    7  A    between atoms: C_16  and  C_17
REMARK    8  A    between atoms: N_19  and  C_20
REMARK                            x       y       z     vdW  Elec       q    Type
REMARK                         _______ _______ _______ _____ _____    ______ ____
ROOT
ATOM      1  C   UNL     1       1.980   7.657  19.834  0.00  0.00    +0.000 A 
ATOM      2  C   UNL     1       2.005   8.494  18.695  0.00  0.00    +0.000 A 
ATOM      3  N   UNL     1       1.427   9.675  18.926  0.00  0.00    +0.000 NA
ATOM      4  N   UNL     1       1.064   9.610  20.224  0.00  0.00    +0.000 N 
ATOM      5  C   UNL     1       1.247   8.365  20.759  0.00  0.00    +0.000 A 
ENDROOT
BRANCH   1   8
ATOM      6  C   UNL     1       2.483   5.342  19.265  0.00  0.00    +0.000 C 
ATOM      7  O   UNL     1       1.919   5.357  18.189  0.00  0.00    +0.000 OA
ATOM      8  N   UNL     1       2.550   6.435  20.118  0.00  0.00    +0.000 N 
ATOM      9  H   UNL     1       3.244   6.436  20.848  0.00  0.00    +0.000 HD
BRANCH   6  15
ATOM     10  C   UNL     1       4.491   3.713  19.235  0.00  0.00    +0.000 A 
ATOM     11  N   UNL     1       4.885   2.598  19.862  0.00  0.00    +0.000 NA
ATOM     12  O   UNL     1       3.874   2.276  20.731  0.00  0.00    +0.000 OA
ATOM     13  C   UNL     1       2.879   3.199  20.650  0.00  0.00    +0.000 A 
ATOM     14  C   UNL     1       1.730   2.919  21.537  0.00  0.00    +0.000 C 
ATOM     15  C   UNL     1       3.222   4.162  19.716  0.00  0.00    +0.000 A 
BRANCH  10  17
ATOM     16  C   UNL     1       4.947   3.953  16.790  0.00  0.00    +0.000 C 
ATOM     17  C   UNL     1       5.389   4.309  18.202  0.00  0.00    +0.000 C 
ENDBRANCH  10  17
ENDBRANCH   6  15
ENDBRANCH   1   8
BRANCH   4  18
ATOM     18  C   UNL     1       0.580  10.807  20.888  0.00  0.00    +0.000 C 
BRANCH  18  19
ATOM     19  C   UNL     1       0.520  12.020  19.976  0.00  0.00    +0.000 C 
ATOM     20  O   UNL     1      -0.532  12.410  19.468  0.00  0.00    +0.000 OA
ATOM     21  N   UNL     1       1.734  12.634  19.712  0.00  0.00    +0.000 N 
ATOM     22  H   UNL     1       2.444  12.553  20.436  0.00  0.00    +0.000 HD
BRANCH  21  23
ATOM     23  C   UNL     1       1.797  13.797  18.841  0.00  0.00    +0.000 C 
ATOM     24  C   UNL     1       1.704  15.109  19.615  0.00  0.00    +0.000 C 
ATOM     25  C   UNL     1       2.260  16.150  18.652  0.00  0.00    +0.000 C 
ATOM     26  C   UNL     1       3.262  15.413  17.768  0.00  0.00    +0.000 C 
ATOM     27  C   UNL     1       3.129  13.932  18.108  0.00  0.00    +0.000 C 
ENDBRANCH  21  23
ENDBRANCH  18  19
ENDBRANCH   4  18
TORSDOF 6
ENDMDL
