MODEL 1
REMARK VINA RESULT:      -6.9      0.000      0.000
REMARK  Name = 
REMARK  7 active torsions:
REMARK  status: ('A' for Active; 'I' for Inactive)
REMARK    1  A    between atoms: C_1  and  O_2
REMARK    2  A    between atoms: O_2  and  C_3
REMARK    3  A    between atoms: C_6  and  C_7
REMARK    4  A    between atoms: N_13  and  C_14
REMARK    5  A    between atoms: C_18  and  C_19
REMARK    6  A    between atoms: C_22  and  O_23
REMARK    7  A    between atoms: O_23  and  C_24
REMARK                            x       y       z     vdW  Elec       q    Type
REMARK                         _______ _______ _______ _____ _____    ______ ____
ROOT
ATOM      1  C   UNL     1       1.047  11.636  18.782  0.00  0.00    +0.000 A 
ATOM      2  N   UNL     1       2.091  12.556  18.798  0.00  0.00    +0.000 NA
ATOM      3  C   UNL     1       1.653  13.793  18.721  0.00  0.00    +0.000 A 
ATOM      4  N   UNL     1       2.461  14.880  18.849  0.00  0.00    +0.000 N 
ATOM      5  C   UNL     1       3.917  14.696  18.871  0.00  0.00    +0.000 C 
ATOM      6  C   UNL     1       4.559  15.684  19.870  0.00  0.00    +0.000 C 
ATOM      7  N   UNL     1       4.182  17.092  19.599  0.00  0.00    +0.000 NA
ATOM      8  C   UNL     1       4.789  17.988  20.577  0.00  0.00    +0.000 C 
ATOM      9  C   UNL     1       2.707  17.205  19.630  0.00  0.00    +0.000 C 
ATOM     10  C   UNL     1       2.021  16.258  18.619  0.00  0.00    +0.000 C 
ATOM     11  S   UNL     1      -0.055  13.900  18.495  0.00  0.00    +0.000 S 
ATOM     12  C   UNL     1      -0.220  12.189  18.607  0.00  0.00    +0.000 A 
ENDROOT
BRANCH   1  16
ATOM     13  C   UNL     1       2.026   7.513  19.407  0.00  0.00    +0.000 A 
ATOM     14  C   UNL     1       2.261   8.106  18.173  0.00  0.00    +0.000 A 
ATOM     15  C   UNL     1       1.888   9.431  17.948  0.00  0.00    +0.000 A 
ATOM     16  C   UNL     1       1.347  10.217  18.974  0.00  0.00    +0.000 A 
ATOM     17  C   UNL     1       1.082   9.598  20.207  0.00  0.00    +0.000 A 
ATOM     18  C   UNL     1       1.408   8.252  20.418  0.00  0.00    +0.000 A 
BRANCH  13  20
ATOM     19  C   UNL     1       1.847   5.459  20.561  0.00  0.00    +0.000 C 
ATOM     20  O   UNL     1       2.398   6.202  19.480  0.00  0.00    +0.000 OA
ENDBRANCH  13  20
ENDBRANCH   1  16
BRANCH  12  21
ATOM     21  C   UNL     1      -1.561  11.589  18.514  0.00  0.00    +0.000 A 
ATOM     22  C   UNL     1      -2.667  12.197  19.128  0.00  0.00    +0.000 A 
ATOM     23  C   UNL     1      -3.968  11.762  18.859  0.00  0.00    +0.000 A 
ATOM     24  C   UNL     1      -4.188  10.667  18.027  0.00  0.00    +0.000 A 
ATOM     25  C   UNL     1      -3.096   9.990  17.485  0.00  0.00    +0.000 A 
ATOM     26  C   UNL     1      -1.798  10.457  17.714  0.00  0.00    +0.000 A 
BRANCH  24  27
ATOM     27  O   UNL     1      -5.500  10.333  17.846  0.00  0.00    +0.000 OA
ATOM     28  C   UNL     1      -6.452  11.297  18.283  0.00  0.00    +0.000 C 
ENDBRANCH  24  27
ENDBRANCH  12  21
TORSDOF 4
ENDMDL
MODEL 2
REMARK VINA RESULT:      -6.7      2.945      4.374
REMARK  Name = 
REMARK  7 active torsions:
REMARK  status: ('A' for Active; 'I' for Inactive)
REMARK    1  A    between atoms: C_1  and  O_2
REMARK    2  A    between atoms: O_2  and  C_3
REMARK    3  A    between atoms: C_6  and  C_7
REMARK    4  A    between atoms: N_13  and  C_14
REMARK    5  A    between atoms: C_18  and  C_19
REMARK    6  A    between atoms: C_22  and  O_23
REMARK    7  A    between atoms: O_23  and  C_24
REMARK                            x       y       z     vdW  Elec       q    Type
REMARK                         _______ _______ _______ _____ _____    ______ ____
ROOT
ATOM      1  C   UNL     1       0.634  12.967  19.532  0.00  0.00    +0.000 A 
ATOM      2  N   UNL     1       1.726  13.550  18.897  0.00  0.00    +0.000 NA
ATOM      3  C   UNL     1       2.451  14.264  19.731  0.00  0.00    +0.000 A 
ATOM      4  N   UNL     1       3.641  14.829  19.390  0.00  0.00    +0.000 N 
ATOM      5  C   UNL     1       4.062  14.828  17.983  0.00  0.00    +0.000 C 
ATOM      6  C   UNL     1       5.587  14.602  17.889  0.00  0.00    +0.000 C 
ATOM      7  N   UNL     1       6.357  15.576  18.698  0.00  0.00    +0.000 NA
ATOM      8  C   UNL     1       7.788  15.313  18.600  0.00  0.00    +0.000 C 
ATOM      9  C   UNL     1       5.905  15.492  20.104  0.00  0.00    +0.000 C 
ATOM     10  C   UNL     1       4.387  15.747  20.253  0.00  0.00    +0.000 C 
ATOM     11  S   UNL     1       1.767  14.370  21.312  0.00  0.00    +0.000 S 
ATOM     12  C   UNL     1       0.478  13.315  20.872  0.00  0.00    +0.000 A 
ENDROOT
BRANCH   1  16
ATOM     13  C   UNL     1      -1.783  10.284  17.228  0.00  0.00    +0.000 A 
ATOM     14  C   UNL     1      -2.222  11.579  17.475  0.00  0.00    +0.000 A 
ATOM     15  C   UNL     1      -1.465  12.435  18.275  0.00  0.00    +0.000 A 
ATOM     16  C   UNL     1      -0.217  12.045  18.778  0.00  0.00    +0.000 A 
ATOM     17  C   UNL     1       0.200  10.723  18.551  0.00  0.00    +0.000 A 
ATOM     18  C   UNL     1      -0.584   9.844  17.791  0.00  0.00    +0.000 A 
BRANCH  13  20
ATOM     19  C   UNL     1      -2.794   9.959  15.117  0.00  0.00    +0.000 C 
ATOM     20  O   UNL     1      -2.638   9.539  16.468  0.00  0.00    +0.000 OA
ENDBRANCH  13  20
ENDBRANCH   1  16
BRANCH  12  21
ATOM     21  C   UNL     1      -0.528  12.948  21.882  0.00  0.00    +0.000 A 
ATOM     22  C   UNL     1      -1.491  13.876  22.309  0.00  0.00    +0.000 A 
ATOM     23  C   UNL     1      -2.578  13.475  23.091  0.00  0.00    +0.000 A 
ATOM     24  C   UNL     1      -2.688  12.155  23.523  0.00  0.00    +0.000 A 
ATOM     25  C   UNL     1      -1.689  11.241  23.189  0.00  0.00    +0.000 A 
ATOM     26  C   UNL     1      -0.629  11.632  22.364  0.00  0.00    +0.000 A 
BRANCH  24  27
ATOM     27  O   UNL     1      -3.788  11.886  24.287  0.00  0.00    +0.000 OA
ATOM     28  C   UNL     1      -4.878  12.792  24.145  0.00  0.00    +0.000 C 
ENDBRANCH  24  27
ENDBRANCH  12  21
TORSDOF 4
ENDMDL
MODEL 3
REMARK VINA RESULT:      -6.6      0.439      1.010
REMARK  Name = 
REMARK  7 active torsions:
REMARK  status: ('A' for Active; 'I' for Inactive)
REMARK    1  A    between atoms: C_1  and  O_2
REMARK    2  A    between atoms: O_2  and  C_3
REMARK    3  A    between atoms: C_6  and  C_7
REMARK    4  A    between atoms: N_13  and  C_14
REMARK    5  A    between atoms: C_18  and  C_19
REMARK    6  A    between atoms: C_22  and  O_23
REMARK    7  A    between atoms: O_23  and  C_24
REMARK                            x       y       z     vdW  Elec       q    Type
REMARK                         _______ _______ _______ _____ _____    ______ ____
ROOT
ATOM      1  C   UNL     1       1.015  11.793  18.924  0.00  0.00    +0.000 A 
ATOM      2  N   UNL     1       2.037  12.736  18.969  0.00  0.00    +0.000 NA
ATOM      3  C   UNL     1       1.575  13.962  18.864  0.00  0.00    +0.000 A 
ATOM      4  N   UNL     1       2.354  15.068  19.010  0.00  0.00    +0.000 N 
ATOM      5  C   UNL     1       3.812  14.917  19.087  0.00  0.00    +0.000 C 
ATOM      6  C   UNL     1       4.394  15.928  20.099  0.00  0.00    +0.000 C 
ATOM      7  N   UNL     1       3.996  17.324  19.800  0.00  0.00    +0.000 NA
ATOM      8  C   UNL     1       4.547  18.243  20.791  0.00  0.00    +0.000 C 
ATOM      9  C   UNL     1       2.519  17.405  19.777  0.00  0.00    +0.000 C 
ATOM     10  C   UNL     1       1.891  16.433  18.751  0.00  0.00    +0.000 C 
ATOM     11  S   UNL     1      -0.125  14.028  18.575  0.00  0.00    +0.000 S 
ATOM     12  C   UNL     1      -0.256  12.315  18.698  0.00  0.00    +0.000 A 
ENDROOT
BRANCH   1  16
ATOM     13  C   UNL     1       1.866   7.633  19.495  0.00  0.00    +0.000 A 
ATOM     14  C   UNL     1       1.327   8.383  20.533  0.00  0.00    +0.000 A 
ATOM     15  C   UNL     1       1.105   9.751  20.369  0.00  0.00    +0.000 A 
ATOM     16  C   UNL     1       1.340  10.382  19.141  0.00  0.00    +0.000 A 
ATOM     17  C   UNL     1       1.918   9.623  18.110  0.00  0.00    +0.000 A 
ATOM     18  C   UNL     1       2.191   8.260  18.290  0.00  0.00    +0.000 A 
BRANCH  13  20
ATOM     19  C   UNL     1       3.220   5.717  19.209  0.00  0.00    +0.000 C 
ATOM     20  O   UNL     1       2.073   6.319  19.801  0.00  0.00    +0.000 OA
ENDBRANCH  13  20
ENDBRANCH   1  16
BRANCH  12  21
ATOM     21  C   UNL     1      -1.579  11.683  18.562  0.00  0.00    +0.000 A 
ATOM     22  C   UNL     1      -2.699  12.207  19.226  0.00  0.00    +0.000 A 
ATOM     23  C   UNL     1      -3.988  11.756  18.928  0.00  0.00    +0.000 A 
ATOM     24  C   UNL     1      -4.180  10.725  18.013  0.00  0.00    +0.000 A 
ATOM     25  C   UNL     1      -3.072  10.126  17.415  0.00  0.00    +0.000 A 
ATOM     26  C   UNL     1      -1.787  10.612  17.675  0.00  0.00    +0.000 A 
BRANCH  24  27
ATOM     27  O   UNL     1      -5.483  10.366  17.810  0.00  0.00    +0.000 OA
ATOM     28  C   UNL     1      -6.457  11.340  18.170  0.00  0.00    +0.000 C 
ENDBRANCH  24  27
ENDBRANCH  12  21
TORSDOF 4
ENDMDL
MODEL 4
REMARK VINA RESULT:      -6.6      2.913      4.594
REMARK  Name = 
REMARK  7 active torsions:
REMARK  status: ('A' for Active; 'I' for Inactive)
REMARK    1  A    between atoms: C_1  and  O_2
REMARK    2  A    between atoms: O_2  and  C_3
REMARK    3  A    between atoms: C_6  and  C_7
REMARK    4  A    between atoms: N_13  and  C_14
REMARK    5  A    between atoms: C_18  and  C_19
REMARK    6  A    between atoms: C_22  and  O_23
REMARK    7  A    between atoms: O_23  and  C_24
REMARK                            x       y       z     vdW  Elec       q    Type
REMARK                         _______ _______ _______ _____ _____    ______ ____
ROOT
ATOM      1  C   UNL     1       0.370  12.957  20.989  0.00  0.00    +0.000 A 
ATOM      2  N   UNL     1       1.445  13.726  21.426  0.00  0.00    +0.000 NA
ATOM      3  C   UNL     1       2.316  13.939  20.465  0.00  0.00    +0.000 A 
ATOM      4  N   UNL     1       3.386  14.769  20.597  0.00  0.00    +0.000 N 
ATOM      5  C   UNL     1       3.721  15.305  21.922  0.00  0.00    +0.000 C 
ATOM      6  C   UNL     1       4.214  16.763  21.792  0.00  0.00    +0.000 C 
ATOM      7  N   UNL     1       5.340  16.899  20.837  0.00  0.00    +0.000 NA
ATOM      8  C   UNL     1       5.758  18.292  20.726  0.00  0.00    +0.000 C 
ATOM      9  C   UNL     1       4.915  16.375  19.521  0.00  0.00    +0.000 C 
ATOM     10  C   UNL     1       4.445  14.903  19.595  0.00  0.00    +0.000 C 
ATOM     11  S   UNL     1       1.937  13.103  19.003  0.00  0.00    +0.000 S 
ATOM     12  C   UNL     1       0.469  12.504  19.676  0.00  0.00    +0.000 A 
ENDROOT
BRANCH   1  16
ATOM     13  C   UNL     1      -2.966  12.199  23.568  0.00  0.00    +0.000 A 
ATOM     14  C   UNL     1      -2.807  13.449  22.983  0.00  0.00    +0.000 A 
ATOM     15  C   UNL     1      -1.690  13.717  22.192  0.00  0.00    +0.000 A 
ATOM     16  C   UNL     1      -0.750  12.720  21.900  0.00  0.00    +0.000 A 
ATOM     17  C   UNL     1      -0.901  11.470  22.524  0.00  0.00    +0.000 A 
ATOM     18  C   UNL     1      -1.996  11.215  23.362  0.00  0.00    +0.000 A 
BRANCH  13  20
ATOM     19  C   UNL     1      -5.173  12.921  24.001  0.00  0.00    +0.000 C 
ATOM     20  O   UNL     1      -4.077  12.083  24.352  0.00  0.00    +0.000 OA
ENDBRANCH  13  20
ENDBRANCH   1  16
BRANCH  12  21
ATOM     21  C   UNL     1      -0.414  11.667  18.846  0.00  0.00    +0.000 A 
ATOM     22  C   UNL     1      -1.560  12.207  18.243  0.00  0.00    +0.000 A 
ATOM     23  C   UNL     1      -2.273  11.487  17.280  0.00  0.00    +0.000 A 
ATOM     24  C   UNL     1      -1.898  10.187  16.951  0.00  0.00    +0.000 A 
ATOM     25  C   UNL     1      -0.819   9.598  17.610  0.00  0.00    +0.000 A 
ATOM     26  C   UNL     1      -0.076  10.338  18.536  0.00  0.00    +0.000 A 
BRANCH  24  27
ATOM     27  O   UNL     1      -2.674   9.583  16.002  0.00  0.00    +0.000 OA
ATOM     28  C   UNL     1      -3.129  10.423  14.946  0.00  0.00    +0.000 C 
ENDBRANCH  24  27
ENDBRANCH  12  21
TORSDOF 4
ENDMDL
MODEL 5
REMARK VINA RESULT:      -6.4      3.773      6.509
REMARK  Name = 
REMARK  7 active torsions:
REMARK  status: ('A' for Active; 'I' for Inactive)
REMARK    1  A    between atoms: C_1  and  O_2
REMARK    2  A    between atoms: O_2  and  C_3
REMARK    3  A    between atoms: C_6  and  C_7
REMARK    4  A    between atoms: N_13  and  C_14
REMARK    5  A    between atoms: C_18  and  C_19
REMARK    6  A    between atoms: C_22  and  O_23
REMARK    7  A    between atoms: O_23  and  C_24
REMARK                            x       y       z     vdW  Elec       q    Type
REMARK                         _______ _______ _______ _____ _____    ______ ____
ROOT
ATOM      1  C   UNL     1      -1.590  11.339  19.602  0.00  0.00    +0.000 A 
ATOM      2  N   UNL     1      -2.271  12.273  20.377  0.00  0.00    +0.000 NA
ATOM      3  C   UNL     1      -1.587  12.611  21.447  0.00  0.00    +0.000 A 
ATOM      4  N   UNL     1      -1.972  13.601  22.298  0.00  0.00    +0.000 N 
ATOM      5  C   UNL     1      -3.305  14.197  22.151  0.00  0.00    +0.000 C 
ATOM      6  C   UNL     1      -3.240  15.713  22.439  0.00  0.00    +0.000 C 
ATOM      7  N   UNL     1      -2.638  16.016  23.759  0.00  0.00    +0.000 NA
ATOM      8  C   UNL     1      -2.574  17.456  23.980  0.00  0.00    +0.000 C 
ATOM      9  C   UNL     1      -1.287  15.417  23.816  0.00  0.00    +0.000 C 
ATOM     10  C   UNL     1      -1.306  13.891  23.569  0.00  0.00    +0.000 C 
ATOM     11  S   UNL     1      -0.127  11.710  21.636  0.00  0.00    +0.000 S 
ATOM     12  C   UNL     1      -0.387  10.893  20.142  0.00  0.00    +0.000 A 
ENDROOT
BRANCH   1  16
ATOM     13  C   UNL     1      -3.339  10.241  15.848  0.00  0.00    +0.000 A 
ATOM     14  C   UNL     1      -3.479   9.409  16.952  0.00  0.00    +0.000 A 
ATOM     15  C   UNL     1      -2.861   9.735  18.160  0.00  0.00    +0.000 A 
ATOM     16  C   UNL     1      -2.157  10.937  18.314  0.00  0.00    +0.000 A 
ATOM     17  C   UNL     1      -1.992  11.752  17.182  0.00  0.00    +0.000 A 
ATOM     18  C   UNL     1      -2.569  11.401  15.954  0.00  0.00    +0.000 A 
BRANCH  13  20
ATOM     19  C   UNL     1      -3.210   9.897  13.514  0.00  0.00    +0.000 C 
ATOM     20  O   UNL     1      -3.957   9.784  14.720  0.00  0.00    +0.000 OA
ENDBRANCH  13  20
ENDBRANCH   1  16
BRANCH  12  21
ATOM     21  C   UNL     1       0.613   9.919  19.672  0.00  0.00    +0.000 A 
ATOM     22  C   UNL     1       1.050   8.877  20.505  0.00  0.00    +0.000 A 
ATOM     23  C   UNL     1       1.819   7.826  19.998  0.00  0.00    +0.000 A 
ATOM     24  C   UNL     1       2.228   7.830  18.667  0.00  0.00    +0.000 A 
ATOM     25  C   UNL     1       1.884   8.905  17.849  0.00  0.00    +0.000 A 
ATOM     26  C   UNL     1       1.071   9.931  18.344  0.00  0.00    +0.000 A 
BRANCH  24  27
ATOM     27  O   UNL     1       2.981   6.754  18.290  0.00  0.00    +0.000 OA
ATOM     28  C   UNL     1       4.100   7.041  17.459  0.00  0.00    +0.000 C 
ENDBRANCH  24  27
ENDBRANCH  12  21
TORSDOF 4
ENDMDL
MODEL 6
REMARK VINA RESULT:      -6.3      3.009      4.767
REMARK  Name = 
REMARK  7 active torsions:
REMARK  status: ('A' for Active; 'I' for Inactive)
REMARK    1  A    between atoms: C_1  and  O_2
REMARK    2  A    between atoms: O_2  and  C_3
REMARK    3  A    between atoms: C_6  and  C_7
REMARK    4  A    between atoms: N_13  and  C_14
REMARK    5  A    between atoms: C_18  and  C_19
REMARK    6  A    between atoms: C_22  and  O_23
REMARK    7  A    between atoms: O_23  and  C_24
REMARK                            x       y       z     vdW  Elec       q    Type
REMARK                         _______ _______ _______ _____ _____    ______ ____
ROOT
ATOM      1  C   UNL     1       0.667  13.152  21.214  0.00  0.00    +0.000 A 
ATOM      2  N   UNL     1       1.690  13.894  21.794  0.00  0.00    +0.000 NA
ATOM      3  C   UNL     1       2.634  14.186  20.926  0.00  0.00    +0.000 A 
ATOM      4  N   UNL     1       3.678  15.012  21.208  0.00  0.00    +0.000 N 
ATOM      5  C   UNL     1       3.896  15.450  22.592  0.00  0.00    +0.000 C 
ATOM      6  C   UNL     1       4.377  16.917  22.611  0.00  0.00    +0.000 C 
ATOM      7  N   UNL     1       5.575  17.134  21.765  0.00  0.00    +0.000 NA
ATOM      8  C   UNL     1       5.982  18.535  21.792  0.00  0.00    +0.000 C 
ATOM      9  C   UNL     1       5.267  16.706  20.383  0.00  0.00    +0.000 C 
ATOM     10  C   UNL     1       4.813  15.229  20.309  0.00  0.00    +0.000 C 
ATOM     11  S   UNL     1       2.388  13.458  19.381  0.00  0.00    +0.000 S 
ATOM     12  C   UNL     1       0.878  12.798  19.884  0.00  0.00    +0.000 A 
ENDROOT
BRANCH   1  16
ATOM     13  C   UNL     1      -2.857  12.172  23.446  0.00  0.00    +0.000 A 
ATOM     14  C   UNL     1      -2.687  13.454  22.939  0.00  0.00    +0.000 A 
ATOM     15  C   UNL     1      -1.514  13.793  22.264  0.00  0.00    +0.000 A 
ATOM     16  C   UNL     1      -0.521  12.837  22.009  0.00  0.00    +0.000 A 
ATOM     17  C   UNL     1      -0.687  11.554  22.556  0.00  0.00    +0.000 A 
ATOM     18  C   UNL     1      -1.842  11.227  23.280  0.00  0.00    +0.000 A 
BRANCH  13  20
ATOM     19  C   UNL     1      -4.943  13.076  24.086  0.00  0.00    +0.000 C 
ATOM     20  O   UNL     1      -4.028  11.986  24.121  0.00  0.00    +0.000 OA
ENDBRANCH  13  20
ENDBRANCH   1  16
BRANCH  12  21
ATOM     21  C   UNL     1       0.079  12.019  18.924  0.00  0.00    +0.000 A 
ATOM     22  C   UNL     1       0.393  10.680  18.645  0.00  0.00    +0.000 A 
ATOM     23  C   UNL     1      -0.485   9.873  17.915  0.00  0.00    +0.000 A 
ATOM     24  C   UNL     1      -1.660  10.405  17.389  0.00  0.00    +0.000 A 
ATOM     25  C   UNL     1      -1.941  11.758  17.573  0.00  0.00    +0.000 A 
ATOM     26  C   UNL     1      -1.087  12.552  18.347  0.00  0.00    +0.000 A 
BRANCH  24  27
ATOM     27  O   UNL     1      -2.432   9.521  16.689  0.00  0.00    +0.000 OA
ATOM     28  C   UNL     1      -2.911   9.978  15.429  0.00  0.00    +0.000 C 
ENDBRANCH  24  27
ENDBRANCH  12  21
TORSDOF 4
ENDMDL
MODEL 7
REMARK VINA RESULT:      -6.3      3.732      6.336
REMARK  Name = 
REMARK  7 active torsions:
REMARK  status: ('A' for Active; 'I' for Inactive)
REMARK    1  A    between atoms: C_1  and  O_2
REMARK    2  A    between atoms: O_2  and  C_3
REMARK    3  A    between atoms: C_6  and  C_7
REMARK    4  A    between atoms: N_13  and  C_14
REMARK    5  A    between atoms: C_18  and  C_19
REMARK    6  A    between atoms: C_22  and  O_23
REMARK    7  A    between atoms: O_23  and  C_24
REMARK                            x       y       z     vdW  Elec       q    Type
REMARK                         _______ _______ _______ _____ _____    ______ ____
ROOT
ATOM      1  C   UNL     1      -1.578  11.382  19.613  0.00  0.00    +0.000 A 
ATOM      2  N   UNL     1      -2.230  12.330  20.396  0.00  0.00    +0.000 NA
ATOM      3  C   UNL     1      -1.509  12.681  21.438  0.00  0.00    +0.000 A 
ATOM      4  N   UNL     1      -1.863  13.685  22.286  0.00  0.00    +0.000 N 
ATOM      5  C   UNL     1      -3.198  14.285  22.174  0.00  0.00    +0.000 C 
ATOM      6  C   UNL     1      -3.118  15.805  22.436  0.00  0.00    +0.000 C 
ATOM      7  N   UNL     1      -2.472  16.124  23.732  0.00  0.00    +0.000 NA
ATOM      8  C   UNL     1      -2.395  17.568  23.929  0.00  0.00    +0.000 C 
ATOM      9  C   UNL     1      -1.122  15.521  23.754  0.00  0.00    +0.000 C 
ATOM     10  C   UNL     1      -1.155  13.991  23.530  0.00  0.00    +0.000 C 
ATOM     11  S   UNL     1      -0.047  11.777  21.593  0.00  0.00    +0.000 S 
ATOM     12  C   UNL     1      -0.359  10.939  20.121  0.00  0.00    +0.000 A 
ENDROOT
BRANCH   1  16
ATOM     13  C   UNL     1      -3.270  10.077  15.900  0.00  0.00    +0.000 A 
ATOM     14  C   UNL     1      -2.619  11.302  15.977  0.00  0.00    +0.000 A 
ATOM     15  C   UNL     1      -2.120  11.756  17.198  0.00  0.00    +0.000 A 
ATOM     16  C   UNL     1      -2.188  10.962  18.351  0.00  0.00    +0.000 A 
ATOM     17  C   UNL     1      -2.878   9.742  18.270  0.00  0.00    +0.000 A 
ATOM     18  C   UNL     1      -3.427   9.308  17.055  0.00  0.00    +0.000 A 
BRANCH  13  20
ATOM     19  C   UNL     1      -2.791   9.790  13.604  0.00  0.00    +0.000 C 
ATOM     20  O   UNL     1      -3.747   9.773  14.658  0.00  0.00    +0.000 OA
ENDBRANCH  13  20
ENDBRANCH   1  16
BRANCH  12  21
ATOM     21  C   UNL     1       0.621   9.954  19.633  0.00  0.00    +0.000 A 
ATOM     22  C   UNL     1       1.113   8.948  20.480  0.00  0.00    +0.000 A 
ATOM     23  C   UNL     1       1.862   7.883  19.971  0.00  0.00    +0.000 A 
ATOM     24  C   UNL     1       2.195   7.837  18.619  0.00  0.00    +0.000 A 
ATOM     25  C   UNL     1       1.797   8.878  17.781  0.00  0.00    +0.000 A 
ATOM     26  C   UNL     1       1.005   9.917  18.282  0.00  0.00    +0.000 A 
BRANCH  24  27
ATOM     27  O   UNL     1       2.935   6.752  18.243  0.00  0.00    +0.000 OA
ATOM     28  C   UNL     1       2.230   5.518  18.162  0.00  0.00    +0.000 C 
ENDBRANCH  24  27
ENDBRANCH  12  21
TORSDOF 4
ENDMDL
MODEL 8
REMARK VINA RESULT:      -6.3      2.957      4.283
REMARK  Name = 
REMARK  7 active torsions:
REMARK  status: ('A' for Active; 'I' for Inactive)
REMARK    1  A    between atoms: C_1  and  O_2
REMARK    2  A    between atoms: O_2  and  C_3
REMARK    3  A    between atoms: C_6  and  C_7
REMARK    4  A    between atoms: N_13  and  C_14
REMARK    5  A    between atoms: C_18  and  C_19
REMARK    6  A    between atoms: C_22  and  O_23
REMARK    7  A    between atoms: O_23  and  C_24
REMARK                            x       y       z     vdW  Elec       q    Type
REMARK                         _______ _______ _______ _____ _____    ______ ____
ROOT
ATOM      1  C   UNL     1       0.021  13.576  19.758  0.00  0.00    +0.000 A 
ATOM      2  N   UNL     1       1.014  14.328  19.137  0.00  0.00    +0.000 NA
ATOM      3  C   UNL     1       1.534  15.218  19.953  0.00  0.00    +0.000 A 
ATOM      4  N   UNL     1       2.610  15.987  19.631  0.00  0.00    +0.000 N 
ATOM      5  C   UNL     1       3.105  15.990  18.249  0.00  0.00    +0.000 C 
ATOM      6  C   UNL     1       4.647  16.066  18.241  0.00  0.00    +0.000 C 
ATOM      7  N   UNL     1       5.163  17.219  19.017  0.00  0.00    +0.000 NA
ATOM      8  C   UNL     1       6.622  17.240  19.004  0.00  0.00    +0.000 C 
ATOM      9  C   UNL     1       4.654  17.126  20.403  0.00  0.00    +0.000 C 
ATOM     10  C   UNL     1       3.109  17.083  20.463  0.00  0.00    +0.000 C 
ATOM     11  S   UNL     1       0.751  15.275  21.490  0.00  0.00    +0.000 S 
ATOM     12  C   UNL     1      -0.278  13.962  21.062  0.00  0.00    +0.000 A 
ENDROOT
BRANCH   1  16
ATOM     13  C   UNL     1      -1.688  10.342  17.528  0.00  0.00    +0.000 A 
ATOM     14  C   UNL     1      -2.399  11.524  17.698  0.00  0.00    +0.000 A 
ATOM     15  C   UNL     1      -1.870  12.556  18.474  0.00  0.00    +0.000 A 
ATOM     16  C   UNL     1      -0.587  12.463  19.029  0.00  0.00    +0.000 A 
ATOM     17  C   UNL     1       0.108  11.251  18.880  0.00  0.00    +0.000 A 
ATOM     18  C   UNL     1      -0.444  10.193  18.145  0.00  0.00    +0.000 A 
BRANCH  13  20
ATOM     19  C   UNL     1      -2.919   9.860  15.570  0.00  0.00    +0.000 C 
ATOM     20  O   UNL     1      -2.337   9.400  16.784  0.00  0.00    +0.000 OA
ENDBRANCH  13  20
ENDBRANCH   1  16
BRANCH  12  21
ATOM     21  C   UNL     1      -1.251  13.461  22.048  0.00  0.00    +0.000 A 
ATOM     22  C   UNL     1      -2.363  14.233  22.419  0.00  0.00    +0.000 A 
ATOM     23  C   UNL     1      -3.402  13.681  23.174  0.00  0.00    +0.000 A 
ATOM     24  C   UNL     1      -3.319  12.369  23.634  0.00  0.00    +0.000 A 
ATOM     25  C   UNL     1      -2.178  11.618  23.357  0.00  0.00    +0.000 A 
ATOM     26  C   UNL     1      -1.162  12.154  22.558  0.00  0.00    +0.000 A 
BRANCH  24  27
ATOM     27  O   UNL     1      -4.392  11.945  24.366  0.00  0.00    +0.000 OA
ATOM     28  C   UNL     1      -5.587  12.703  24.213  0.00  0.00    +0.000 C 
ENDBRANCH  24  27
ENDBRANCH  12  21
TORSDOF 4
ENDMDL
MODEL 9
REMARK VINA RESULT:      -6.2      4.581      8.167
REMARK  Name = 
REMARK  7 active torsions:
REMARK  status: ('A' for Active; 'I' for Inactive)
REMARK    1  A    between atoms: C_1  and  O_2
REMARK    2  A    between atoms: O_2  and  C_3
REMARK    3  A    between atoms: C_6  and  C_7
REMARK    4  A    between atoms: N_13  and  C_14
REMARK    5  A    between atoms: C_18  and  C_19
REMARK    6  A    between atoms: C_22  and  O_23
REMARK    7  A    between atoms: O_23  and  C_24
REMARK                            x       y       z     vdW  Elec       q    Type
REMARK                         _______ _______ _______ _____ _____    ______ ____
ROOT
ATOM      1  C   UNL     1       3.494   6.726  18.286  0.00  0.00    +0.000 A 
ATOM      2  N   UNL     1       2.969   7.996  18.070  0.00  0.00    +0.000 NA
ATOM      3  C   UNL     1       2.050   8.301  18.959  0.00  0.00    +0.000 A 
ATOM      4  N   UNL     1       1.476   9.532  19.047  0.00  0.00    +0.000 N 
ATOM      5  C   UNL     1       1.727  10.520  17.991  0.00  0.00    +0.000 C 
ATOM      6  C   UNL     1       1.851  11.931  18.607  0.00  0.00    +0.000 C 
ATOM      7  N   UNL     1       0.679  12.293  19.438  0.00  0.00    +0.000 NA
ATOM      8  C   UNL     1       0.847  13.621  20.019  0.00  0.00    +0.000 C 
ATOM      9  C   UNL     1       0.514  11.276  20.499  0.00  0.00    +0.000 C 
ATOM     10  C   UNL     1       0.350   9.848  19.927  0.00  0.00    +0.000 C 
ATOM     11  S   UNL     1       1.682   7.003  20.034  0.00  0.00    +0.000 S 
ATOM     12  C   UNL     1       2.898   6.012  19.323  0.00  0.00    +0.000 A 
ENDROOT
BRANCH   1  16
ATOM     13  C   UNL     1       6.762   5.495  15.803  0.00  0.00    +0.000 A 
ATOM     14  C   UNL     1       5.476   5.039  15.540  0.00  0.00    +0.000 A 
ATOM     15  C   UNL     1       4.420   5.390  16.382  0.00  0.00    +0.000 A 
ATOM     16  C   UNL     1       4.610   6.268  17.457  0.00  0.00    +0.000 A 
ATOM     17  C   UNL     1       5.919   6.695  17.735  0.00  0.00    +0.000 A 
ATOM     18  C   UNL     1       6.990   6.301  16.921  0.00  0.00    +0.000 A 
BRANCH  13  20
ATOM     19  C   UNL     1       7.252   4.775  13.607  0.00  0.00    +0.000 C 
ATOM     20  O   UNL     1       7.707   5.044  14.929  0.00  0.00    +0.000 OA
ENDBRANCH  13  20
ENDBRANCH   1  16
BRANCH  12  21
ATOM     21  C   UNL     1       3.130   4.661  19.860  0.00  0.00    +0.000 A 
ATOM     22  C   UNL     1       4.232   3.898  19.442  0.00  0.00    +0.000 A 
ATOM     23  C   UNL     1       4.583   2.719  20.105  0.00  0.00    +0.000 A 
ATOM     24  C   UNL     1       3.802   2.240  21.154  0.00  0.00    +0.000 A 
ATOM     25  C   UNL     1       2.649   2.933  21.519  0.00  0.00    +0.000 A 
ATOM     26  C   UNL     1       2.326   4.139  20.889  0.00  0.00    +0.000 A 
BRANCH  24  27
ATOM     27  O   UNL     1       4.243   1.076  21.718  0.00  0.00    +0.000 OA
ATOM     28  C   UNL     1       5.634   0.807  21.579  0.00  0.00    +0.000 C 
ENDBRANCH  24  27
ENDBRANCH  12  21
TORSDOF 4
ENDMDL
