MODEL 1
REMARK VINA RESULT:      -7.8      0.000      0.000
REMARK  Name = 
REMARK  2 active torsions:
REMARK  status: ('A' for Active; 'I' for Inactive)
REMARK    1  A    between atoms: C_1  and  C_2
REMARK    2  A    between atoms: C_3  and  C_4
REMARK                            x       y       z     vdW  Elec       q    Type
REMARK                         _______ _______ _______ _____ _____    ______ ____
ROOT
ATOM      1  C   UNL     1       7.398   6.478  17.237  0.00  0.00    +0.000 C 
ATOM      2  C   UNL     1       6.644   5.414  16.525  0.00  0.00    +0.000 A 
ATOM      3  C   UNL     1       5.728   4.512  17.062  0.00  0.00    +0.000 A 
ATOM      4  O   UNL     1       5.265   3.698  16.065  0.00  0.00    +0.000 OA
ATOM      5  C   UNL     1       5.928   3.997  14.929  0.00  0.00    +0.000 A 
ATOM      6  C   UNL     1       5.799   3.306  13.729  0.00  0.00    +0.000 A 
ATOM      7  C   UNL     1       6.568   3.772  12.663  0.00  0.00    +0.000 A 
ATOM      8  C   UNL     1       7.397   4.889  12.809  0.00  0.00    +0.000 A 
ATOM      9  C   UNL     1       7.505   5.558  14.040  0.00  0.00    +0.000 A 
ATOM     10  C   UNL     1       6.764   5.082  15.137  0.00  0.00    +0.000 A 
ENDROOT
BRANCH   3  11
ATOM     11  C   UNL     1       5.201   4.331  18.414  0.00  0.00    +0.000 C 
ATOM     12  O   UNL     1       5.941   4.009  19.346  0.00  0.00    +0.000 OA
ATOM     13  N   UNL     1       3.816   4.528  18.625  0.00  0.00    +0.000 N 
ATOM     14  C   UNL     1       3.324   4.569  19.999  0.00  0.00    +0.000 C 
ATOM     15  C   UNL     1       2.760   3.225  20.450  0.00  0.00    +0.000 C 
ATOM     16  C   UNL     1       1.344   2.943  19.952  0.00  0.00    +0.000 C 
ATOM     17  C   UNL     1       1.178   2.953  18.435  0.00  0.00    +0.000 C 
ATOM     18  C   UNL     1       1.393   4.335  17.829  0.00  0.00    +0.000 C 
ATOM     19  C   UNL     1       2.856   4.635  17.526  0.00  0.00    +0.000 C 
ENDBRANCH   3  11
TORSDOF 1
ENDMDL
MODEL 2
REMARK VINA RESULT:      -7.4      4.507      7.467
REMARK  Name = 
REMARK  2 active torsions:
REMARK  status: ('A' for Active; 'I' for Inactive)
REMARK    1  A    between atoms: C_1  and  C_2
REMARK    2  A    between atoms: C_3  and  C_4
REMARK                            x       y       z     vdW  Elec       q    Type
REMARK                         _______ _______ _______ _____ _____    ______ ____
ROOT
ATOM      1  C   UNL     1       1.320   9.341  17.802  0.00  0.00    +0.000 C 
ATOM      2  C   UNL     1       1.333   8.912  19.224  0.00  0.00    +0.000 A 
ATOM      3  C   UNL     1       1.932   7.778  19.769  0.00  0.00    +0.000 A 
ATOM      4  O   UNL     1       1.704   7.756  21.117  0.00  0.00    +0.000 OA
ATOM      5  C   UNL     1       0.903   8.795  21.430  0.00  0.00    +0.000 A 
ATOM      6  C   UNL     1       0.373   9.036  22.694  0.00  0.00    +0.000 A 
ATOM      7  C   UNL     1      -0.434  10.166  22.818  0.00  0.00    +0.000 A 
ATOM      8  C   UNL     1      -0.664  11.009  21.727  0.00  0.00    +0.000 A 
ATOM      9  C   UNL     1      -0.116  10.730  20.464  0.00  0.00    +0.000 A 
ATOM     10  C   UNL     1       0.672   9.574  20.309  0.00  0.00    +0.000 A 
ENDROOT
BRANCH   3  11
ATOM     11  C   UNL     1       2.730   6.706  19.176  0.00  0.00    +0.000 C 
ATOM     12  O   UNL     1       3.530   6.938  18.266  0.00  0.00    +0.000 OA
ATOM     13  N   UNL     1       2.556   5.392  19.669  0.00  0.00    +0.000 N 
ATOM     14  C   UNL     1       3.500   4.363  19.244  0.00  0.00    +0.000 C 
ATOM     15  C   UNL     1       2.964   3.532  18.081  0.00  0.00    +0.000 C 
ATOM     16  C   UNL     1       1.969   2.449  18.494  0.00  0.00    +0.000 C 
ATOM     17  C   UNL     1       0.729   2.955  19.226  0.00  0.00    +0.000 C 
ATOM     18  C   UNL     1       1.052   3.542  20.595  0.00  0.00    +0.000 C 
ATOM     19  C   UNL     1       1.442   5.014  20.538  0.00  0.00    +0.000 C 
ENDBRANCH   3  11
TORSDOF 1
ENDMDL
MODEL 3
REMARK VINA RESULT:      -7.3      3.530      4.855
REMARK  Name = 
REMARK  2 active torsions:
REMARK  status: ('A' for Active; 'I' for Inactive)
REMARK    1  A    between atoms: C_1  and  C_2
REMARK    2  A    between atoms: C_3  and  C_4
REMARK                            x       y       z     vdW  Elec       q    Type
REMARK                         _______ _______ _______ _____ _____    ______ ____
ROOT
ATOM      1  C   UNL     1       1.452   4.323  17.669  0.00  0.00    +0.000 C 
ATOM      2  C   UNL     1       2.771   4.923  17.999  0.00  0.00    +0.000 A 
ATOM      3  C   UNL     1       3.051   5.898  18.953  0.00  0.00    +0.000 A 
ATOM      4  O   UNL     1       4.391   6.171  18.933  0.00  0.00    +0.000 OA
ATOM      5  C   UNL     1       4.955   5.463  17.934  0.00  0.00    +0.000 A 
ATOM      6  C   UNL     1       6.287   5.562  17.544  0.00  0.00    +0.000 A 
ATOM      7  C   UNL     1       6.682   4.742  16.487  0.00  0.00    +0.000 A 
ATOM      8  C   UNL     1       5.780   3.859  15.886  0.00  0.00    +0.000 A 
ATOM      9  C   UNL     1       4.441   3.791  16.304  0.00  0.00    +0.000 A 
ATOM     10  C   UNL     1       4.013   4.636  17.345  0.00  0.00    +0.000 A 
ENDROOT
BRANCH   3  11
ATOM     11  C   UNL     1       2.208   6.602  19.919  0.00  0.00    +0.000 C 
ATOM     12  O   UNL     1       1.704   6.006  20.875  0.00  0.00    +0.000 OA
ATOM     13  N   UNL     1       1.978   7.983  19.725  0.00  0.00    +0.000 N 
ATOM     14  C   UNL     1       1.329   8.734  20.796  0.00  0.00    +0.000 C 
ATOM     15  C   UNL     1      -0.170   8.893  20.562  0.00  0.00    +0.000 C 
ATOM     16  C   UNL     1      -0.534   9.996  19.570  0.00  0.00    +0.000 C 
ATOM     17  C   UNL     1       0.070   9.838  18.178  0.00  0.00    +0.000 C 
ATOM     18  C   UNL     1       1.588   9.980  18.175  0.00  0.00    +0.000 C 
ATOM     19  C   UNL     1       2.311   8.674  18.479  0.00  0.00    +0.000 C 
ENDBRANCH   3  11
TORSDOF 1
ENDMDL
MODEL 4
REMARK VINA RESULT:      -7.2      3.378      6.889
REMARK  Name = 
REMARK  2 active torsions:
REMARK  status: ('A' for Active; 'I' for Inactive)
REMARK    1  A    between atoms: C_1  and  C_2
REMARK    2  A    between atoms: C_3  and  C_4
REMARK                            x       y       z     vdW  Elec       q    Type
REMARK                         _______ _______ _______ _____ _____    ______ ____
ROOT
ATOM      1  C   UNL     1       2.364   5.222  20.832  0.00  0.00    +0.000 C 
ATOM      2  C   UNL     1       2.203   6.358  19.888  0.00  0.00    +0.000 A 
ATOM      3  C   UNL     1       2.615   6.429  18.559  0.00  0.00    +0.000 A 
ATOM      4  O   UNL     1       2.277   7.653  18.051  0.00  0.00    +0.000 OA
ATOM      5  C   UNL     1       1.742   8.393  19.044  0.00  0.00    +0.000 A 
ATOM      6  C   UNL     1       1.374   9.730  18.928  0.00  0.00    +0.000 A 
ATOM      7  C   UNL     1       0.834  10.322  20.069  0.00  0.00    +0.000 A 
ATOM      8  C   UNL     1       0.659   9.587  21.245  0.00  0.00    +0.000 A 
ATOM      9  C   UNL     1       1.048   8.239  21.326  0.00  0.00    +0.000 A 
ATOM     10  C   UNL     1       1.627   7.634  20.196  0.00  0.00    +0.000 A 
ENDROOT
BRANCH   3  11
ATOM     11  C   UNL     1       3.277   5.466  17.680  0.00  0.00    +0.000 C 
ATOM     12  O   UNL     1       2.760   4.373  17.434  0.00  0.00    +0.000 OA
ATOM     13  N   UNL     1       4.529   5.815  17.126  0.00  0.00    +0.000 N 
ATOM     14  C   UNL     1       5.086   4.962  16.080  0.00  0.00    +0.000 C 
ATOM     15  C   UNL     1       6.097   3.960  16.630  0.00  0.00    +0.000 C 
ATOM     16  C   UNL     1       7.483   4.548  16.887  0.00  0.00    +0.000 C 
ATOM     17  C   UNL     1       7.517   5.722  17.862  0.00  0.00    +0.000 C 
ATOM     18  C   UNL     1       6.809   6.958  17.319  0.00  0.00    +0.000 C 
ATOM     19  C   UNL     1       5.311   6.960  17.595  0.00  0.00    +0.000 C 
ENDBRANCH   3  11
TORSDOF 1
ENDMDL
MODEL 5
REMARK VINA RESULT:      -6.9      3.760      6.043
REMARK  Name = 
REMARK  2 active torsions:
REMARK  status: ('A' for Active; 'I' for Inactive)
REMARK    1  A    between atoms: C_1  and  C_2
REMARK    2  A    between atoms: C_3  and  C_4
REMARK                            x       y       z     vdW  Elec       q    Type
REMARK                         _______ _______ _______ _____ _____    ______ ____
ROOT
ATOM      1  C   UNL     1       3.400   7.470  16.988  0.00  0.00    +0.000 C 
ATOM      2  C   UNL     1       2.747   7.625  18.314  0.00  0.00    +0.000 A 
ATOM      3  C   UNL     1       2.866   6.795  19.426  0.00  0.00    +0.000 A 
ATOM      4  O   UNL     1       2.097   7.294  20.441  0.00  0.00    +0.000 OA
ATOM      5  C   UNL     1       1.424   8.367  19.976  0.00  0.00    +0.000 A 
ATOM      6  C   UNL     1       0.465   9.074  20.694  0.00  0.00    +0.000 A 
ATOM      7  C   UNL     1      -0.119  10.159  20.040  0.00  0.00    +0.000 A 
ATOM      8  C   UNL     1       0.272  10.513  18.745  0.00  0.00    +0.000 A 
ATOM      9  C   UNL     1       1.241   9.770  18.049  0.00  0.00    +0.000 A 
ATOM     10  C   UNL     1       1.816   8.651  18.679  0.00  0.00    +0.000 A 
ENDROOT
BRANCH   3  11
ATOM     11  C   UNL     1       3.646   5.582  19.671  0.00  0.00    +0.000 C 
ATOM     12  O   UNL     1       4.868   5.635  19.830  0.00  0.00    +0.000 OA
ATOM     13  N   UNL     1       2.964   4.344  19.714  0.00  0.00    +0.000 N 
ATOM     14  C   UNL     1       3.693   3.168  20.176  0.00  0.00    +0.000 C 
ATOM     15  C   UNL     1       4.236   2.334  19.019  0.00  0.00    +0.000 C 
ATOM     16  C   UNL     1       3.198   1.430  18.358  0.00  0.00    +0.000 C 
ATOM     17  C   UNL     1       1.980   2.153  17.789  0.00  0.00    +0.000 C 
ATOM     18  C   UNL     1       1.115   2.791  18.870  0.00  0.00    +0.000 C 
ATOM     19  C   UNL     1       1.581   4.188  19.262  0.00  0.00    +0.000 C 
ENDBRANCH   3  11
TORSDOF 1
ENDMDL
MODEL 6
REMARK VINA RESULT:      -6.7      1.435      1.766
REMARK  Name = 
REMARK  2 active torsions:
REMARK  status: ('A' for Active; 'I' for Inactive)
REMARK    1  A    between atoms: C_1  and  C_2
REMARK    2  A    between atoms: C_3  and  C_4
REMARK                            x       y       z     vdW  Elec       q    Type
REMARK                         _______ _______ _______ _____ _____    ______ ____
ROOT
ATOM      1  C   UNL     1       7.072   6.336  16.937  0.00  0.00    +0.000 C 
ATOM      2  C   UNL     1       6.181   5.568  16.029  0.00  0.00    +0.000 A 
ATOM      3  C   UNL     1       4.879   5.138  16.273  0.00  0.00    +0.000 A 
ATOM      4  O   UNL     1       4.419   4.461  15.177  0.00  0.00    +0.000 OA
ATOM      5  C   UNL     1       5.422   4.371  14.281  0.00  0.00    +0.000 A 
ATOM      6  C   UNL     1       5.358   3.660  13.086  0.00  0.00    +0.000 A 
ATOM      7  C   UNL     1       6.503   3.690  12.289  0.00  0.00    +0.000 A 
ATOM      8  C   UNL     1       7.630   4.420  12.677  0.00  0.00    +0.000 A 
ATOM      9  C   UNL     1       7.659   5.121  13.894  0.00  0.00    +0.000 A 
ATOM     10  C   UNL     1       6.528   5.075  14.729  0.00  0.00    +0.000 A 
ENDROOT
BRANCH   3  11
ATOM     11  C   UNL     1       3.983   5.309  17.416  0.00  0.00    +0.000 C 
ATOM     12  O   UNL     1       3.754   6.428  17.882  0.00  0.00    +0.000 OA
ATOM     13  N   UNL     1       3.392   4.156  17.982  0.00  0.00    +0.000 N 
ATOM     14  C   UNL     1       2.332   4.335  18.970  0.00  0.00    +0.000 C 
ATOM     15  C   UNL     1       2.855   4.237  20.400  0.00  0.00    +0.000 C 
ATOM     16  C   UNL     1       3.070   2.806  20.891  0.00  0.00    +0.000 C 
ATOM     17  C   UNL     1       4.041   1.976  20.055  0.00  0.00    +0.000 C 
ATOM     18  C   UNL     1       3.516   1.691  18.653  0.00  0.00    +0.000 C 
ATOM     19  C   UNL     1       3.835   2.800  17.658  0.00  0.00    +0.000 C 
ENDBRANCH   3  11
TORSDOF 1
ENDMDL
MODEL 7
REMARK VINA RESULT:      -6.7      2.346      3.710
REMARK  Name = 
REMARK  2 active torsions:
REMARK  status: ('A' for Active; 'I' for Inactive)
REMARK    1  A    between atoms: C_1  and  C_2
REMARK    2  A    between atoms: C_3  and  C_4
REMARK                            x       y       z     vdW  Elec       q    Type
REMARK                         _______ _______ _______ _____ _____    ______ ____
ROOT
ATOM      1  C   UNL     1       4.526   6.633  15.815  0.00  0.00    +0.000 C 
ATOM      2  C   UNL     1       5.470   6.178  16.869  0.00  0.00    +0.000 A 
ATOM      3  C   UNL     1       5.446   4.979  17.576  0.00  0.00    +0.000 A 
ATOM      4  O   UNL     1       6.493   4.958  18.456  0.00  0.00    +0.000 OA
ATOM      5  C   UNL     1       7.128   6.146  18.391  0.00  0.00    +0.000 A 
ATOM      6  C   UNL     1       8.180   6.530  19.216  0.00  0.00    +0.000 A 
ATOM      7  C   UNL     1       8.707   7.802  18.990  0.00  0.00    +0.000 A 
ATOM      8  C   UNL     1       8.208   8.616  17.969  0.00  0.00    +0.000 A 
ATOM      9  C   UNL     1       7.140   8.195  17.160  0.00  0.00    +0.000 A 
ATOM     10  C   UNL     1       6.570   6.930  17.395  0.00  0.00    +0.000 A 
ENDROOT
BRANCH   3  11
ATOM     11  C   UNL     1       4.563   3.815  17.512  0.00  0.00    +0.000 C 
ATOM     12  O   UNL     1       4.466   3.148  16.478  0.00  0.00    +0.000 OA
ATOM     13  N   UNL     1       3.816   3.476  18.663  0.00  0.00    +0.000 N 
ATOM     14  C   UNL     1       3.111   2.198  18.681  0.00  0.00    +0.000 C 
ATOM     15  C   UNL     1       1.640   2.346  18.301  0.00  0.00    +0.000 C 
ATOM     16  C   UNL     1       0.750   2.852  19.435  0.00  0.00    +0.000 C 
ATOM     17  C   UNL     1       1.149   4.207  20.014  0.00  0.00    +0.000 C 
ATOM     18  C   UNL     1       2.489   4.166  20.739  0.00  0.00    +0.000 C 
ATOM     19  C   UNL     1       3.678   4.376  19.809  0.00  0.00    +0.000 C 
ENDBRANCH   3  11
TORSDOF 1
ENDMDL
MODEL 8
REMARK VINA RESULT:      -6.7      6.176      7.859
REMARK  Name = 
REMARK  2 active torsions:
REMARK  status: ('A' for Active; 'I' for Inactive)
REMARK    1  A    between atoms: C_1  and  C_2
REMARK    2  A    between atoms: C_3  and  C_4
REMARK                            x       y       z     vdW  Elec       q    Type
REMARK                         _______ _______ _______ _____ _____    ______ ____
ROOT
ATOM      1  C   UNL     1       0.541   8.188  21.488  0.00  0.00    +0.000 C 
ATOM      2  C   UNL     1       1.232   8.415  20.193  0.00  0.00    +0.000 A 
ATOM      3  C   UNL     1       1.073   9.487  19.317  0.00  0.00    +0.000 A 
ATOM      4  O   UNL     1       1.895   9.308  18.238  0.00  0.00    +0.000 OA
ATOM      5  C   UNL     1       2.503   8.110  18.360  0.00  0.00    +0.000 A 
ATOM      6  C   UNL     1       3.333   7.540  17.401  0.00  0.00    +0.000 A 
ATOM      7  C   UNL     1       3.871   6.292  17.715  0.00  0.00    +0.000 A 
ATOM      8  C   UNL     1       3.599   5.680  18.942  0.00  0.00    +0.000 A 
ATOM      9  C   UNL     1       2.750   6.284  19.884  0.00  0.00    +0.000 A 
ATOM     10  C   UNL     1       2.169   7.527  19.571  0.00  0.00    +0.000 A 
ENDROOT
BRANCH   3  11
ATOM     11  C   UNL     1       0.252  10.695  19.378  0.00  0.00    +0.000 C 
ATOM     12  O   UNL     1       0.409  11.524  20.278  0.00  0.00    +0.000 OA
ATOM     13  N   UNL     1      -0.732  10.887  18.382  0.00  0.00    +0.000 N 
ATOM     14  C   UNL     1      -1.397  12.184  18.305  0.00  0.00    +0.000 C 
ATOM     15  C   UNL     1      -2.744  12.185  19.023  0.00  0.00    +0.000 C 
ATOM     16  C   UNL     1      -3.881  11.556  18.219  0.00  0.00    +0.000 C 
ATOM     17  C   UNL     1      -3.653  10.105  17.804  0.00  0.00    +0.000 C 
ATOM     18  C   UNL     1      -2.514   9.951  16.803  0.00  0.00    +0.000 C 
ATOM     19  C   UNL     1      -1.148   9.824  17.466  0.00  0.00    +0.000 C 
ENDBRANCH   3  11
TORSDOF 1
ENDMDL
MODEL 9
REMARK VINA RESULT:      -6.6      1.595      2.744
REMARK  Name = 
REMARK  2 active torsions:
REMARK  status: ('A' for Active; 'I' for Inactive)
REMARK    1  A    between atoms: C_1  and  C_2
REMARK    2  A    between atoms: C_3  and  C_4
REMARK                            x       y       z     vdW  Elec       q    Type
REMARK                         _______ _______ _______ _____ _____    ______ ____
ROOT
ATOM      1  C   UNL     1       4.343   6.273  18.565  0.00  0.00    +0.000 C 
ATOM      2  C   UNL     1       4.431   5.370  17.387  0.00  0.00    +0.000 A 
ATOM      3  C   UNL     1       3.550   4.354  17.024  0.00  0.00    +0.000 A 
ATOM      4  O   UNL     1       3.999   3.764  15.874  0.00  0.00    +0.000 OA
ATOM      5  C   UNL     1       5.185   4.316  15.548  0.00  0.00    +0.000 A 
ATOM      6  C   UNL     1       5.993   3.897  14.495  0.00  0.00    +0.000 A 
ATOM      7  C   UNL     1       7.185   4.599  14.316  0.00  0.00    +0.000 A 
ATOM      8  C   UNL     1       7.516   5.676  15.143  0.00  0.00    +0.000 A 
ATOM      9  C   UNL     1       6.677   6.066  16.200  0.00  0.00    +0.000 A 
ATOM     10  C   UNL     1       5.488   5.348  16.420  0.00  0.00    +0.000 A 
ENDROOT
BRANCH   3  11
ATOM     11  C   UNL     1       2.302   3.874  17.615  0.00  0.00    +0.000 C 
ATOM     12  O   UNL     1       1.209   4.249  17.182  0.00  0.00    +0.000 OA
ATOM     13  N   UNL     1       2.378   2.974  18.703  0.00  0.00    +0.000 N 
ATOM     14  C   UNL     1       1.151   2.322  19.149  0.00  0.00    +0.000 C 
ATOM     15  C   UNL     1       0.522   3.033  20.344  0.00  0.00    +0.000 C 
ATOM     16  C   UNL     1       1.182   2.707  21.683  0.00  0.00    +0.000 C 
ATOM     17  C   UNL     1       2.671   3.033  21.766  0.00  0.00    +0.000 C 
ATOM     18  C   UNL     1       3.517   2.162  20.844  0.00  0.00    +0.000 C 
ATOM     19  C   UNL     1       3.622   2.715  19.429  0.00  0.00    +0.000 C 
ENDBRANCH   3  11
TORSDOF 1
ENDMDL
