MODEL 1
REMARK VINA RESULT:      -8.3      0.000      0.000
REMARK  Name = 
REMARK  3 active torsions:
REMARK  status: ('A' for Active; 'I' for Inactive)
REMARK    1  A    between atoms: C_1  and  C_2
REMARK    2  A    between atoms: C_5  and  C_6
REMARK    3  A    between atoms: C_7  and  C_8
REMARK                            x       y       z     vdW  Elec       q    Type
REMARK                         _______ _______ _______ _____ _____    ______ ____
ROOT
ATOM      1  C   UNL     1       4.752   4.843  17.197  0.00  0.00    +0.000 C 
ATOM      2  C   UNL     1       4.469   3.522  17.190  0.00  0.00    +0.000 C 
ATOM      3  C   UNL     1       3.236   2.868  17.712  0.00  0.00    +0.000 C 
ATOM      4  C   UNL     1       3.119   2.910  19.219  0.00  0.00    +0.000 C 
ATOM      5  C   UNL     1       3.192   4.289  19.870  0.00  0.00    +0.000 C 
ATOM      6  C   UNL     1       3.060   5.542  19.031  0.00  0.00    +0.000 A 
ATOM      7  C   UNL     1       2.218   6.553  19.554  0.00  0.00    +0.000 A 
ATOM      8  C   UNL     1       2.143   7.820  18.980  0.00  0.00    +0.000 A 
ATOM      9  C   UNL     1       2.928   8.112  17.878  0.00  0.00    +0.000 A 
ATOM     10  C   UNL     1       3.756   7.126  17.339  0.00  0.00    +0.000 A 
ATOM     11  C   UNL     1       3.830   5.819  17.874  0.00  0.00    +0.000 A 
ENDROOT
BRANCH   1  18
ATOM     12  C   UNL     1       5.288   4.158  14.081  0.00  0.00    +0.000 C 
ATOM     13  C   UNL     1       6.119   4.947  15.021  0.00  0.00    +0.000 A 
ATOM     14  N   UNL     1       7.277   5.484  14.615  0.00  0.00    +0.000 NA
ATOM     15  O   UNL     1       7.807   6.120  15.725  0.00  0.00    +0.000 OA
ATOM     16  C   UNL     1       6.968   5.969  16.789  0.00  0.00    +0.000 A 
ATOM     17  C   UNL     1       7.413   6.550  18.064  0.00  0.00    +0.000 C 
ATOM     18  C   UNL     1       5.869   5.251  16.386  0.00  0.00    +0.000 A 
ENDBRANCH   1  18
TORSDOF 1
ENDMDL
MODEL 2
REMARK VINA RESULT:      -8.1      1.279      2.217
REMARK  Name = 
REMARK  3 active torsions:
REMARK  status: ('A' for Active; 'I' for Inactive)
REMARK    1  A    between atoms: C_1  and  C_2
REMARK    2  A    between atoms: C_5  and  C_6
REMARK    3  A    between atoms: C_7  and  C_8
REMARK                            x       y       z     vdW  Elec       q    Type
REMARK                         _______ _______ _______ _____ _____    ______ ____
ROOT
ATOM      1  C   UNL     1       4.424   4.467  17.479  0.00  0.00    +0.000 C 
ATOM      2  C   UNL     1       3.802   3.273  17.375  0.00  0.00    +0.000 C 
ATOM      3  C   UNL     1       2.333   3.022  17.418  0.00  0.00    +0.000 C 
ATOM      4  C   UNL     1       1.719   3.252  18.780  0.00  0.00    +0.000 C 
ATOM      5  C   UNL     1       1.947   4.624  19.409  0.00  0.00    +0.000 C 
ATOM      6  C   UNL     1       2.473   5.773  18.575  0.00  0.00    +0.000 A 
ATOM      7  C   UNL     1       1.823   7.018  18.754  0.00  0.00    +0.000 A 
ATOM      8  C   UNL     1       2.311   8.193  18.187  0.00  0.00    +0.000 A 
ATOM      9  C   UNL     1       3.477   8.152  17.443  0.00  0.00    +0.000 A 
ATOM     10  C   UNL     1       4.127   6.933  17.243  0.00  0.00    +0.000 A 
ATOM     11  C   UNL     1       3.639   5.716  17.773  0.00  0.00    +0.000 A 
ENDROOT
BRANCH   1  18
ATOM     12  C   UNL     1       6.941   5.164  19.388  0.00  0.00    +0.000 C 
ATOM     13  C   UNL     1       6.931   4.795  17.953  0.00  0.00    +0.000 A 
ATOM     14  N   UNL     1       8.077   4.724  17.262  0.00  0.00    +0.000 NA
ATOM     15  O   UNL     1       7.718   4.390  15.968  0.00  0.00    +0.000 OA
ATOM     16  C   UNL     1       6.362   4.257  15.884  0.00  0.00    +0.000 A 
ATOM     17  C   UNL     1       5.814   3.948  14.555  0.00  0.00    +0.000 C 
ATOM     18  C   UNL     1       5.820   4.482  17.125  0.00  0.00    +0.000 A 
ENDBRANCH   1  18
TORSDOF 1
ENDMDL
MODEL 3
REMARK VINA RESULT:      -8.0      1.141      1.145
REMARK  Name = 
REMARK  3 active torsions:
REMARK  status: ('A' for Active; 'I' for Inactive)
REMARK    1  A    between atoms: C_1  and  C_2
REMARK    2  A    between atoms: C_5  and  C_6
REMARK    3  A    between atoms: C_7  and  C_8
REMARK                            x       y       z     vdW  Elec       q    Type
REMARK                         _______ _______ _______ _____ _____    ______ ____
ROOT
ATOM      1  C   UNL     1       4.401   4.613  17.501  0.00  0.00    +0.000 C 
ATOM      2  C   UNL     1       3.824   3.399  17.370  0.00  0.00    +0.000 C 
ATOM      3  C   UNL     1       2.366   3.091  17.408  0.00  0.00    +0.000 C 
ATOM      4  C   UNL     1       1.746   3.265  18.776  0.00  0.00    +0.000 C 
ATOM      5  C   UNL     1       1.923   4.630  19.437  0.00  0.00    +0.000 C 
ATOM      6  C   UNL     1       2.403   5.817  18.629  0.00  0.00    +0.000 A 
ATOM      7  C   UNL     1       1.707   7.033  18.838  0.00  0.00    +0.000 A 
ATOM      8  C   UNL     1       2.149   8.238  18.298  0.00  0.00    +0.000 A 
ATOM      9  C   UNL     1       3.315   8.259  17.552  0.00  0.00    +0.000 A 
ATOM     10  C   UNL     1       4.010   7.070  17.323  0.00  0.00    +0.000 A 
ATOM     11  C   UNL     1       3.569   5.823  17.825  0.00  0.00    +0.000 A 
ENDROOT
BRANCH   1  18
ATOM     12  C   UNL     1       5.745   3.999  14.623  0.00  0.00    +0.000 C 
ATOM     13  C   UNL     1       6.395   4.412  15.889  0.00  0.00    +0.000 A 
ATOM     14  N   UNL     1       7.724   4.569  15.949  0.00  0.00    +0.000 NA
ATOM     15  O   UNL     1       8.004   4.923  17.258  0.00  0.00    +0.000 OA
ATOM     16  C   UNL     1       6.846   4.982  17.978  0.00  0.00    +0.000 A 
ATOM     17  C   UNL     1       6.978   5.302  19.407  0.00  0.00    +0.000 C 
ATOM     18  C   UNL     1       5.794   4.688  17.146  0.00  0.00    +0.000 A 
ENDBRANCH   1  18
TORSDOF 1
ENDMDL
MODEL 4
REMARK VINA RESULT:      -7.9      0.474      1.914
REMARK  Name = 
REMARK  3 active torsions:
REMARK  status: ('A' for Active; 'I' for Inactive)
REMARK    1  A    between atoms: C_1  and  C_2
REMARK    2  A    between atoms: C_5  and  C_6
REMARK    3  A    between atoms: C_7  and  C_8
REMARK                            x       y       z     vdW  Elec       q    Type
REMARK                         _______ _______ _______ _____ _____    ______ ____
ROOT
ATOM      1  C   UNL     1       4.724   4.742  17.258  0.00  0.00    +0.000 C 
ATOM      2  C   UNL     1       4.418   3.426  17.262  0.00  0.00    +0.000 C 
ATOM      3  C   UNL     1       3.170   2.799  17.783  0.00  0.00    +0.000 C 
ATOM      4  C   UNL     1       3.044   2.858  19.288  0.00  0.00    +0.000 C 
ATOM      5  C   UNL     1       3.138   4.242  19.926  0.00  0.00    +0.000 C 
ATOM      6  C   UNL     1       3.034   5.489  19.074  0.00  0.00    +0.000 A 
ATOM      7  C   UNL     1       2.206   6.520  19.581  0.00  0.00    +0.000 A 
ATOM      8  C   UNL     1       2.157   7.782  18.995  0.00  0.00    +0.000 A 
ATOM      9  C   UNL     1       2.954   8.049  17.895  0.00  0.00    +0.000 A 
ATOM     10  C   UNL     1       3.768   7.043  17.371  0.00  0.00    +0.000 A 
ATOM     11  C   UNL     1       3.815   5.741  17.920  0.00  0.00    +0.000 A 
ENDROOT
BRANCH   1  18
ATOM     12  C   UNL     1       7.318   6.450  18.163  0.00  0.00    +0.000 C 
ATOM     13  C   UNL     1       6.992   5.879  16.835  0.00  0.00    +0.000 A 
ATOM     14  N   UNL     1       7.824   6.052  15.799  0.00  0.00    +0.000 NA
ATOM     15  O   UNL     1       7.218   5.431  14.720  0.00  0.00    +0.000 OA
ATOM     16  C   UNL     1       6.031   4.883  15.109  0.00  0.00    +0.000 A 
ATOM     17  C   UNL     1       5.238   4.223  14.061  0.00  0.00    +0.000 C 
ATOM     18  C   UNL     1       5.853   5.122  16.449  0.00  0.00    +0.000 A 
ENDBRANCH   1  18
TORSDOF 1
ENDMDL
MODEL 5
REMARK VINA RESULT:      -7.6      1.099      2.220
REMARK  Name = 
REMARK  3 active torsions:
REMARK  status: ('A' for Active; 'I' for Inactive)
REMARK    1  A    between atoms: C_1  and  C_2
REMARK    2  A    between atoms: C_5  and  C_6
REMARK    3  A    between atoms: C_7  and  C_8
REMARK                            x       y       z     vdW  Elec       q    Type
REMARK                         _______ _______ _______ _____ _____    ______ ____
ROOT
ATOM      1  C   UNL     1       4.515   4.225  17.833  0.00  0.00    +0.000 C 
ATOM      2  C   UNL     1       4.230   2.951  17.487  0.00  0.00    +0.000 C 
ATOM      3  C   UNL     1       2.960   2.216  17.746  0.00  0.00    +0.000 C 
ATOM      4  C   UNL     1       2.733   1.895  19.207  0.00  0.00    +0.000 C 
ATOM      5  C   UNL     1       2.763   3.074  20.176  0.00  0.00    +0.000 C 
ATOM      6  C   UNL     1       2.697   4.496  19.659  0.00  0.00    +0.000 A 
ATOM      7  C   UNL     1       1.821   5.368  20.351  0.00  0.00    +0.000 A 
ATOM      8  C   UNL     1       1.792   6.736  20.098  0.00  0.00    +0.000 A 
ATOM      9  C   UNL     1       2.657   7.270  19.157  0.00  0.00    +0.000 A 
ATOM     10  C   UNL     1       3.519   6.427  18.455  0.00  0.00    +0.000 A 
ATOM     11  C   UNL     1       3.549   5.028  18.661  0.00  0.00    +0.000 A 
ENDROOT
BRANCH   1  18
ATOM     12  C   UNL     1       7.063   5.556  19.318  0.00  0.00    +0.000 C 
ATOM     13  C   UNL     1       6.808   5.389  17.867  0.00  0.00    +0.000 A 
ATOM     14  N   UNL     1       7.698   5.829  16.968  0.00  0.00    +0.000 NA
ATOM     15  O   UNL     1       7.151   5.549  15.727  0.00  0.00    +0.000 OA
ATOM     16  C   UNL     1       5.940   4.939  15.883  0.00  0.00    +0.000 A 
ATOM     17  C   UNL     1       5.205   4.617  14.652  0.00  0.00    +0.000 C 
ATOM     18  C   UNL     1       5.690   4.794  17.225  0.00  0.00    +0.000 A 
ENDBRANCH   1  18
TORSDOF 1
ENDMDL
MODEL 6
REMARK VINA RESULT:      -7.6      1.507      3.643
REMARK  Name = 
REMARK  3 active torsions:
REMARK  status: ('A' for Active; 'I' for Inactive)
REMARK    1  A    between atoms: C_1  and  C_2
REMARK    2  A    between atoms: C_5  and  C_6
REMARK    3  A    between atoms: C_7  and  C_8
REMARK                            x       y       z     vdW  Elec       q    Type
REMARK                         _______ _______ _______ _____ _____    ______ ____
ROOT
ATOM      1  C   UNL     1       4.680   5.303  17.847  0.00  0.00    +0.000 C 
ATOM      2  C   UNL     1       4.336   6.591  17.632  0.00  0.00    +0.000 C 
ATOM      3  C   UNL     1       3.183   7.322  18.231  0.00  0.00    +0.000 C 
ATOM      4  C   UNL     1       1.838   6.852  17.723  0.00  0.00    +0.000 C 
ATOM      5  C   UNL     1       1.536   5.363  17.869  0.00  0.00    +0.000 C 
ATOM      6  C   UNL     1       2.395   4.489  18.758  0.00  0.00    +0.000 A 
ATOM      7  C   UNL     1       1.699   3.589  19.602  0.00  0.00    +0.000 A 
ATOM      8  C   UNL     1       2.359   2.610  20.339  0.00  0.00    +0.000 A 
ATOM      9  C   UNL     1       3.735   2.494  20.233  0.00  0.00    +0.000 A 
ATOM     10  C   UNL     1       4.441   3.378  19.416  0.00  0.00    +0.000 A 
ATOM     11  C   UNL     1       3.807   4.407  18.682  0.00  0.00    +0.000 A 
ENDROOT
BRANCH   1  18
ATOM     12  C   UNL     1       7.495   5.539  19.424  0.00  0.00    +0.000 C 
ATOM     13  C   UNL     1       7.228   5.023  18.061  0.00  0.00    +0.000 A 
ATOM     14  N   UNL     1       8.233   4.579  17.295  0.00  0.00    +0.000 NA
ATOM     15  O   UNL     1       7.655   4.203  16.095  0.00  0.00    +0.000 OA
ATOM     16  C   UNL     1       6.309   4.416  16.143  0.00  0.00    +0.000 A 
ATOM     17  C   UNL     1       5.551   4.109  14.921  0.00  0.00    +0.000 C 
ATOM     18  C   UNL     1       5.986   4.915  17.381  0.00  0.00    +0.000 A 
ENDBRANCH   1  18
TORSDOF 1
ENDMDL
MODEL 7
REMARK VINA RESULT:      -7.6      1.372      3.085
REMARK  Name = 
REMARK  3 active torsions:
REMARK  status: ('A' for Active; 'I' for Inactive)
REMARK    1  A    between atoms: C_1  and  C_2
REMARK    2  A    between atoms: C_5  and  C_6
REMARK    3  A    between atoms: C_7  and  C_8
REMARK                            x       y       z     vdW  Elec       q    Type
REMARK                         _______ _______ _______ _____ _____    ______ ____
ROOT
ATOM      1  C   UNL     1       4.696   5.398  17.791  0.00  0.00    +0.000 C 
ATOM      2  C   UNL     1       4.308   6.680  17.618  0.00  0.00    +0.000 C 
ATOM      3  C   UNL     1       3.150   7.360  18.264  0.00  0.00    +0.000 C 
ATOM      4  C   UNL     1       1.807   6.863  17.779  0.00  0.00    +0.000 C 
ATOM      5  C   UNL     1       1.553   5.362  17.894  0.00  0.00    +0.000 C 
ATOM      6  C   UNL     1       2.460   4.493  18.738  0.00  0.00    +0.000 A 
ATOM      7  C   UNL     1       1.814   3.552  19.576  0.00  0.00    +0.000 A 
ATOM      8  C   UNL     1       2.522   2.574  20.270  0.00  0.00    +0.000 A 
ATOM      9  C   UNL     1       3.897   2.502  20.126  0.00  0.00    +0.000 A 
ATOM     10  C   UNL     1       4.555   3.428  19.315  0.00  0.00    +0.000 A 
ATOM     11  C   UNL     1       3.872   4.456  18.625  0.00  0.00    +0.000 A 
ENDROOT
BRANCH   1  18
ATOM     12  C   UNL     1       5.427   4.154  14.895  0.00  0.00    +0.000 C 
ATOM     13  C   UNL     1       6.330   4.506  16.016  0.00  0.00    +0.000 A 
ATOM     14  N   UNL     1       7.651   4.307  15.911  0.00  0.00    +0.000 NA
ATOM     15  O   UNL     1       8.190   4.706  17.122  0.00  0.00    +0.000 OA
ATOM     16  C   UNL     1       7.197   5.146  17.947  0.00  0.00    +0.000 A 
ATOM     17  C   UNL     1       7.603   5.564  19.297  0.00  0.00    +0.000 C 
ATOM     18  C   UNL     1       6.000   5.061  17.281  0.00  0.00    +0.000 A 
ENDBRANCH   1  18
TORSDOF 1
ENDMDL
MODEL 8
REMARK VINA RESULT:      -7.5      1.592      1.927
REMARK  Name = 
REMARK  3 active torsions:
REMARK  status: ('A' for Active; 'I' for Inactive)
REMARK    1  A    between atoms: C_1  and  C_2
REMARK    2  A    between atoms: C_5  and  C_6
REMARK    3  A    between atoms: C_7  and  C_8
REMARK                            x       y       z     vdW  Elec       q    Type
REMARK                         _______ _______ _______ _____ _____    ______ ____
ROOT
ATOM      1  C   UNL     1       4.790   4.830  18.259  0.00  0.00    +0.000 C 
ATOM      2  C   UNL     1       4.822   3.626  17.648  0.00  0.00    +0.000 C 
ATOM      3  C   UNL     1       3.740   2.601  17.635  0.00  0.00    +0.000 C 
ATOM      4  C   UNL     1       3.514   1.941  18.977  0.00  0.00    +0.000 C 
ATOM      5  C   UNL     1       3.222   2.871  20.153  0.00  0.00    +0.000 C 
ATOM      6  C   UNL     1       2.862   4.322  19.914  0.00  0.00    +0.000 A 
ATOM      7  C   UNL     1       1.775   4.825  20.669  0.00  0.00    +0.000 A 
ATOM      8  C   UNL     1       1.450   6.178  20.681  0.00  0.00    +0.000 A 
ATOM      9  C   UNL     1       2.219   7.067  19.951  0.00  0.00    +0.000 A 
ATOM     10  C   UNL     1       3.288   6.591  19.189  0.00  0.00    +0.000 A 
ATOM     11  C   UNL     1       3.624   5.218  19.125  0.00  0.00    +0.000 A 
ENDROOT
BRANCH   1  18
ATOM     12  C   UNL     1       4.956   6.681  15.611  0.00  0.00    +0.000 C 
ATOM     13  C   UNL     1       5.923   6.558  16.727  0.00  0.00    +0.000 A 
ATOM     14  N   UNL     1       7.060   7.267  16.721  0.00  0.00    +0.000 NA
ATOM     15  O   UNL     1       7.738   6.903  17.871  0.00  0.00    +0.000 OA
ATOM     16  C   UNL     1       7.009   5.983  18.566  0.00  0.00    +0.000 A 
ATOM     17  C   UNL     1       7.618   5.457  19.797  0.00  0.00    +0.000 C 
ATOM     18  C   UNL     1       5.836   5.749  17.891  0.00  0.00    +0.000 A 
ENDBRANCH   1  18
TORSDOF 1
ENDMDL
MODEL 9
REMARK VINA RESULT:      -7.5      1.601      2.485
REMARK  Name = 
REMARK  3 active torsions:
REMARK  status: ('A' for Active; 'I' for Inactive)
REMARK    1  A    between atoms: C_1  and  C_2
REMARK    2  A    between atoms: C_5  and  C_6
REMARK    3  A    between atoms: C_7  and  C_8
REMARK                            x       y       z     vdW  Elec       q    Type
REMARK                         _______ _______ _______ _____ _____    ______ ____
ROOT
ATOM      1  C   UNL     1       4.743   4.822  18.130  0.00  0.00    +0.000 C 
ATOM      2  C   UNL     1       4.744   3.613  17.527  0.00  0.00    +0.000 C 
ATOM      3  C   UNL     1       3.655   2.597  17.559  0.00  0.00    +0.000 C 
ATOM      4  C   UNL     1       3.470   1.949  18.912  0.00  0.00    +0.000 C 
ATOM      5  C   UNL     1       3.226   2.888  20.091  0.00  0.00    +0.000 C 
ATOM      6  C   UNL     1       2.869   4.340  19.854  0.00  0.00    +0.000 A 
ATOM      7  C   UNL     1       1.813   4.857  20.643  0.00  0.00    +0.000 A 
ATOM      8  C   UNL     1       1.498   6.213  20.656  0.00  0.00    +0.000 A 
ATOM      9  C   UNL     1       2.249   7.091  19.893  0.00  0.00    +0.000 A 
ATOM     10  C   UNL     1       3.287   6.601  19.099  0.00  0.00    +0.000 A 
ATOM     11  C   UNL     1       3.610   5.226  19.033  0.00  0.00    +0.000 A 
ENDROOT
BRANCH   1  18
ATOM     12  C   UNL     1       7.470   5.551  19.711  0.00  0.00    +0.000 C 
ATOM     13  C   UNL     1       6.978   6.064  18.410  0.00  0.00    +0.000 A 
ATOM     14  N   UNL     1       7.691   6.967  17.724  0.00  0.00    +0.000 NA
ATOM     15  O   UNL     1       6.949   7.252  16.591  0.00  0.00    +0.000 OA
ATOM     16  C   UNL     1       5.798   6.518  16.595  0.00  0.00    +0.000 A 
ATOM     17  C   UNL     1       4.873   6.742  15.475  0.00  0.00    +0.000 C 
ATOM     18  C   UNL     1       5.783   5.730  17.720  0.00  0.00    +0.000 A 
ENDBRANCH   1  18
TORSDOF 1
ENDMDL
