MODEL 1
REMARK VINA RESULT:      -7.8      0.000      0.000
REMARK  Name = 
REMARK  2 active torsions:
REMARK  status: ('A' for Active; 'I' for Inactive)
REMARK    1  A    between atoms: N_1  and  C_2
REMARK    2  A    between atoms: C_5  and  C_6
REMARK                            x       y       z     vdW  Elec       q    Type
REMARK                         _______ _______ _______ _____ _____    ______ ____
ROOT
ATOM      1  C   UNL     1       4.873   4.726  18.316  0.00  0.00    +0.000 C 
ATOM      2  N   UNL     1       5.843   4.699  19.389  0.00  0.00    +0.000 N 
ATOM      3  C   UNL     1       7.063   5.307  19.330  0.00  0.00    +0.000 C 
ATOM      4  O   UNL     1       7.728   5.443  20.355  0.00  0.00    +0.000 OA
ATOM      5  C   UNL     1       7.545   5.810  17.981  0.00  0.00    +0.000 C 
ATOM      6  C   UNL     1       6.829   5.210  16.795  0.00  0.00    +0.000 A 
ATOM      7  C   UNL     1       7.395   5.275  15.517  0.00  0.00    +0.000 A 
ATOM      8  C   UNL     1       6.719   4.738  14.422  0.00  0.00    +0.000 A 
ATOM      9  C   UNL     1       5.476   4.132  14.593  0.00  0.00    +0.000 A 
ATOM     10  C   UNL     1       4.888   4.093  15.857  0.00  0.00    +0.000 A 
ATOM     11  C   UNL     1       5.551   4.646  16.962  0.00  0.00    +0.000 A 
ATOM     12  H   UNL     1       5.535   4.459  20.321  0.00  0.00    +0.000 HD
ENDROOT
BRANCH   1  16
ATOM     13  C   UNL     1       2.187   8.122  18.833  0.00  0.00    +0.000 A 
ATOM     14  C   UNL     1       3.000   8.035  17.707  0.00  0.00    +0.000 A 
ATOM     15  C   UNL     1       3.878   6.961  17.539  0.00  0.00    +0.000 A 
ATOM     16  C   UNL     1       3.927   5.912  18.471  0.00  0.00    +0.000 A 
ATOM     17  C   UNL     1       3.072   5.981  19.580  0.00  0.00    +0.000 A 
ATOM     18  C   UNL     1       2.195   7.062  19.741  0.00  0.00    +0.000 A 
BRANCH  13  19
ATOM     19  N   UNL     1       1.219   9.131  18.924  0.00  0.00    +0.000 N 
ATOM     20  H   UNL     1       0.893   9.462  18.023  0.00  0.00    +0.000 HD
ATOM     21  H   UNL     1       1.479   9.892  19.542  0.00  0.00    +0.000 HD
ENDBRANCH  13  19
ENDBRANCH   1  16
TORSDOF 2
ENDMDL
MODEL 2
REMARK VINA RESULT:      -7.8      0.061      1.132
REMARK  Name = 
REMARK  2 active torsions:
REMARK  status: ('A' for Active; 'I' for Inactive)
REMARK    1  A    between atoms: N_1  and  C_2
REMARK    2  A    between atoms: C_5  and  C_6
REMARK                            x       y       z     vdW  Elec       q    Type
REMARK                         _______ _______ _______ _____ _____    ______ ____
ROOT
ATOM      1  C   UNL     1       4.898   4.699  18.346  0.00  0.00    +0.000 C 
ATOM      2  N   UNL     1       5.877   4.676  19.410  0.00  0.00    +0.000 N 
ATOM      3  C   UNL     1       7.090   5.298  19.345  0.00  0.00    +0.000 C 
ATOM      4  O   UNL     1       7.762   5.435  20.366  0.00  0.00    +0.000 OA
ATOM      5  C   UNL     1       7.554   5.817  17.997  0.00  0.00    +0.000 C 
ATOM      6  C   UNL     1       6.835   5.216  16.812  0.00  0.00    +0.000 A 
ATOM      7  C   UNL     1       7.389   5.298  15.530  0.00  0.00    +0.000 A 
ATOM      8  C   UNL     1       6.711   4.760  14.436  0.00  0.00    +0.000 A 
ATOM      9  C   UNL     1       5.476   4.139  14.614  0.00  0.00    +0.000 A 
ATOM     10  C   UNL     1       4.900   4.084  15.882  0.00  0.00    +0.000 A 
ATOM     11  C   UNL     1       5.566   4.636  16.986  0.00  0.00    +0.000 A 
ATOM     12  H   UNL     1       5.580   4.425  20.343  0.00  0.00    +0.000 HD
ENDROOT
BRANCH   1  16
ATOM     13  C   UNL     1       2.137   8.049  18.762  0.00  0.00    +0.000 A 
ATOM     14  C   UNL     1       2.197   7.063  19.742  0.00  0.00    +0.000 A 
ATOM     15  C   UNL     1       3.065   5.976  19.612  0.00  0.00    +0.000 A 
ATOM     16  C   UNL     1       3.939   5.872  18.517  0.00  0.00    +0.000 A 
ATOM     17  C   UNL     1       3.907   6.892  17.556  0.00  0.00    +0.000 A 
ATOM     18  C   UNL     1       3.034   7.978  17.694  0.00  0.00    +0.000 A 
BRANCH  13  19
ATOM     19  N   UNL     1       1.364   9.198  18.968  0.00  0.00    +0.000 N 
ATOM     20  H   UNL     1       0.366   9.016  18.994  0.00  0.00    +0.000 HD
ATOM     21  H   UNL     1       1.597   9.965  18.345  0.00  0.00    +0.000 HD
ENDBRANCH  13  19
ENDBRANCH   1  16
TORSDOF 2
ENDMDL
MODEL 3
REMARK VINA RESULT:      -7.7      2.239      4.022
REMARK  Name = 
REMARK  2 active torsions:
REMARK  status: ('A' for Active; 'I' for Inactive)
REMARK    1  A    between atoms: N_1  and  C_2
REMARK    2  A    between atoms: C_5  and  C_6
REMARK                            x       y       z     vdW  Elec       q    Type
REMARK                         _______ _______ _______ _____ _____    ______ ____
ROOT
ATOM      1  C   UNL     1       3.330   5.744  19.724  0.00  0.00    +0.000 C 
ATOM      2  N   UNL     1       4.639   5.649  19.117  0.00  0.00    +0.000 N 
ATOM      3  C   UNL     1       4.881   5.055  17.913  0.00  0.00    +0.000 C 
ATOM      4  O   UNL     1       5.965   5.222  17.356  0.00  0.00    +0.000 OA
ATOM      5  C   UNL     1       3.778   4.215  17.297  0.00  0.00    +0.000 C 
ATOM      6  C   UNL     1       2.706   3.779  18.267  0.00  0.00    +0.000 A 
ATOM      7  C   UNL     1       1.854   2.715  17.951  0.00  0.00    +0.000 A 
ATOM      8  C   UNL     1       0.852   2.329  18.842  0.00  0.00    +0.000 A 
ATOM      9  C   UNL     1       0.693   3.002  20.051  0.00  0.00    +0.000 A 
ATOM     10  C   UNL     1       1.515   4.086  20.359  0.00  0.00    +0.000 A 
ATOM     11  C   UNL     1       2.514   4.492  19.464  0.00  0.00    +0.000 A 
ATOM     12  H   UNL     1       5.373   6.263  19.441  0.00  0.00    +0.000 HD
ENDROOT
BRANCH   1  16
ATOM     13  C   UNL     1       1.365   9.476  18.616  0.00  0.00    +0.000 A 
ATOM     14  C   UNL     1       2.122   8.777  17.681  0.00  0.00    +0.000 A 
ATOM     15  C   UNL     1       2.771   7.589  18.029  0.00  0.00    +0.000 A 
ATOM     16  C   UNL     1       2.635   7.038  19.313  0.00  0.00    +0.000 A 
ATOM     17  C   UNL     1       1.833   7.722  20.237  0.00  0.00    +0.000 A 
ATOM     18  C   UNL     1       1.187   8.912  19.882  0.00  0.00    +0.000 A 
BRANCH  13  19
ATOM     19  N   UNL     1       0.613  10.590  18.221  0.00  0.00    +0.000 N 
ATOM     20  H   UNL     1       0.214  10.501  17.293  0.00  0.00    +0.000 HD
ATOM     21  H   UNL     1       1.093  11.474  18.348  0.00  0.00    +0.000 HD
ENDBRANCH  13  19
ENDBRANCH   1  16
TORSDOF 2
ENDMDL
MODEL 4
REMARK VINA RESULT:      -7.6      2.219      4.122
REMARK  Name = 
REMARK  2 active torsions:
REMARK  status: ('A' for Active; 'I' for Inactive)
REMARK    1  A    between atoms: N_1  and  C_2
REMARK    2  A    between atoms: C_5  and  C_6
REMARK                            x       y       z     vdW  Elec       q    Type
REMARK                         _______ _______ _______ _____ _____    ______ ____
ROOT
ATOM      1  C   UNL     1       3.339   5.709  19.777  0.00  0.00    +0.000 C 
ATOM      2  N   UNL     1       4.663   5.624  19.202  0.00  0.00    +0.000 N 
ATOM      3  C   UNL     1       4.936   5.050  17.995  0.00  0.00    +0.000 C 
ATOM      4  O   UNL     1       6.033   5.225  17.468  0.00  0.00    +0.000 OA
ATOM      5  C   UNL     1       3.848   4.219  17.338  0.00  0.00    +0.000 C 
ATOM      6  C   UNL     1       2.753   3.767  18.274  0.00  0.00    +0.000 A 
ATOM      7  C   UNL     1       1.910   2.708  17.920  0.00  0.00    +0.000 A 
ATOM      8  C   UNL     1       0.886   2.308  18.779  0.00  0.00    +0.000 A 
ATOM      9  C   UNL     1       0.697   2.962  19.995  0.00  0.00    +0.000 A 
ATOM     10  C   UNL     1       1.510   4.040  20.341  0.00  0.00    +0.000 A 
ATOM     11  C   UNL     1       2.531   4.461  19.477  0.00  0.00    +0.000 A 
ATOM     12  H   UNL     1       5.389   6.233  19.554  0.00  0.00    +0.000 HD
ENDROOT
BRANCH   1  16
ATOM     13  C   UNL     1       1.357   9.394  18.549  0.00  0.00    +0.000 A 
ATOM     14  C   UNL     1       1.238   8.936  19.858  0.00  0.00    +0.000 A 
ATOM     15  C   UNL     1       1.854   7.747  20.258  0.00  0.00    +0.000 A 
ATOM     16  C   UNL     1       2.654   7.009  19.371  0.00  0.00    +0.000 A 
ATOM     17  C   UNL     1       2.808   7.500  18.067  0.00  0.00    +0.000 A 
ATOM     18  C   UNL     1       2.187   8.692  17.672  0.00  0.00    +0.000 A 
BRANCH  13  19
ATOM     19  N   UNL     1       0.849  10.651  18.196  0.00  0.00    +0.000 N 
ATOM     20  H   UNL     1      -0.110  10.798  18.493  0.00  0.00    +0.000 HD
ATOM     21  H   UNL     1       0.988  10.889  17.220  0.00  0.00    +0.000 HD
ENDBRANCH  13  19
ENDBRANCH   1  16
TORSDOF 2
ENDMDL
MODEL 5
REMARK VINA RESULT:      -7.5      2.733      5.627
REMARK  Name = 
REMARK  2 active torsions:
REMARK  status: ('A' for Active; 'I' for Inactive)
REMARK    1  A    between atoms: N_1  and  C_2
REMARK    2  A    between atoms: C_5  and  C_6
REMARK                            x       y       z     vdW  Elec       q    Type
REMARK                         _______ _______ _______ _____ _____    ______ ____
ROOT
ATOM      1  C   UNL     1       2.738   5.425  17.766  0.00  0.00    +0.000 C 
ATOM      2  N   UNL     1       2.458   6.778  18.193  0.00  0.00    +0.000 N 
ATOM      3  C   UNL     1       2.218   7.135  19.488  0.00  0.00    +0.000 C 
ATOM      4  O   UNL     1       2.225   8.323  19.806  0.00  0.00    +0.000 OA
ATOM      5  C   UNL     1       1.964   6.031  20.498  0.00  0.00    +0.000 C 
ATOM      6  C   UNL     1       1.582   4.702  19.891  0.00  0.00    +0.000 A 
ATOM      7  C   UNL     1       0.960   3.719  20.669  0.00  0.00    +0.000 A 
ATOM      8  C   UNL     1       0.628   2.486  20.109  0.00  0.00    +0.000 A 
ATOM      9  C   UNL     1       0.915   2.224  18.771  0.00  0.00    +0.000 A 
ATOM     10  C   UNL     1       1.565   3.184  17.997  0.00  0.00    +0.000 A 
ATOM     11  C   UNL     1       1.918   4.421  18.554  0.00  0.00    +0.000 A 
ATOM     12  H   UNL     1       2.703   7.544  17.582  0.00  0.00    +0.000 HD
ENDROOT
BRANCH   1  16
ATOM     13  C   UNL     1       7.034   4.679  17.731  0.00  0.00    +0.000 A 
ATOM     14  C   UNL     1       6.410   5.134  18.889  0.00  0.00    +0.000 A 
ATOM     15  C   UNL     1       5.037   5.394  18.907  0.00  0.00    +0.000 A 
ATOM     16  C   UNL     1       4.238   5.152  17.778  0.00  0.00    +0.000 A 
ATOM     17  C   UNL     1       4.864   4.649  16.629  0.00  0.00    +0.000 A 
ATOM     18  C   UNL     1       6.240   4.391  16.618  0.00  0.00    +0.000 A 
BRANCH  13  19
ATOM     19  N   UNL     1       8.381   4.296  17.763  0.00  0.00    +0.000 N 
ATOM     20  H   UNL     1       8.746   4.175  18.702  0.00  0.00    +0.000 HD
ATOM     21  H   UNL     1       8.985   4.875  17.189  0.00  0.00    +0.000 HD
ENDBRANCH  13  19
ENDBRANCH   1  16
TORSDOF 2
ENDMDL
MODEL 6
REMARK VINA RESULT:      -7.4      2.396      3.229
REMARK  Name = 
REMARK  2 active torsions:
REMARK  status: ('A' for Active; 'I' for Inactive)
REMARK    1  A    between atoms: N_1  and  C_2
REMARK    2  A    between atoms: C_5  and  C_6
REMARK                            x       y       z     vdW  Elec       q    Type
REMARK                         _______ _______ _______ _____ _____    ______ ____
ROOT
ATOM      1  C   UNL     1       3.694   6.091  17.508  0.00  0.00    +0.000 C 
ATOM      2  N   UNL     1       3.175   4.757  17.715  0.00  0.00    +0.000 N 
ATOM      3  C   UNL     1       3.586   3.925  18.715  0.00  0.00    +0.000 C 
ATOM      4  O   UNL     1       2.938   2.911  18.972  0.00  0.00    +0.000 OA
ATOM      5  C   UNL     1       4.835   4.302  19.490  0.00  0.00    +0.000 C 
ATOM      6  C   UNL     1       5.719   5.313  18.799  0.00  0.00    +0.000 A 
ATOM      7  C   UNL     1       7.054   5.472  19.188  0.00  0.00    +0.000 A 
ATOM      8  C   UNL     1       7.860   6.422  18.562  0.00  0.00    +0.000 A 
ATOM      9  C   UNL     1       7.341   7.220  17.544  0.00  0.00    +0.000 A 
ATOM     10  C   UNL     1       6.003   7.094  17.174  0.00  0.00    +0.000 A 
ATOM     11  C   UNL     1       5.179   6.153  17.809  0.00  0.00    +0.000 A 
ATOM     12  H   UNL     1       2.294   4.504  17.289  0.00  0.00    +0.000 HD
ENDROOT
BRANCH   1  16
ATOM     13  C   UNL     1       1.264   9.040  19.610  0.00  0.00    +0.000 A 
ATOM     14  C   UNL     1       1.705   7.896  20.268  0.00  0.00    +0.000 A 
ATOM     15  C   UNL     1       2.469   6.936  19.600  0.00  0.00    +0.000 A 
ATOM     16  C   UNL     1       2.860   7.120  18.264  0.00  0.00    +0.000 A 
ATOM     17  C   UNL     1       2.452   8.296  17.620  0.00  0.00    +0.000 A 
ATOM     18  C   UNL     1       1.686   9.254  18.296  0.00  0.00    +0.000 A 
BRANCH  13  19
ATOM     19  N   UNL     1       0.615  10.055  20.324  0.00  0.00    +0.000 N 
ATOM     20  H   UNL     1       1.233  10.581  20.932  0.00  0.00    +0.000 HD
ATOM     21  H   UNL     1      -0.224   9.746  20.804  0.00  0.00    +0.000 HD
ENDBRANCH  13  19
ENDBRANCH   1  16
TORSDOF 2
ENDMDL
MODEL 7
REMARK VINA RESULT:      -7.3      2.386      3.030
REMARK  Name = 
REMARK  2 active torsions:
REMARK  status: ('A' for Active; 'I' for Inactive)
REMARK    1  A    between atoms: N_1  and  C_2
REMARK    2  A    between atoms: C_5  and  C_6
REMARK                            x       y       z     vdW  Elec       q    Type
REMARK                         _______ _______ _______ _____ _____    ______ ____
ROOT
ATOM      1  C   UNL     1       3.698   6.068  17.495  0.00  0.00    +0.000 C 
ATOM      2  N   UNL     1       3.192   4.731  17.712  0.00  0.00    +0.000 N 
ATOM      3  C   UNL     1       3.610   3.910  18.719  0.00  0.00    +0.000 C 
ATOM      4  O   UNL     1       2.972   2.892  18.982  0.00  0.00    +0.000 OA
ATOM      5  C   UNL     1       4.855   4.305  19.491  0.00  0.00    +0.000 C 
ATOM      6  C   UNL     1       5.730   5.320  18.795  0.00  0.00    +0.000 A 
ATOM      7  C   UNL     1       7.062   5.494  19.184  0.00  0.00    +0.000 A 
ATOM      8  C   UNL     1       7.860   6.447  18.551  0.00  0.00    +0.000 A 
ATOM      9  C   UNL     1       7.334   7.233  17.527  0.00  0.00    +0.000 A 
ATOM     10  C   UNL     1       5.998   7.091  17.156  0.00  0.00    +0.000 A 
ATOM     11  C   UNL     1       5.182   6.147  17.797  0.00  0.00    +0.000 A 
ATOM     12  H   UNL     1       2.315   4.465  17.287  0.00  0.00    +0.000 HD
ENDROOT
BRANCH   1  16
ATOM     13  C   UNL     1       1.330   8.997  19.693  0.00  0.00    +0.000 A 
ATOM     14  C   UNL     1       1.646   9.211  18.354  0.00  0.00    +0.000 A 
ATOM     15  C   UNL     1       2.419   8.288  17.645  0.00  0.00    +0.000 A 
ATOM     16  C   UNL     1       2.854   7.095  18.242  0.00  0.00    +0.000 A 
ATOM     17  C   UNL     1       2.493   6.862  19.577  0.00  0.00    +0.000 A 
ATOM     18  C   UNL     1       1.719   7.792  20.282  0.00  0.00    +0.000 A 
BRANCH  13  19
ATOM     19  N   UNL     1       0.446   9.860  20.353  0.00  0.00    +0.000 N 
ATOM     20  H   UNL     1       0.115  10.623  19.773  0.00  0.00    +0.000 HD
ATOM     21  H   UNL     1       0.785  10.182  21.253  0.00  0.00    +0.000 HD
ENDBRANCH  13  19
ENDBRANCH   1  16
TORSDOF 2
ENDMDL
MODEL 8
REMARK VINA RESULT:      -7.2      2.696      5.343
REMARK  Name = 
REMARK  2 active torsions:
REMARK  status: ('A' for Active; 'I' for Inactive)
REMARK    1  A    between atoms: N_1  and  C_2
REMARK    2  A    between atoms: C_5  and  C_6
REMARK                            x       y       z     vdW  Elec       q    Type
REMARK                         _______ _______ _______ _____ _____    ______ ____
ROOT
ATOM      1  C   UNL     1       2.640   6.119  18.089  0.00  0.00    +0.000 C 
ATOM      2  N   UNL     1       2.123   7.315  18.716  0.00  0.00    +0.000 N 
ATOM      3  C   UNL     1       1.781   7.399  20.034  0.00  0.00    +0.000 C 
ATOM      4  O   UNL     1       1.578   8.500  20.544  0.00  0.00    +0.000 OA
ATOM      5  C   UNL     1       1.680   6.110  20.829  0.00  0.00    +0.000 C 
ATOM      6  C   UNL     1       1.548   4.863  19.988  0.00  0.00    +0.000 A 
ATOM      7  C   UNL     1       1.073   3.674  20.552  0.00  0.00    +0.000 A 
ATOM      8  C   UNL     1       0.973   2.520  19.776  0.00  0.00    +0.000 A 
ATOM      9  C   UNL     1       1.346   2.543  18.434  0.00  0.00    +0.000 A 
ATOM     10  C   UNL     1       1.853   3.714  17.872  0.00  0.00    +0.000 A 
ATOM     11  C   UNL     1       1.974   4.876  18.648  0.00  0.00    +0.000 A 
ATOM     12  H   UNL     1       2.257   8.205  18.256  0.00  0.00    +0.000 HD
ENDROOT
BRANCH   1  16
ATOM     13  C   UNL     1       6.994   5.962  18.275  0.00  0.00    +0.000 A 
ATOM     14  C   UNL     1       6.361   6.740  17.311  0.00  0.00    +0.000 A 
ATOM     15  C   UNL     1       4.966   6.784  17.230  0.00  0.00    +0.000 A 
ATOM     16  C   UNL     1       4.164   6.090  18.151  0.00  0.00    +0.000 A 
ATOM     17  C   UNL     1       4.808   5.346  19.148  0.00  0.00    +0.000 A 
ATOM     18  C   UNL     1       6.205   5.306  19.223  0.00  0.00    +0.000 A 
BRANCH  13  19
ATOM     19  N   UNL     1       8.385   6.031  18.430  0.00  0.00    +0.000 N 
ATOM     20  H   UNL     1       8.688   5.964  19.395  0.00  0.00    +0.000 HD
ATOM     21  H   UNL     1       8.812   6.815  17.948  0.00  0.00    +0.000 HD
ENDBRANCH  13  19
ENDBRANCH   1  16
TORSDOF 2
ENDMDL
MODEL 9
REMARK VINA RESULT:      -7.2      2.704      5.472
REMARK  Name = 
REMARK  2 active torsions:
REMARK  status: ('A' for Active; 'I' for Inactive)
REMARK    1  A    between atoms: N_1  and  C_2
REMARK    2  A    between atoms: C_5  and  C_6
REMARK                            x       y       z     vdW  Elec       q    Type
REMARK                         _______ _______ _______ _____ _____    ______ ____
ROOT
ATOM      1  C   UNL     1       2.623   6.120  18.131  0.00  0.00    +0.000 C 
ATOM      2  N   UNL     1       2.124   7.317  18.770  0.00  0.00    +0.000 N 
ATOM      3  C   UNL     1       1.782   7.392  20.089  0.00  0.00    +0.000 C 
ATOM      4  O   UNL     1       1.595   8.490  20.611  0.00  0.00    +0.000 OA
ATOM      5  C   UNL     1       1.663   6.096  20.870  0.00  0.00    +0.000 C 
ATOM      6  C   UNL     1       1.512   4.861  20.016  0.00  0.00    +0.000 A 
ATOM      7  C   UNL     1       1.020   3.673  20.567  0.00  0.00    +0.000 A 
ATOM      8  C   UNL     1       0.903   2.528  19.778  0.00  0.00    +0.000 A 
ATOM      9  C   UNL     1       1.276   2.561  18.436  0.00  0.00    +0.000 A 
ATOM     10  C   UNL     1       1.801   3.730  17.887  0.00  0.00    +0.000 A 
ATOM     11  C   UNL     1       1.938   4.881  18.675  0.00  0.00    +0.000 A 
ATOM     12  H   UNL     1       2.271   8.210  18.320  0.00  0.00    +0.000 HD
ENDROOT
BRANCH   1  16
ATOM     13  C   UNL     1       6.980   6.050  18.295  0.00  0.00    +0.000 A 
ATOM     14  C   UNL     1       6.232   5.308  19.204  0.00  0.00    +0.000 A 
ATOM     15  C   UNL     1       4.835   5.337  19.172  0.00  0.00    +0.000 A 
ATOM     16  C   UNL     1       4.146   6.069  18.192  0.00  0.00    +0.000 A 
ATOM     17  C   UNL     1       4.906   6.777  17.250  0.00  0.00    +0.000 A 
ATOM     18  C   UNL     1       6.305   6.744  17.288  0.00  0.00    +0.000 A 
BRANCH  13  19
ATOM     19  N   UNL     1       8.373   5.908  18.252  0.00  0.00    +0.000 N 
ATOM     20  H   UNL     1       8.706   5.046  18.668  0.00  0.00    +0.000 HD
ATOM     21  H   UNL     1       8.878   6.719  18.595  0.00  0.00    +0.000 HD
ENDBRANCH  13  19
ENDBRANCH   1  16
TORSDOF 2
ENDMDL
