MODEL 1
REMARK VINA RESULT:      -8.3      0.000      0.000
REMARK  Name = 
REMARK  3 active torsions:
REMARK  status: ('A' for Active; 'I' for Inactive)
REMARK    1  A    between atoms: C_1  and  O_2
REMARK    2  A    between atoms: O_2  and  C_3
REMARK    3  A    between atoms: C_7  and  C_8
REMARK                            x       y       z     vdW  Elec       q    Type
REMARK                         _______ _______ _______ _____ _____    ______ ____
ROOT
ATOM      1  C   UNL     1       2.615   6.664  19.122  0.00  0.00    +0.000 A 
ATOM      2  N   UNL     1       3.734   6.315  19.741  0.00  0.00    +0.000 NA
ATOM      3  C   UNL     1       4.198   5.224  19.060  0.00  0.00    +0.000 A 
ATOM      4  C   UNL     1       3.250   4.772  18.178  0.00  0.00    +0.000 A 
ATOM      5  N   UNL     1       2.255   5.692  18.208  0.00  0.00    +0.000 N 
ATOM      6  C   UNL     1       3.500   3.780  17.167  0.00  0.00    +0.000 C 
ATOM      7  O   UNL     1       2.659   3.070  16.643  0.00  0.00    +0.000 OA
ATOM      8  C   UNL     1       4.903   3.875  16.673  0.00  0.00    +0.000 A 
ATOM      9  C   UNL     1       5.118   3.681  15.304  0.00  0.00    +0.000 A 
ATOM     10  C   UNL     1       6.239   4.263  14.713  0.00  0.00    +0.000 A 
ATOM     11  C   UNL     1       7.149   4.993  15.486  0.00  0.00    +0.000 A 
ATOM     12  C   UNL     1       6.998   5.082  16.872  0.00  0.00    +0.000 A 
ATOM     13  C   UNL     1       5.882   4.505  17.474  0.00  0.00    +0.000 A 
ATOM     14  C   UNL     1       5.588   4.834  18.901  0.00  0.00    +0.000 C 
ATOM     15  O   UNL     1       6.459   4.883  19.757  0.00  0.00    +0.000 OA
ATOM     16  H   UNL     1       1.563   5.798  17.481  0.00  0.00    +0.000 HD
ENDROOT
BRANCH   1  21
ATOM     17  C   UNL     1       0.673   9.604  20.505  0.00  0.00    +0.000 A 
ATOM     18  C   UNL     1       0.529  10.372  19.350  0.00  0.00    +0.000 A 
ATOM     19  C   UNL     1       1.093   9.958  18.147  0.00  0.00    +0.000 A 
ATOM     20  C   UNL     1       1.799   8.756  18.088  0.00  0.00    +0.000 A 
ATOM     21  C   UNL     1       1.960   7.969  19.240  0.00  0.00    +0.000 A 
ATOM     22  C   UNL     1       1.403   8.416  20.447  0.00  0.00    +0.000 A 
BRANCH  17  24
ATOM     23  C   UNL     1       0.235   9.402  22.833  0.00  0.00    +0.000 C 
ATOM     24  O   UNL     1       0.057  10.112  21.615  0.00  0.00    +0.000 OA
ENDBRANCH  17  24
ENDBRANCH   1  21
TORSDOF 2
ENDMDL
MODEL 2
REMARK VINA RESULT:      -8.2      5.118      6.886
REMARK  Name = 
REMARK  3 active torsions:
REMARK  status: ('A' for Active; 'I' for Inactive)
REMARK    1  A    between atoms: C_1  and  O_2
REMARK    2  A    between atoms: O_2  and  C_3
REMARK    3  A    between atoms: C_7  and  C_8
REMARK                            x       y       z     vdW  Elec       q    Type
REMARK                         _______ _______ _______ _____ _____    ______ ____
ROOT
ATOM      1  C   UNL     1       8.355   8.713  18.167  0.00  0.00    +0.000 A 
ATOM      2  N   UNL     1       7.687   8.502  17.042  0.00  0.00    +0.000 NA
ATOM      3  C   UNL     1       7.086   7.285  17.200  0.00  0.00    +0.000 A 
ATOM      4  C   UNL     1       7.571   6.654  18.317  0.00  0.00    +0.000 A 
ATOM      5  N   UNL     1       8.364   7.563  18.936  0.00  0.00    +0.000 N 
ATOM      6  C   UNL     1       6.999   5.460  18.879  0.00  0.00    +0.000 C 
ATOM      7  O   UNL     1       7.581   4.657  19.587  0.00  0.00    +0.000 OA
ATOM      8  C   UNL     1       5.524   5.434  18.666  0.00  0.00    +0.000 A 
ATOM      9  C   UNL     1       4.732   4.938  19.707  0.00  0.00    +0.000 A 
ATOM     10  C   UNL     1       3.409   5.368  19.805  0.00  0.00    +0.000 A 
ATOM     11  C   UNL     1       2.876   6.245  18.853  0.00  0.00    +0.000 A 
ATOM     12  C   UNL     1       3.631   6.642  17.746  0.00  0.00    +0.000 A 
ATOM     13  C   UNL     1       4.955   6.220  17.639  0.00  0.00    +0.000 A 
ATOM     14  C   UNL     1       5.829   6.861  16.611  0.00  0.00    +0.000 C 
ATOM     15  O   UNL     1       5.444   7.093  15.474  0.00  0.00    +0.000 OA
ATOM     16  H   UNL     1       8.632   7.509  19.907  0.00  0.00    +0.000 HD
ENDROOT
BRANCH   1  21
ATOM     17  C   UNL     1       9.534  12.309  18.188  0.00  0.00    +0.000 A 
ATOM     18  C   UNL     1       9.992  12.413  19.502  0.00  0.00    +0.000 A 
ATOM     19  C   UNL     1       9.878  11.340  20.380  0.00  0.00    +0.000 A 
ATOM     20  C   UNL     1       9.315  10.140  19.943  0.00  0.00    +0.000 A 
ATOM     21  C   UNL     1       8.844  10.015  18.626  0.00  0.00    +0.000 A 
ATOM     22  C   UNL     1       8.947  11.117  17.763  0.00  0.00    +0.000 A 
BRANCH  17  24
ATOM     23  C   UNL     1      11.059  13.748  17.068  0.00  0.00    +0.000 C 
ATOM     24  O   UNL     1       9.721  13.428  17.423  0.00  0.00    +0.000 OA
ENDBRANCH  17  24
ENDBRANCH   1  21
TORSDOF 2
ENDMDL
MODEL 3
REMARK VINA RESULT:      -8.2      3.189      7.219
REMARK  Name = 
REMARK  3 active torsions:
REMARK  status: ('A' for Active; 'I' for Inactive)
REMARK    1  A    between atoms: C_1  and  O_2
REMARK    2  A    between atoms: O_2  and  C_3
REMARK    3  A    between atoms: C_7  and  C_8
REMARK                            x       y       z     vdW  Elec       q    Type
REMARK                         _______ _______ _______ _____ _____    ______ ____
ROOT
ATOM      1  C   UNL     1       5.693   4.930  16.033  0.00  0.00    +0.000 A 
ATOM      2  N   UNL     1       6.138   4.266  17.092  0.00  0.00    +0.000 NA
ATOM      3  C   UNL     1       5.227   4.511  18.081  0.00  0.00    +0.000 A 
ATOM      4  C   UNL     1       4.359   5.501  17.698  0.00  0.00    +0.000 A 
ATOM      5  N   UNL     1       4.645   5.756  16.398  0.00  0.00    +0.000 N 
ATOM      6  C   UNL     1       3.162   5.845  18.417  0.00  0.00    +0.000 C 
ATOM      7  O   UNL     1       2.587   6.918  18.371  0.00  0.00    +0.000 OA
ATOM      8  C   UNL     1       2.578   4.638  19.070  0.00  0.00    +0.000 A 
ATOM      9  C   UNL     1       1.183   4.519  19.074  0.00  0.00    +0.000 A 
ATOM     10  C   UNL     1       0.620   3.247  19.159  0.00  0.00    +0.000 A 
ATOM     11  C   UNL     1       1.437   2.117  19.282  0.00  0.00    +0.000 A 
ATOM     12  C   UNL     1       2.823   2.248  19.402  0.00  0.00    +0.000 A 
ATOM     13  C   UNL     1       3.397   3.515  19.317  0.00  0.00    +0.000 A 
ATOM     14  C   UNL     1       4.880   3.619  19.173  0.00  0.00    +0.000 C 
ATOM     15  O   UNL     1       5.654   2.929  19.821  0.00  0.00    +0.000 OA
ATOM     16  H   UNL     1       4.013   6.216  15.760  0.00  0.00    +0.000 HD
ENDROOT
BRANCH   1  21
ATOM     17  C   UNL     1       5.886   3.506  12.532  0.00  0.00    +0.000 A 
ATOM     18  C   UNL     1       7.076   4.088  12.093  0.00  0.00    +0.000 A 
ATOM     19  C   UNL     1       7.781   4.965  12.910  0.00  0.00    +0.000 A 
ATOM     20  C   UNL     1       7.306   5.257  14.189  0.00  0.00    +0.000 A 
ATOM     21  C   UNL     1       6.109   4.686  14.651  0.00  0.00    +0.000 A 
ATOM     22  C   UNL     1       5.401   3.822  13.801  0.00  0.00    +0.000 A 
BRANCH  17  24
ATOM     23  C   UNL     1       4.045   3.040  11.102  0.00  0.00    +0.000 C 
ATOM     24  O   UNL     1       5.301   2.649  11.641  0.00  0.00    +0.000 OA
ENDBRANCH  17  24
ENDBRANCH   1  21
TORSDOF 2
ENDMDL
MODEL 4
REMARK VINA RESULT:      -8.2      3.071      7.203
REMARK  Name = 
REMARK  3 active torsions:
REMARK  status: ('A' for Active; 'I' for Inactive)
REMARK    1  A    between atoms: C_1  and  O_2
REMARK    2  A    between atoms: O_2  and  C_3
REMARK    3  A    between atoms: C_7  and  C_8
REMARK                            x       y       z     vdW  Elec       q    Type
REMARK                         _______ _______ _______ _____ _____    ______ ____
ROOT
ATOM      1  C   UNL     1       5.948   5.621  15.679  0.00  0.00    +0.000 A 
ATOM      2  N   UNL     1       6.600   5.360  16.803  0.00  0.00    +0.000 NA
ATOM      3  C   UNL     1       5.754   5.737  17.809  0.00  0.00    +0.000 A 
ATOM      4  C   UNL     1       4.690   6.437  17.301  0.00  0.00    +0.000 A 
ATOM      5  N   UNL     1       4.806   6.351  15.953  0.00  0.00    +0.000 N 
ATOM      6  C   UNL     1       3.521   6.789  18.061  0.00  0.00    +0.000 C 
ATOM      7  O   UNL     1       2.759   7.706  17.812  0.00  0.00    +0.000 OA
ATOM      8  C   UNL     1       3.227   5.745  19.085  0.00  0.00    +0.000 A 
ATOM      9  C   UNL     1       1.884   5.426  19.312  0.00  0.00    +0.000 A 
ATOM     10  C   UNL     1       1.571   4.161  19.808  0.00  0.00    +0.000 A 
ATOM     11  C   UNL     1       2.587   3.248  20.112  0.00  0.00    +0.000 A 
ATOM     12  C   UNL     1       3.931   3.612  20.001  0.00  0.00    +0.000 A 
ATOM     13  C   UNL     1       4.256   4.873  19.504  0.00  0.00    +0.000 A 
ATOM     14  C   UNL     1       5.676   5.152  19.135  0.00  0.00    +0.000 C 
ATOM     15  O   UNL     1       6.618   4.797  19.830  0.00  0.00    +0.000 OA
ATOM     16  H   UNL     1       4.045   6.511  15.310  0.00  0.00    +0.000 HD
ENDROOT
BRANCH   1  21
ATOM     17  C   UNL     1       5.829   3.515  12.537  0.00  0.00    +0.000 A 
ATOM     18  C   UNL     1       7.055   3.853  11.965  0.00  0.00    +0.000 A 
ATOM     19  C   UNL     1       7.889   4.787  12.572  0.00  0.00    +0.000 A 
ATOM     20  C   UNL     1       7.505   5.382  13.775  0.00  0.00    +0.000 A 
ATOM     21  C   UNL     1       6.273   5.059  14.367  0.00  0.00    +0.000 A 
ATOM     22  C   UNL     1       5.437   4.133  13.725  0.00  0.00    +0.000 A 
BRANCH  17  24
ATOM     23  C   UNL     1       3.989   3.030  11.112  0.00  0.00    +0.000 C 
ATOM     24  O   UNL     1       5.113   2.572  11.851  0.00  0.00    +0.000 OA
ENDBRANCH  17  24
ENDBRANCH   1  21
TORSDOF 2
ENDMDL
MODEL 5
REMARK VINA RESULT:      -8.1      4.991      6.477
REMARK  Name = 
REMARK  3 active torsions:
REMARK  status: ('A' for Active; 'I' for Inactive)
REMARK    1  A    between atoms: C_1  and  O_2
REMARK    2  A    between atoms: O_2  and  C_3
REMARK    3  A    between atoms: C_7  and  C_8
REMARK                            x       y       z     vdW  Elec       q    Type
REMARK                         _______ _______ _______ _____ _____    ______ ____
ROOT
ATOM      1  C   UNL     1       8.344   8.623  18.111  0.00  0.00    +0.000 A 
ATOM      2  N   UNL     1       7.806   8.244  16.961  0.00  0.00    +0.000 NA
ATOM      3  C   UNL     1       7.184   7.056  17.227  0.00  0.00    +0.000 A 
ATOM      4  C   UNL     1       7.535   6.600  18.471  0.00  0.00    +0.000 A 
ATOM      5  N   UNL     1       8.259   7.598  19.036  0.00  0.00    +0.000 N 
ATOM      6  C   UNL     1       6.896   5.495  19.134  0.00  0.00    +0.000 C 
ATOM      7  O   UNL     1       7.389   4.811  20.013  0.00  0.00    +0.000 OA
ATOM      8  C   UNL     1       5.454   5.424  18.762  0.00  0.00    +0.000 A 
ATOM      9  C   UNL     1       4.546   5.078  19.769  0.00  0.00    +0.000 A 
ATOM     10  C   UNL     1       3.223   5.503  19.653  0.00  0.00    +0.000 A 
ATOM     11  C   UNL     1       2.807   6.226  18.529  0.00  0.00    +0.000 A 
ATOM     12  C   UNL     1       3.685   6.465  17.468  0.00  0.00    +0.000 A 
ATOM     13  C   UNL     1       5.010   6.045  17.574  0.00  0.00    +0.000 A 
ATOM     14  C   UNL     1       5.998   6.537  16.568  0.00  0.00    +0.000 C 
ATOM     15  O   UNL     1       5.746   6.597  15.373  0.00  0.00    +0.000 OA
ATOM     16  H   UNL     1       8.415   7.690  20.028  0.00  0.00    +0.000 HD
ENDROOT
BRANCH   1  21
ATOM     17  C   UNL     1       9.699  11.625  19.976  0.00  0.00    +0.000 A 
ATOM     18  C   UNL     1       9.409  12.638  19.060  0.00  0.00    +0.000 A 
ATOM     19  C   UNL     1       8.821  12.340  17.835  0.00  0.00    +0.000 A 
ATOM     20  C   UNL     1       8.501  11.019  17.521  0.00  0.00    +0.000 A 
ATOM     21  C   UNL     1       8.787   9.983  18.426  0.00  0.00    +0.000 A 
ATOM     22  C   UNL     1       9.402  10.302  19.646  0.00  0.00    +0.000 A 
BRANCH  17  24
ATOM     23  C   UNL     1       9.931  13.367  21.577  0.00  0.00    +0.000 C 
ATOM     24  O   UNL     1      10.260  12.052  21.148  0.00  0.00    +0.000 OA
ENDBRANCH  17  24
ENDBRANCH   1  21
TORSDOF 2
ENDMDL
MODEL 6
REMARK VINA RESULT:      -7.8      1.004      1.729
REMARK  Name = 
REMARK  3 active torsions:
REMARK  status: ('A' for Active; 'I' for Inactive)
REMARK    1  A    between atoms: C_1  and  O_2
REMARK    2  A    between atoms: O_2  and  C_3
REMARK    3  A    between atoms: C_7  and  C_8
REMARK                            x       y       z     vdW  Elec       q    Type
REMARK                         _______ _______ _______ _____ _____    ______ ____
ROOT
ATOM      1  C   UNL     1       2.560   6.399  19.425  0.00  0.00    +0.000 A 
ATOM      2  N   UNL     1       3.724   6.066  19.965  0.00  0.00    +0.000 NA
ATOM      3  C   UNL     1       4.206   5.050  19.188  0.00  0.00    +0.000 A 
ATOM      4  C   UNL     1       3.239   4.612  18.320  0.00  0.00    +0.000 A 
ATOM      5  N   UNL     1       2.203   5.475  18.461  0.00  0.00    +0.000 N 
ATOM      6  C   UNL     1       3.485   3.706  17.231  0.00  0.00    +0.000 C 
ATOM      7  O   UNL     1       2.655   2.992  16.696  0.00  0.00    +0.000 OA
ATOM      8  C   UNL     1       4.857   3.908  16.681  0.00  0.00    +0.000 A 
ATOM      9  C   UNL     1       5.013   3.820  15.293  0.00  0.00    +0.000 A 
ATOM     10  C   UNL     1       6.073   4.498  14.694  0.00  0.00    +0.000 A 
ATOM     11  C   UNL     1       6.985   5.218  15.475  0.00  0.00    +0.000 A 
ATOM     12  C   UNL     1       6.898   5.204  16.870  0.00  0.00    +0.000 A 
ATOM     13  C   UNL     1       5.842   4.529  17.479  0.00  0.00    +0.000 A 
ATOM     14  C   UNL     1       5.603   4.744  18.938  0.00  0.00    +0.000 C 
ATOM     15  O   UNL     1       6.512   4.778  19.755  0.00  0.00    +0.000 OA
ATOM     16  H   UNL     1       1.471   5.595  17.776  0.00  0.00    +0.000 HD
ENDROOT
BRANCH   1  21
ATOM     17  C   UNL     1       1.260   9.931  19.023  0.00  0.00    +0.000 A 
ATOM     18  C   UNL     1       0.665  10.120  20.271  0.00  0.00    +0.000 A 
ATOM     19  C   UNL     1       0.649   9.095  21.212  0.00  0.00    +0.000 A 
ATOM     20  C   UNL     1       1.248   7.871  20.917  0.00  0.00    +0.000 A 
ATOM     21  C   UNL     1       1.850   7.657  19.666  0.00  0.00    +0.000 A 
ATOM     22  C   UNL     1       1.834   8.695  18.722  0.00  0.00    +0.000 A 
BRANCH  17  24
ATOM     23  C   UNL     1       1.797  12.223  18.691  0.00  0.00    +0.000 C 
ATOM     24  O   UNL     1       1.223  11.020  18.197  0.00  0.00    +0.000 OA
ENDBRANCH  17  24
ENDBRANCH   1  21
TORSDOF 2
ENDMDL
MODEL 7
REMARK VINA RESULT:      -7.8      3.658      5.958
REMARK  Name = 
REMARK  3 active torsions:
REMARK  status: ('A' for Active; 'I' for Inactive)
REMARK    1  A    between atoms: C_1  and  O_2
REMARK    2  A    between atoms: O_2  and  C_3
REMARK    3  A    between atoms: C_7  and  C_8
REMARK                            x       y       z     vdW  Elec       q    Type
REMARK                         _______ _______ _______ _____ _____    ______ ____
ROOT
ATOM      1  C   UNL     1      -0.543  10.167  18.536  0.00  0.00    +0.000 A 
ATOM      2  N   UNL     1       0.548  10.013  17.799  0.00  0.00    +0.000 NA
ATOM      3  C   UNL     1       1.403   9.275  18.568  0.00  0.00    +0.000 A 
ATOM      4  C   UNL     1       0.929   9.177  19.851  0.00  0.00    +0.000 A 
ATOM      5  N   UNL     1      -0.309   9.729  19.826  0.00  0.00    +0.000 N 
ATOM      6  C   UNL     1       1.479   8.297  20.848  0.00  0.00    +0.000 C 
ATOM      7  O   UNL     1       1.381   8.439  22.054  0.00  0.00    +0.000 OA
ATOM      8  C   UNL     1       2.005   7.053  20.216  0.00  0.00    +0.000 A 
ATOM      9  C   UNL     1       1.805   5.850  20.901  0.00  0.00    +0.000 A 
ATOM     10  C   UNL     1       1.772   4.662  20.171  0.00  0.00    +0.000 A 
ATOM     11  C   UNL     1       1.977   4.675  18.787  0.00  0.00    +0.000 A 
ATOM     12  C   UNL     1       2.299   5.862  18.124  0.00  0.00    +0.000 A 
ATOM     13  C   UNL     1       2.334   7.055  18.843  0.00  0.00    +0.000 A 
ATOM     14  C   UNL     1       2.408   8.342  18.089  0.00  0.00    +0.000 C 
ATOM     15  O   UNL     1       3.140   8.497  17.122  0.00  0.00    +0.000 OA
ATOM     16  H   UNL     1      -1.017   9.559  20.525  0.00  0.00    +0.000 HD
ENDROOT
BRANCH   1  21
ATOM     17  C   UNL     1      -3.494  10.679  16.222  0.00  0.00    +0.000 A 
ATOM     18  C   UNL     1      -4.286  11.513  17.012  0.00  0.00    +0.000 A 
ATOM     19  C   UNL     1      -3.885  11.867  18.296  0.00  0.00    +0.000 A 
ATOM     20  C   UNL     1      -2.670  11.399  18.798  0.00  0.00    +0.000 A 
ATOM     21  C   UNL     1      -1.858  10.556  18.022  0.00  0.00    +0.000 A 
ATOM     22  C   UNL     1      -2.293  10.192  16.739  0.00  0.00    +0.000 A 
BRANCH  17  24
ATOM     23  C   UNL     1      -3.071   9.967  13.994  0.00  0.00    +0.000 C 
ATOM     24  O   UNL     1      -3.993  10.422  14.975  0.00  0.00    +0.000 OA
ENDBRANCH  17  24
ENDBRANCH   1  21
TORSDOF 2
ENDMDL
MODEL 8
REMARK VINA RESULT:      -7.7      3.495      5.584
REMARK  Name = 
REMARK  3 active torsions:
REMARK  status: ('A' for Active; 'I' for Inactive)
REMARK    1  A    between atoms: C_1  and  O_2
REMARK    2  A    between atoms: O_2  and  C_3
REMARK    3  A    between atoms: C_7  and  C_8
REMARK                            x       y       z     vdW  Elec       q    Type
REMARK                         _______ _______ _______ _____ _____    ______ ____
ROOT
ATOM      1  C   UNL     1      -0.452  10.156  18.440  0.00  0.00    +0.000 A 
ATOM      2  N   UNL     1       0.650   9.976  17.725  0.00  0.00    +0.000 NA
ATOM      3  C   UNL     1       1.475   9.224  18.514  0.00  0.00    +0.000 A 
ATOM      4  C   UNL     1       0.974   9.143  19.788  0.00  0.00    +0.000 A 
ATOM      5  N   UNL     1      -0.251   9.721  19.737  0.00  0.00    +0.000 N 
ATOM      6  C   UNL     1       1.487   8.259  20.800  0.00  0.00    +0.000 C 
ATOM      7  O   UNL     1       1.370   8.409  22.003  0.00  0.00    +0.000 OA
ATOM      8  C   UNL     1       2.000   7.000  20.185  0.00  0.00    +0.000 A 
ATOM      9  C   UNL     1       1.762   5.805  20.872  0.00  0.00    +0.000 A 
ATOM     10  C   UNL     1       1.718   4.614  20.149  0.00  0.00    +0.000 A 
ATOM     11  C   UNL     1       1.950   4.615  18.768  0.00  0.00    +0.000 A 
ATOM     12  C   UNL     1       2.308   5.791  18.105  0.00  0.00    +0.000 A 
ATOM     13  C   UNL     1       2.354   6.988  18.818  0.00  0.00    +0.000 A 
ATOM     14  C   UNL     1       2.469   8.269  18.059  0.00  0.00    +0.000 C 
ATOM     15  O   UNL     1       3.222   8.403  17.105  0.00  0.00    +0.000 OA
ATOM     16  H   UNL     1      -0.976   9.569  20.423  0.00  0.00    +0.000 HD
ENDROOT
BRANCH   1  21
ATOM     17  C   UNL     1      -3.928  11.625  18.154  0.00  0.00    +0.000 A 
ATOM     18  C   UNL     1      -4.301  11.139  16.900  0.00  0.00    +0.000 A 
ATOM     19  C   UNL     1      -3.415  10.381  16.141  0.00  0.00    +0.000 A 
ATOM     20  C   UNL     1      -2.146  10.087  16.641  0.00  0.00    +0.000 A 
ATOM     21  C   UNL     1      -1.749  10.568  17.899  0.00  0.00    +0.000 A 
ATOM     22  C   UNL     1      -2.649  11.351  18.638  0.00  0.00    +0.000 A 
BRANCH  17  24
ATOM     23  C   UNL     1      -4.611  12.743  20.138  0.00  0.00    +0.000 C 
ATOM     24  O   UNL     1      -4.895  12.341  18.805  0.00  0.00    +0.000 OA
ENDBRANCH  17  24
ENDBRANCH   1  21
TORSDOF 2
ENDMDL
MODEL 9
REMARK VINA RESULT:      -7.7      1.855      2.524
REMARK  Name = 
REMARK  3 active torsions:
REMARK  status: ('A' for Active; 'I' for Inactive)
REMARK    1  A    between atoms: C_1  and  O_2
REMARK    2  A    between atoms: O_2  and  C_3
REMARK    3  A    between atoms: C_7  and  C_8
REMARK                            x       y       z     vdW  Elec       q    Type
REMARK                         _______ _______ _______ _____ _____    ______ ____
ROOT
ATOM      1  C   UNL     1       2.124   7.742  18.751  0.00  0.00    +0.000 A 
ATOM      2  N   UNL     1       2.267   6.496  19.181  0.00  0.00    +0.000 NA
ATOM      3  C   UNL     1       3.311   5.984  18.463  0.00  0.00    +0.000 A 
ATOM      4  C   UNL     1       3.651   6.833  17.442  0.00  0.00    +0.000 A 
ATOM      5  N   UNL     1       2.909   7.951  17.633  0.00  0.00    +0.000 N 
ATOM      6  C   UNL     1       4.836   6.691  16.638  0.00  0.00    +0.000 C 
ATOM      7  O   UNL     1       4.992   7.138  15.516  0.00  0.00    +0.000 OA
ATOM      8  C   UNL     1       5.948   6.108  17.442  0.00  0.00    +0.000 A 
ATOM      9  C   UNL     1       7.235   6.611  17.221  0.00  0.00    +0.000 A 
ATOM     10  C   UNL     1       8.173   6.525  18.248  0.00  0.00    +0.000 A 
ATOM     11  C   UNL     1       7.843   5.907  19.460  0.00  0.00    +0.000 A 
ATOM     12  C   UNL     1       6.598   5.297  19.634  0.00  0.00    +0.000 A 
ATOM     13  C   UNL     1       5.652   5.378  18.614  0.00  0.00    +0.000 A 
ATOM     14  C   UNL     1       4.246   4.966  18.909  0.00  0.00    +0.000 C 
ATOM     15  O   UNL     1       3.977   3.964  19.555  0.00  0.00    +0.000 OA
ATOM     16  H   UNL     1       3.130   8.850  17.231  0.00  0.00    +0.000 HD
ENDROOT
BRANCH   1  21
ATOM     17  C   UNL     1       0.303   9.666  21.455  0.00  0.00    +0.000 A 
ATOM     18  C   UNL     1      -0.178  10.744  20.711  0.00  0.00    +0.000 A 
ATOM     19  C   UNL     1       0.124  10.864  19.358  0.00  0.00    +0.000 A 
ATOM     20  C   UNL     1       0.901   9.891  18.730  0.00  0.00    +0.000 A 
ATOM     21  C   UNL     1       1.399   8.799  19.460  0.00  0.00    +0.000 A 
ATOM     22  C   UNL     1       1.104   8.710  20.829  0.00  0.00    +0.000 A 
BRANCH  17  24
ATOM     23  C   UNL     1      -1.056  10.610  23.161  0.00  0.00    +0.000 C 
ATOM     24  O   UNL     1      -0.079   9.656  22.768  0.00  0.00    +0.000 OA
ENDBRANCH  17  24
ENDBRANCH   1  21
TORSDOF 2
ENDMDL
