MODEL 1
REMARK VINA RESULT:      -6.7      0.000      0.000
REMARK  Name = 
REMARK  9 active torsions:
REMARK  status: ('A' for Active; 'I' for Inactive)
REMARK    1  A    between atoms: C_1  and  C_2
REMARK    2  A    between atoms: C_6  and  C_7
REMARK    3  A    between atoms: C_7  and  N_8
REMARK    4  A    between atoms: C_7  and  C_13
REMARK    5  A    between atoms: N_8  and  S_9
REMARK    6  A    between atoms: S_9  and  N_10
REMARK    7  A    between atoms: C_13  and  C_14
REMARK    8  A    between atoms: C_13  and  C_15
REMARK    9  A    between atoms: C_13  and  C_16
REMARK                            x       y       z     vdW  Elec       q    Type
REMARK                         _______ _______ _______ _____ _____    ______ ____
ROOT
ATOM      1  C   UNL     1       3.794   5.364  18.331  0.00  0.00    +0.000 C 
ENDROOT
BRANCH   1   7
ATOM      2  C   UNL     1       1.006   8.291  21.360  0.00  0.00    +0.000 C 
ATOM      3  C   UNL     1       1.685   8.102  20.036  0.00  0.00    +0.000 A 
ATOM      4  C   UNL     1       1.606   9.057  19.027  0.00  0.00    +0.000 A 
ATOM      5  C   UNL     1       2.187   8.813  17.783  0.00  0.00    +0.000 A 
ATOM      6  C   UNL     1       2.845   7.600  17.534  0.00  0.00    +0.000 A 
ATOM      7  C   UNL     1       2.964   6.633  18.542  0.00  0.00    +0.000 A 
ATOM      8  C   UNL     1       2.390   6.912  19.796  0.00  0.00    +0.000 A 
ENDBRANCH   1   7
BRANCH   1   9
ATOM      9  C   UNL     1       2.959   4.005  18.332  0.00  0.00    +0.000 C 
ATOM     10  C   UNL     1       2.866   3.423  19.760  0.00  0.00    +0.000 C 
ATOM     11  C   UNL     1       1.508   4.253  17.842  0.00  0.00    +0.000 C 
ATOM     12  C   UNL     1       3.543   2.907  17.418  0.00  0.00    +0.000 C 
ENDBRANCH   1   9
BRANCH   1  13
ATOM     13  N   UNL     1       4.892   5.270  19.341  0.00  0.00    +0.000 NA
ATOM     14  H   UNL     1       4.891   4.362  19.803  0.00  0.00    +0.000 HD
BRANCH  13  15
ATOM     15  S   UNL     1       6.485   5.466  18.881  0.00  0.00    +0.000 S 
ATOM     16  O   UNL     1       6.492   6.562  17.949  0.00  0.00    +0.000 OA
ATOM     17  O   UNL     1       7.303   5.441  20.068  0.00  0.00    +0.000 OA
BRANCH  15  18
ATOM     18  N   UNL     1       6.737   4.078  18.033  0.00  0.00    +0.000 NA
ATOM     19  H   UNL     1       6.347   4.123  17.096  0.00  0.00    +0.000 HD
ATOM     20  H   UNL     1       6.504   3.236  18.552  0.00  0.00    +0.000 HD
ENDBRANCH  15  18
ENDBRANCH  13  15
ENDBRANCH   1  13
TORSDOF 5
ENDMDL
MODEL 2
REMARK VINA RESULT:      -6.6      0.215      1.031
REMARK  Name = 
REMARK  9 active torsions:
REMARK  status: ('A' for Active; 'I' for Inactive)
REMARK    1  A    between atoms: C_1  and  C_2
REMARK    2  A    between atoms: C_6  and  C_7
REMARK    3  A    between atoms: C_7  and  N_8
REMARK    4  A    between atoms: C_7  and  C_13
REMARK    5  A    between atoms: N_8  and  S_9
REMARK    6  A    between atoms: S_9  and  N_10
REMARK    7  A    between atoms: C_13  and  C_14
REMARK    8  A    between atoms: C_13  and  C_15
REMARK    9  A    between atoms: C_13  and  C_16
REMARK                            x       y       z     vdW  Elec       q    Type
REMARK                         _______ _______ _______ _____ _____    ______ ____
ROOT
ATOM      1  C   UNL     1       3.751   5.129  18.399  0.00  0.00    +0.000 C 
ENDROOT
BRANCH   1   7
ATOM      2  C   UNL     1       1.009   8.183  21.344  0.00  0.00    +0.000 C 
ATOM      3  C   UNL     1       1.709   7.957  20.036  0.00  0.00    +0.000 A 
ATOM      4  C   UNL     1       1.686   8.906  19.018  0.00  0.00    +0.000 A 
ATOM      5  C   UNL     1       2.284   8.630  17.789  0.00  0.00    +0.000 A 
ATOM      6  C   UNL     1       2.902   7.391  17.563  0.00  0.00    +0.000 A 
ATOM      7  C   UNL     1       2.965   6.429  18.582  0.00  0.00    +0.000 A 
ATOM      8  C   UNL     1       2.374   6.740  19.821  0.00  0.00    +0.000 A 
ENDBRANCH   1   7
BRANCH   1   9
ATOM      9  C   UNL     1       2.876   3.797  18.461  0.00  0.00    +0.000 C 
ATOM     10  C   UNL     1       3.578   2.648  17.703  0.00  0.00    +0.000 C 
ATOM     11  C   UNL     1       2.690   3.333  19.930  0.00  0.00    +0.000 C 
ATOM     12  C   UNL     1       1.458   3.948  17.871  0.00  0.00    +0.000 C 
ENDBRANCH   1   9
BRANCH   1  13
ATOM     13  N   UNL     1       4.866   5.036  19.391  0.00  0.00    +0.000 NA
ATOM     14  H   UNL     1       4.934   4.097  19.781  0.00  0.00    +0.000 HD
BRANCH  13  15
ATOM     15  S   UNL     1       6.436   5.379  18.939  0.00  0.00    +0.000 S 
ATOM     16  O   UNL     1       6.347   6.496  18.035  0.00  0.00    +0.000 OA
ATOM     17  O   UNL     1       7.255   5.393  20.124  0.00  0.00    +0.000 OA
BRANCH  15  18
ATOM     18  N   UNL     1       6.804   4.040  18.054  0.00  0.00    +0.000 NA
ATOM     19  H   UNL     1       7.801   3.953  17.883  0.00  0.00    +0.000 HD
ATOM     20  H   UNL     1       6.217   3.921  17.233  0.00  0.00    +0.000 HD
ENDBRANCH  15  18
ENDBRANCH  13  15
ENDBRANCH   1  13
TORSDOF 5
ENDMDL
MODEL 3
REMARK VINA RESULT:      -6.5      3.303      5.274
REMARK  Name = 
REMARK  9 active torsions:
REMARK  status: ('A' for Active; 'I' for Inactive)
REMARK    1  A    between atoms: C_1  and  C_2
REMARK    2  A    between atoms: C_6  and  C_7
REMARK    3  A    between atoms: C_7  and  N_8
REMARK    4  A    between atoms: C_7  and  C_13
REMARK    5  A    between atoms: N_8  and  S_9
REMARK    6  A    between atoms: S_9  and  N_10
REMARK    7  A    between atoms: C_13  and  C_14
REMARK    8  A    between atoms: C_13  and  C_15
REMARK    9  A    between atoms: C_13  and  C_16
REMARK                            x       y       z     vdW  Elec       q    Type
REMARK                         _______ _______ _______ _____ _____    ______ ____
ROOT
ATOM      1  C   UNL     1       3.774   4.308  18.312  0.00  0.00    +0.000 C 
ENDROOT
BRANCH   1   7
ATOM      2  C   UNL     1       5.967   3.966  13.774  0.00  0.00    +0.000 C 
ATOM      3  C   UNL     1       6.098   4.269  15.237  0.00  0.00    +0.000 A 
ATOM      4  C   UNL     1       7.318   4.613  15.810  0.00  0.00    +0.000 A 
ATOM      5  C   UNL     1       7.415   4.815  17.187  0.00  0.00    +0.000 A 
ATOM      6  C   UNL     1       6.287   4.662  18.007  0.00  0.00    +0.000 A 
ATOM      7  C   UNL     1       5.039   4.346  17.451  0.00  0.00    +0.000 A 
ATOM      8  C   UNL     1       4.962   4.169  16.057  0.00  0.00    +0.000 A 
ENDBRANCH   1   7
BRANCH   1   9
ATOM      9  C   UNL     1       2.955   5.676  18.366  0.00  0.00    +0.000 C 
ATOM     10  C   UNL     1       1.567   5.506  17.709  0.00  0.00    +0.000 C 
ATOM     11  C   UNL     1       2.718   6.114  19.836  0.00  0.00    +0.000 C 
ATOM     12  C   UNL     1       3.660   6.859  17.670  0.00  0.00    +0.000 C 
ENDBRANCH   1   9
BRANCH   1  13
ATOM     13  N   UNL     1       4.089   3.864  19.704  0.00  0.00    +0.000 NA
ATOM     14  H   UNL     1       3.631   4.460  20.393  0.00  0.00    +0.000 HD
BRANCH  13  15
ATOM     15  S   UNL     1       3.701   2.322  20.211  0.00  0.00    +0.000 S 
ATOM     16  O   UNL     1       3.230   2.461  21.564  0.00  0.00    +0.000 OA
ATOM     17  O   UNL     1       2.928   1.687  19.173  0.00  0.00    +0.000 OA
BRANCH  15  18
ATOM     18  N   UNL     1       5.193   1.628  20.263  0.00  0.00    +0.000 NA
ATOM     19  H   UNL     1       5.259   0.811  19.664  0.00  0.00    +0.000 HD
ATOM     20  H   UNL     1       5.547   1.496  21.207  0.00  0.00    +0.000 HD
ENDBRANCH  15  18
ENDBRANCH  13  15
ENDBRANCH   1  13
TORSDOF 5
ENDMDL
MODEL 4
REMARK VINA RESULT:      -6.5      3.835      5.788
REMARK  Name = 
REMARK  9 active torsions:
REMARK  status: ('A' for Active; 'I' for Inactive)
REMARK    1  A    between atoms: C_1  and  C_2
REMARK    2  A    between atoms: C_6  and  C_7
REMARK    3  A    between atoms: C_7  and  N_8
REMARK    4  A    between atoms: C_7  and  C_13
REMARK    5  A    between atoms: N_8  and  S_9
REMARK    6  A    between atoms: S_9  and  N_10
REMARK    7  A    between atoms: C_13  and  C_14
REMARK    8  A    between atoms: C_13  and  C_15
REMARK    9  A    between atoms: C_13  and  C_16
REMARK                            x       y       z     vdW  Elec       q    Type
REMARK                         _______ _______ _______ _____ _____    ______ ____
ROOT
ATOM      1  C   UNL     1       4.183   4.176  17.174  0.00  0.00    +0.000 C 
ENDROOT
BRANCH   1   7
ATOM      2  C   UNL     1       5.797   3.550  12.428  0.00  0.00    +0.000 C 
ATOM      3  C   UNL     1       6.063   4.064  13.811  0.00  0.00    +0.000 A 
ATOM      4  C   UNL     1       7.274   4.659  14.154  0.00  0.00    +0.000 A 
ATOM      5  C   UNL     1       7.514   5.058  15.468  0.00  0.00    +0.000 A 
ATOM      6  C   UNL     1       6.542   4.853  16.459  0.00  0.00    +0.000 A 
ATOM      7  C   UNL     1       5.303   4.283  16.136  0.00  0.00    +0.000 A 
ATOM      8  C   UNL     1       5.076   3.910  14.798  0.00  0.00    +0.000 A 
ENDBRANCH   1   7
BRANCH   1   9
ATOM      9  C   UNL     1       3.826   5.538  17.923  0.00  0.00    +0.000 C 
ATOM     10  C   UNL     1       2.301   5.658  18.137  0.00  0.00    +0.000 C 
ATOM     11  C   UNL     1       4.492   5.582  19.324  0.00  0.00    +0.000 C 
ATOM     12  C   UNL     1       4.295   6.806  17.180  0.00  0.00    +0.000 C 
ENDBRANCH   1   9
BRANCH   1  13
ATOM     13  N   UNL     1       4.494   3.121  18.187  0.00  0.00    +0.000 NA
ATOM     14  H   UNL     1       4.803   3.534  19.066  0.00  0.00    +0.000 HD
BRANCH  13  15
ATOM     15  S   UNL     1       3.322   2.031  18.663  0.00  0.00    +0.000 S 
ATOM     16  O   UNL     1       3.106   2.277  20.064  0.00  0.00    +0.000 OA
ATOM     17  O   UNL     1       2.260   2.056  17.689  0.00  0.00    +0.000 OA
BRANCH  15  18
ATOM     18  N   UNL     1       4.143   0.611  18.519  0.00  0.00    +0.000 NA
ATOM     19  H   UNL     1       4.486   0.271  19.413  0.00  0.00    +0.000 HD
ATOM     20  H   UNL     1       4.830   0.613  17.770  0.00  0.00    +0.000 HD
ENDBRANCH  15  18
ENDBRANCH  13  15
ENDBRANCH   1  13
TORSDOF 5
ENDMDL
MODEL 5
REMARK VINA RESULT:      -6.5      3.283      5.224
REMARK  Name = 
REMARK  9 active torsions:
REMARK  status: ('A' for Active; 'I' for Inactive)
REMARK    1  A    between atoms: C_1  and  C_2
REMARK    2  A    between atoms: C_6  and  C_7
REMARK    3  A    between atoms: C_7  and  N_8
REMARK    4  A    between atoms: C_7  and  C_13
REMARK    5  A    between atoms: N_8  and  S_9
REMARK    6  A    between atoms: S_9  and  N_10
REMARK    7  A    between atoms: C_13  and  C_14
REMARK    8  A    between atoms: C_13  and  C_15
REMARK    9  A    between atoms: C_13  and  C_16
REMARK                            x       y       z     vdW  Elec       q    Type
REMARK                         _______ _______ _______ _____ _____    ______ ____
ROOT
ATOM      1  C   UNL     1       4.078   4.063  18.174  0.00  0.00    +0.000 C 
ENDROOT
BRANCH   1   7
ATOM      2  C   UNL     1       5.821   3.851  13.438  0.00  0.00    +0.000 C 
ATOM      3  C   UNL     1       6.044   4.254  14.865  0.00  0.00    +0.000 A 
ATOM      4  C   UNL     1       7.236   4.835  15.286  0.00  0.00    +0.000 A 
ATOM      5  C   UNL     1       7.436   5.127  16.635  0.00  0.00    +0.000 A 
ATOM      6  C   UNL     1       6.444   4.828  17.580  0.00  0.00    +0.000 A 
ATOM      7  C   UNL     1       5.222   4.270  17.178  0.00  0.00    +0.000 A 
ATOM      8  C   UNL     1       5.035   4.005  15.809  0.00  0.00    +0.000 A 
ENDBRANCH   1   7
BRANCH   1   9
ATOM      9  C   UNL     1       3.103   5.313  18.351  0.00  0.00    +0.000 C 
ATOM     10  C   UNL     1       2.998   5.715  19.839  0.00  0.00    +0.000 C 
ATOM     11  C   UNL     1       3.647   6.544  17.579  0.00  0.00    +0.000 C 
ATOM     12  C   UNL     1       1.671   5.072  17.830  0.00  0.00    +0.000 C 
ENDBRANCH   1   9
BRANCH   1  13
ATOM     13  N   UNL     1       4.604   3.652  19.512  0.00  0.00    +0.000 NA
ATOM     14  H   UNL     1       4.358   4.333  20.229  0.00  0.00    +0.000 HD
BRANCH  13  15
ATOM     15  S   UNL     1       4.150   2.196  20.192  0.00  0.00    +0.000 S 
ATOM     16  O   UNL     1       5.275   1.763  20.977  0.00  0.00    +0.000 OA
ATOM     17  O   UNL     1       2.825   2.346  20.737  0.00  0.00    +0.000 OA
BRANCH  15  18
ATOM     18  N   UNL     1       4.069   1.241  18.852  0.00  0.00    +0.000 NA
ATOM     19  H   UNL     1       3.122   1.164  18.491  0.00  0.00    +0.000 HD
ATOM     20  H   UNL     1       4.562   0.358  18.952  0.00  0.00    +0.000 HD
ENDBRANCH  15  18
ENDBRANCH  13  15
ENDBRANCH   1  13
TORSDOF 5
ENDMDL
MODEL 6
REMARK VINA RESULT:      -6.5      3.258      5.249
REMARK  Name = 
REMARK  9 active torsions:
REMARK  status: ('A' for Active; 'I' for Inactive)
REMARK    1  A    between atoms: C_1  and  C_2
REMARK    2  A    between atoms: C_6  and  C_7
REMARK    3  A    between atoms: C_7  and  N_8
REMARK    4  A    between atoms: C_7  and  C_13
REMARK    5  A    between atoms: N_8  and  S_9
REMARK    6  A    between atoms: S_9  and  N_10
REMARK    7  A    between atoms: C_13  and  C_14
REMARK    8  A    between atoms: C_13  and  C_15
REMARK    9  A    between atoms: C_13  and  C_16
REMARK                            x       y       z     vdW  Elec       q    Type
REMARK                         _______ _______ _______ _____ _____    ______ ____
ROOT
ATOM      1  C   UNL     1       3.942   4.080  18.257  0.00  0.00    +0.000 C 
ENDROOT
BRANCH   1   7
ATOM      2  C   UNL     1       5.833   3.921  13.576  0.00  0.00    +0.000 C 
ATOM      3  C   UNL     1       6.030   4.263  15.023  0.00  0.00    +0.000 A 
ATOM      4  C   UNL     1       7.238   4.758  15.503  0.00  0.00    +0.000 A 
ATOM      5  C   UNL     1       7.408   4.994  16.867  0.00  0.00    +0.000 A 
ATOM      6  C   UNL     1       6.368   4.723  17.768  0.00  0.00    +0.000 A 
ATOM      7  C   UNL     1       5.130   4.252  17.307  0.00  0.00    +0.000 A 
ATOM      8  C   UNL     1       4.976   4.044  15.924  0.00  0.00    +0.000 A 
ENDBRANCH   1   7
BRANCH   1   9
ATOM      9  C   UNL     1       2.984   5.350  18.375  0.00  0.00    +0.000 C 
ATOM     10  C   UNL     1       1.596   5.044  17.771  0.00  0.00    +0.000 C 
ATOM     11  C   UNL     1       2.764   5.733  19.863  0.00  0.00    +0.000 C 
ATOM     12  C   UNL     1       3.528   6.615  17.678  0.00  0.00    +0.000 C 
ENDBRANCH   1   9
BRANCH   1  13
ATOM     13  N   UNL     1       4.404   3.681  19.622  0.00  0.00    +0.000 NA
ATOM     14  H   UNL     1       4.014   4.293  20.337  0.00  0.00    +0.000 HD
BRANCH  13  15
ATOM     15  S   UNL     1       4.087   2.151  20.211  0.00  0.00    +0.000 S 
ATOM     16  O   UNL     1       3.301   1.497  19.199  0.00  0.00    +0.000 OA
ATOM     17  O   UNL     1       5.317   1.602  20.724  0.00  0.00    +0.000 OA
BRANCH  15  18
ATOM     18  N   UNL     1       3.094   2.505  21.475  0.00  0.00    +0.000 NA
ATOM     19  H   UNL     1       2.617   3.394  21.353  0.00  0.00    +0.000 HD
ATOM     20  H   UNL     1       3.530   2.374  22.384  0.00  0.00    +0.000 HD
ENDBRANCH  15  18
ENDBRANCH  13  15
ENDBRANCH   1  13
TORSDOF 5
ENDMDL
MODEL 7
REMARK VINA RESULT:      -6.5      3.192      5.194
REMARK  Name = 
REMARK  9 active torsions:
REMARK  status: ('A' for Active; 'I' for Inactive)
REMARK    1  A    between atoms: C_1  and  C_2
REMARK    2  A    between atoms: C_6  and  C_7
REMARK    3  A    between atoms: C_7  and  N_8
REMARK    4  A    between atoms: C_7  and  C_13
REMARK    5  A    between atoms: N_8  and  S_9
REMARK    6  A    between atoms: S_9  and  N_10
REMARK    7  A    between atoms: C_13  and  C_14
REMARK    8  A    between atoms: C_13  and  C_15
REMARK    9  A    between atoms: C_13  and  C_16
REMARK                            x       y       z     vdW  Elec       q    Type
REMARK                         _______ _______ _______ _____ _____    ______ ____
ROOT
ATOM      1  C   UNL     1       3.861   4.110  18.387  0.00  0.00    +0.000 C 
ENDROOT
BRANCH   1   7
ATOM      2  C   UNL     1       5.858   3.966  13.750  0.00  0.00    +0.000 C 
ATOM      3  C   UNL     1       6.029   4.281  15.206  0.00  0.00    +0.000 A 
ATOM      4  C   UNL     1       7.239   4.735  15.722  0.00  0.00    +0.000 A 
ATOM      5  C   UNL     1       7.383   4.945  17.093  0.00  0.00    +0.000 A 
ATOM      6  C   UNL     1       6.314   4.691  17.965  0.00  0.00    +0.000 A 
ATOM      7  C   UNL     1       5.075   4.262  17.468  0.00  0.00    +0.000 A 
ATOM      8  C   UNL     1       4.948   4.078  16.079  0.00  0.00    +0.000 A 
ENDBRANCH   1   7
BRANCH   1   9
ATOM      9  C   UNL     1       2.874   5.363  18.414  0.00  0.00    +0.000 C 
ATOM     10  C   UNL     1       1.549   5.029  17.692  0.00  0.00    +0.000 C 
ATOM     11  C   UNL     1       2.518   5.748  19.874  0.00  0.00    +0.000 C 
ATOM     12  C   UNL     1       3.454   6.634  17.759  0.00  0.00    +0.000 C 
ENDBRANCH   1   9
BRANCH   1  13
ATOM     13  N   UNL     1       4.286   3.786  19.784  0.00  0.00    +0.000 NA
ATOM     14  H   UNL     1       3.876   4.436  20.453  0.00  0.00    +0.000 HD
BRANCH  13  15
ATOM     15  S   UNL     1       3.955   2.290  20.446  0.00  0.00    +0.000 S 
ATOM     16  O   UNL     1       5.219   1.607  20.522  0.00  0.00    +0.000 OA
ATOM     17  O   UNL     1       3.097   2.481  21.588  0.00  0.00    +0.000 OA
BRANCH  15  18
ATOM     18  N   UNL     1       3.079   1.601  19.233  0.00  0.00    +0.000 NA
ATOM     19  H   UNL     1       3.177   2.102  18.355  0.00  0.00    +0.000 HD
ATOM     20  H   UNL     1       2.122   1.383  19.496  0.00  0.00    +0.000 HD
ENDBRANCH  15  18
ENDBRANCH  13  15
ENDBRANCH   1  13
TORSDOF 5
ENDMDL
MODEL 8
REMARK VINA RESULT:      -6.5      2.604      4.483
REMARK  Name = 
REMARK  9 active torsions:
REMARK  status: ('A' for Active; 'I' for Inactive)
REMARK    1  A    between atoms: C_1  and  C_2
REMARK    2  A    between atoms: C_6  and  C_7
REMARK    3  A    between atoms: C_7  and  N_8
REMARK    4  A    between atoms: C_7  and  C_13
REMARK    5  A    between atoms: N_8  and  S_9
REMARK    6  A    between atoms: S_9  and  N_10
REMARK    7  A    between atoms: C_13  and  C_14
REMARK    8  A    between atoms: C_13  and  C_15
REMARK    9  A    between atoms: C_13  and  C_16
REMARK                            x       y       z     vdW  Elec       q    Type
REMARK                         _______ _______ _______ _____ _____    ______ ____
ROOT
ATOM      1  C   UNL     1       5.444   4.229  18.526  0.00  0.00    +0.000 C 
ENDROOT
BRANCH   1   7
ATOM      2  C   UNL     1       6.177   3.714  13.555  0.00  0.00    +0.000 C 
ATOM      3  C   UNL     1       5.743   4.580  14.700  0.00  0.00    +0.000 A 
ATOM      4  C   UNL     1       5.341   5.899  14.513  0.00  0.00    +0.000 A 
ATOM      5  C   UNL     1       5.016   6.696  15.610  0.00  0.00    +0.000 A 
ATOM      6  C   UNL     1       5.102   6.180  16.911  0.00  0.00    +0.000 A 
ATOM      7  C   UNL     1       5.476   4.846  17.126  0.00  0.00    +0.000 A 
ATOM      8  C   UNL     1       5.777   4.055  16.002  0.00  0.00    +0.000 A 
ENDBRANCH   1   7
BRANCH   1   9
ATOM      9  C   UNL     1       3.987   3.905  19.088  0.00  0.00    +0.000 C 
ATOM     10  C   UNL     1       3.021   3.562  17.932  0.00  0.00    +0.000 C 
ATOM     11  C   UNL     1       4.026   2.676  20.035  0.00  0.00    +0.000 C 
ATOM     12  C   UNL     1       3.355   5.057  19.898  0.00  0.00    +0.000 C 
ENDBRANCH   1   9
BRANCH   1  13
ATOM     13  N   UNL     1       6.171   5.092  19.507  0.00  0.00    +0.000 NA
ATOM     14  H   UNL     1       6.118   4.705  20.448  0.00  0.00    +0.000 HD
BRANCH  13  15
ATOM     15  S   UNL     1       7.798   5.411  19.312  0.00  0.00    +0.000 S 
ATOM     16  O   UNL     1       8.320   4.322  18.530  0.00  0.00    +0.000 OA
ATOM     17  O   UNL     1       7.944   6.793  18.929  0.00  0.00    +0.000 OA
BRANCH  15  18
ATOM     18  N   UNL     1       8.337   5.229  20.858  0.00  0.00    +0.000 NA
ATOM     19  H   UNL     1       9.173   4.656  20.909  0.00  0.00    +0.000 HD
ATOM     20  H   UNL     1       7.605   4.978  21.516  0.00  0.00    +0.000 HD
ENDBRANCH  15  18
ENDBRANCH  13  15
ENDBRANCH   1  13
TORSDOF 5
ENDMDL
MODEL 9
REMARK VINA RESULT:      -6.5      0.898      1.526
REMARK  Name = 
REMARK  9 active torsions:
REMARK  status: ('A' for Active; 'I' for Inactive)
REMARK    1  A    between atoms: C_1  and  C_2
REMARK    2  A    between atoms: C_6  and  C_7
REMARK    3  A    between atoms: C_7  and  N_8
REMARK    4  A    between atoms: C_7  and  C_13
REMARK    5  A    between atoms: N_8  and  S_9
REMARK    6  A    between atoms: S_9  and  N_10
REMARK    7  A    between atoms: C_13  and  C_14
REMARK    8  A    between atoms: C_13  and  C_15
REMARK    9  A    between atoms: C_13  and  C_16
REMARK                            x       y       z     vdW  Elec       q    Type
REMARK                         _______ _______ _______ _____ _____    ______ ____
ROOT
ATOM      1  C   UNL     1       3.883   5.578  18.159  0.00  0.00    +0.000 C 
ENDROOT
BRANCH   1   7
ATOM      2  C   UNL     1       1.070   8.234  21.407  0.00  0.00    +0.000 C 
ATOM      3  C   UNL     1       1.702   8.131  20.050  0.00  0.00    +0.000 A 
ATOM      4  C   UNL     1       1.528   9.115  19.082  0.00  0.00    +0.000 A 
ATOM      5  C   UNL     1       2.069   8.949  17.808  0.00  0.00    +0.000 A 
ATOM      6  C   UNL     1       2.781   7.784  17.486  0.00  0.00    +0.000 A 
ATOM      7  C   UNL     1       2.995   6.790  18.452  0.00  0.00    +0.000 A 
ATOM      8  C   UNL     1       2.460   6.991  19.737  0.00  0.00    +0.000 A 
ENDBRANCH   1   7
BRANCH   1   9
ATOM      9  C   UNL     1       3.118   4.180  18.104  0.00  0.00    +0.000 C 
ATOM     10  C   UNL     1       3.788   3.232  17.083  0.00  0.00    +0.000 C 
ATOM     11  C   UNL     1       3.166   3.475  19.486  0.00  0.00    +0.000 C 
ATOM     12  C   UNL     1       1.626   4.293  17.727  0.00  0.00    +0.000 C 
ENDBRANCH   1   9
BRANCH   1  13
ATOM     13  N   UNL     1       5.006   5.489  19.143  0.00  0.00    +0.000 NA
ATOM     14  H   UNL     1       4.947   4.633  19.692  0.00  0.00    +0.000 HD
BRANCH  13  15
ATOM     15  S   UNL     1       6.592   5.506  18.623  0.00  0.00    +0.000 S 
ATOM     16  O   UNL     1       6.838   4.199  18.074  0.00  0.00    +0.000 OA
ATOM     17  O   UNL     1       6.811   6.722  17.880  0.00  0.00    +0.000 OA
BRANCH  15  18
ATOM     18  N   UNL     1       7.388   5.611  20.060  0.00  0.00    +0.000 NA
ATOM     19  H   UNL     1       8.134   6.300  20.038  0.00  0.00    +0.000 HD
ATOM     20  H   UNL     1       7.651   4.708  20.446  0.00  0.00    +0.000 HD
ENDBRANCH  15  18
ENDBRANCH  13  15
ENDBRANCH   1  13
TORSDOF 5
ENDMDL
