MODEL 1
REMARK VINA RESULT:      -5.4      0.000      0.000
REMARK  Name = 
REMARK  7 active torsions:
REMARK  status: ('A' for Active; 'I' for Inactive)
REMARK    1  A    between atoms: C_2  and  C_3
REMARK    2  A    between atoms: C_3  and  C_4
REMARK    3  A    between atoms: C_4  and  C_5
REMARK    4  A    between atoms: C_5  and  C_6
REMARK    5  A    between atoms: C_5  and  C_12
REMARK    6  A    between atoms: C_6  and  C_7
REMARK    7  A    between atoms: C_7  and  C_9
REMARK                            x       y       z     vdW  Elec       q    Type
REMARK                         _______ _______ _______ _____ _____    ______ ____
ROOT
ATOM      1  C   UNL     1       4.181   4.139  17.655  0.00  0.00    +0.000 C 
ENDROOT
BRANCH   1   2
ATOM      2  C   UNL     1       5.005   4.243  18.957  0.00  0.00    +0.000 C 
ATOM      3  O   UNL     1       5.167   5.435  19.390  0.00  0.00    +0.000 OA
ATOM      4  O   UNL     1       5.350   3.189  19.521  0.00  0.00    +0.000 OA
ENDBRANCH   1   2
BRANCH   1   5
ATOM      5  C   UNL     1       3.038   5.145  17.742  0.00  0.00    +0.000 C 
BRANCH   5   6
ATOM      6  C   UNL     1       1.666   4.502  17.701  0.00  0.00    +0.000 C 
BRANCH   6   8
ATOM      7  N   UNL     1       1.392   2.808  19.890  0.00  0.00    +0.000 NA
ATOM      8  C   UNL     1       1.516   3.576  18.897  0.00  0.00    +0.000 C 
ENDBRANCH   6   8
ENDBRANCH   5   6
ENDBRANCH   1   5
BRANCH   1   9
ATOM      9  C   UNL     1       4.992   4.193  16.338  0.00  0.00    +0.000 C 
BRANCH   9  10
ATOM     10  C   UNL     1       5.719   5.491  16.095  0.00  0.00    +0.000 C 
ATOM     11  O   UNL     1       5.238   6.468  15.526  0.00  0.00    +0.000 OA
BRANCH  10  12
ATOM     12  C   UNL     1       7.160   5.606  16.554  0.00  0.00    +0.000 C 
ATOM     13  O   UNL     1       7.816   4.513  16.795  0.00  0.00    +0.000 OA
ATOM     14  O   UNL     1       7.646   6.778  16.725  0.00  0.00    +0.000 OA
ENDBRANCH  10  12
ENDBRANCH   9  10
ENDBRANCH   1   9
TORSDOF 7
ENDMDL
MODEL 2
REMARK VINA RESULT:      -5.4      3.492      5.454
REMARK  Name = 
REMARK  7 active torsions:
REMARK  status: ('A' for Active; 'I' for Inactive)
REMARK    1  A    between atoms: C_2  and  C_3
REMARK    2  A    between atoms: C_3  and  C_4
REMARK    3  A    between atoms: C_4  and  C_5
REMARK    4  A    between atoms: C_5  and  C_6
REMARK    5  A    between atoms: C_5  and  C_12
REMARK    6  A    between atoms: C_6  and  C_7
REMARK    7  A    between atoms: C_7  and  C_9
REMARK                            x       y       z     vdW  Elec       q    Type
REMARK                         _______ _______ _______ _____ _____    ______ ____
ROOT
ATOM      1  C   UNL     1       3.451   3.728  18.329  0.00  0.00    +0.000 C 
ENDROOT
BRANCH   1   2
ATOM      2  C   UNL     1       4.011   2.412  18.910  0.00  0.00    +0.000 C 
ATOM      3  O   UNL     1       3.730   1.368  18.228  0.00  0.00    +0.000 OA
ATOM      4  O   UNL     1       4.754   2.477  19.906  0.00  0.00    +0.000 OA
ENDBRANCH   1   2
BRANCH   1   5
ATOM      5  C   UNL     1       4.369   4.170  17.195  0.00  0.00    +0.000 C 
BRANCH   5   6
ATOM      6  C   UNL     1       5.370   5.229  17.610  0.00  0.00    +0.000 C 
BRANCH   6   8
ATOM      7  N   UNL     1       7.942   4.301  17.097  0.00  0.00    +0.000 NA
ATOM      8  C   UNL     1       6.776   4.722  17.329  0.00  0.00    +0.000 C 
ENDBRANCH   6   8
ENDBRANCH   5   6
ENDBRANCH   1   5
BRANCH   1   9
ATOM      9  C   UNL     1       1.944   3.720  17.975  0.00  0.00    +0.000 C 
BRANCH   9  10
ATOM     10  C   UNL     1       1.053   3.087  19.012  0.00  0.00    +0.000 C 
ATOM     11  O   UNL     1       0.254   2.180  18.789  0.00  0.00    +0.000 OA
BRANCH  10  12
ATOM     12  C   UNL     1       1.112   3.614  20.433  0.00  0.00    +0.000 C 
ATOM     13  O   UNL     1       1.159   2.755  21.404  0.00  0.00    +0.000 OA
ATOM     14  O   UNL     1       1.068   4.881  20.608  0.00  0.00    +0.000 OA
ENDBRANCH  10  12
ENDBRANCH   9  10
ENDBRANCH   1   9
TORSDOF 7
ENDMDL
MODEL 3
REMARK VINA RESULT:      -5.4      1.076      1.321
REMARK  Name = 
REMARK  7 active torsions:
REMARK  status: ('A' for Active; 'I' for Inactive)
REMARK    1  A    between atoms: C_2  and  C_3
REMARK    2  A    between atoms: C_3  and  C_4
REMARK    3  A    between atoms: C_4  and  C_5
REMARK    4  A    between atoms: C_5  and  C_6
REMARK    5  A    between atoms: C_5  and  C_12
REMARK    6  A    between atoms: C_6  and  C_7
REMARK    7  A    between atoms: C_7  and  C_9
REMARK                            x       y       z     vdW  Elec       q    Type
REMARK                         _______ _______ _______ _____ _____    ______ ____
ROOT
ATOM      1  C   UNL     1       4.650   3.999  17.532  0.00  0.00    +0.000 C 
ENDROOT
BRANCH   1   2
ATOM      2  C   UNL     1       4.981   4.056  19.039  0.00  0.00    +0.000 C 
ATOM      3  O   UNL     1       5.174   5.233  19.497  0.00  0.00    +0.000 OA
ATOM      4  O   UNL     1       4.938   2.998  19.692  0.00  0.00    +0.000 OA
ENDBRANCH   1   2
BRANCH   1   5
ATOM      5  C   UNL     1       3.367   3.191  17.364  0.00  0.00    +0.000 C 
BRANCH   5   6
ATOM      6  C   UNL     1       2.117   3.966  17.729  0.00  0.00    +0.000 C 
BRANCH   6   8
ATOM      7  N   UNL     1       0.329   2.256  19.002  0.00  0.00    +0.000 NA
ATOM      8  C   UNL     1       1.140   3.032  18.425  0.00  0.00    +0.000 C 
ENDBRANCH   6   8
ENDBRANCH   5   6
ENDBRANCH   1   5
BRANCH   1   9
ATOM      9  C   UNL     1       4.660   5.356  16.788  0.00  0.00    +0.000 C 
BRANCH   9  10
ATOM     10  C   UNL     1       6.018   5.809  16.317  0.00  0.00    +0.000 C 
ATOM     11  O   UNL     1       6.390   6.980  16.272  0.00  0.00    +0.000 OA
BRANCH  10  12
ATOM     12  C   UNL     1       7.000   4.760  15.831  0.00  0.00    +0.000 C 
ATOM     13  O   UNL     1       7.955   4.396  16.631  0.00  0.00    +0.000 OA
ATOM     14  O   UNL     1       6.866   4.316  14.638  0.00  0.00    +0.000 OA
ENDBRANCH  10  12
ENDBRANCH   9  10
ENDBRANCH   1   9
TORSDOF 7
ENDMDL
MODEL 4
REMARK VINA RESULT:      -5.4      1.345      1.778
REMARK  Name = 
REMARK  7 active torsions:
REMARK  status: ('A' for Active; 'I' for Inactive)
REMARK    1  A    between atoms: C_2  and  C_3
REMARK    2  A    between atoms: C_3  and  C_4
REMARK    3  A    between atoms: C_4  and  C_5
REMARK    4  A    between atoms: C_5  and  C_6
REMARK    5  A    between atoms: C_5  and  C_12
REMARK    6  A    between atoms: C_6  and  C_7
REMARK    7  A    between atoms: C_7  and  C_9
REMARK                            x       y       z     vdW  Elec       q    Type
REMARK                         _______ _______ _______ _____ _____    ______ ____
ROOT
ATOM      1  C   UNL     1       4.809   5.440  18.277  0.00  0.00    +0.000 C 
ENDROOT
BRANCH   1   2
ATOM      2  C   UNL     1       5.573   4.592  19.316  0.00  0.00    +0.000 C 
ATOM      3  O   UNL     1       5.110   3.412  19.483  0.00  0.00    +0.000 OA
ATOM      4  O   UNL     1       6.607   5.067  19.820  0.00  0.00    +0.000 OA
ENDBRANCH   1   2
BRANCH   1   5
ATOM      5  C   UNL     1       3.572   6.014  18.959  0.00  0.00    +0.000 C 
BRANCH   5   6
ATOM      6  C   UNL     1       2.337   5.991  18.080  0.00  0.00    +0.000 C 
BRANCH   6   8
ATOM      7  N   UNL     1       1.568   3.351  17.665  0.00  0.00    +0.000 NA
ATOM      8  C   UNL     1       1.916   4.548  17.853  0.00  0.00    +0.000 C 
ENDBRANCH   6   8
ENDBRANCH   5   6
ENDBRANCH   1   5
BRANCH   1   9
ATOM      9  C   UNL     1       5.657   6.475  17.499  0.00  0.00    +0.000 C 
BRANCH   9  10
ATOM     10  C   UNL     1       5.917   6.124  16.056  0.00  0.00    +0.000 C 
ATOM     11  O   UNL     1       5.193   6.445  15.116  0.00  0.00    +0.000 OA
BRANCH  10  12
ATOM     12  C   UNL     1       7.139   5.289  15.726  0.00  0.00    +0.000 C 
ATOM     13  O   UNL     1       7.568   5.288  14.501  0.00  0.00    +0.000 OA
ATOM     14  O   UNL     1       7.662   4.591  16.662  0.00  0.00    +0.000 OA
ENDBRANCH  10  12
ENDBRANCH   9  10
ENDBRANCH   1   9
TORSDOF 7
ENDMDL
MODEL 5
REMARK VINA RESULT:      -5.4      1.860      2.530
REMARK  Name = 
REMARK  7 active torsions:
REMARK  status: ('A' for Active; 'I' for Inactive)
REMARK    1  A    between atoms: C_2  and  C_3
REMARK    2  A    between atoms: C_3  and  C_4
REMARK    3  A    between atoms: C_4  and  C_5
REMARK    4  A    between atoms: C_5  and  C_6
REMARK    5  A    between atoms: C_5  and  C_12
REMARK    6  A    between atoms: C_6  and  C_7
REMARK    7  A    between atoms: C_7  and  C_9
REMARK                            x       y       z     vdW  Elec       q    Type
REMARK                         _______ _______ _______ _____ _____    ______ ____
ROOT
ATOM      1  C   UNL     1       5.901   4.534  17.858  0.00  0.00    +0.000 C 
ENDROOT
BRANCH   1   2
ATOM      2  C   UNL     1       7.372   5.004  17.870  0.00  0.00    +0.000 C 
ATOM      3  O   UNL     1       8.203   4.162  17.387  0.00  0.00    +0.000 OA
ATOM      4  O   UNL     1       7.616   6.166  18.242  0.00  0.00    +0.000 OA
ENDBRANCH   1   2
BRANCH   1   5
ATOM      5  C   UNL     1       5.106   5.455  18.777  0.00  0.00    +0.000 C 
BRANCH   5   6
ATOM      6  C   UNL     1       3.611   5.400  18.537  0.00  0.00    +0.000 C 
BRANCH   6   8
ATOM      7  N   UNL     1       2.334   4.697  20.906  0.00  0.00    +0.000 NA
ATOM      8  C   UNL     1       2.913   5.016  19.832  0.00  0.00    +0.000 C 
ENDBRANCH   6   8
ENDBRANCH   5   6
ENDBRANCH   1   5
BRANCH   1   9
ATOM      9  C   UNL     1       5.274   4.319  16.460  0.00  0.00    +0.000 C 
BRANCH   9  10
ATOM     10  C   UNL     1       5.717   5.305  15.409  0.00  0.00    +0.000 C 
ATOM     11  O   UNL     1       5.342   6.473  15.342  0.00  0.00    +0.000 OA
BRANCH  10  12
ATOM     12  C   UNL     1       6.671   4.829  14.330  0.00  0.00    +0.000 C 
ATOM     13  O   UNL     1       6.322   3.806  13.611  0.00  0.00    +0.000 OA
ATOM     14  O   UNL     1       7.794   5.431  14.211  0.00  0.00    +0.000 OA
ENDBRANCH  10  12
ENDBRANCH   9  10
ENDBRANCH   1   9
TORSDOF 7
ENDMDL
MODEL 6
REMARK VINA RESULT:      -5.4      3.053      4.814
REMARK  Name = 
REMARK  7 active torsions:
REMARK  status: ('A' for Active; 'I' for Inactive)
REMARK    1  A    between atoms: C_2  and  C_3
REMARK    2  A    between atoms: C_3  and  C_4
REMARK    3  A    between atoms: C_4  and  C_5
REMARK    4  A    between atoms: C_5  and  C_6
REMARK    5  A    between atoms: C_5  and  C_12
REMARK    6  A    between atoms: C_6  and  C_7
REMARK    7  A    between atoms: C_7  and  C_9
REMARK                            x       y       z     vdW  Elec       q    Type
REMARK                         _______ _______ _______ _____ _____    ______ ____
ROOT
ATOM      1  C   UNL     1       5.286   4.820  17.335  0.00  0.00    +0.000 C 
ENDROOT
BRANCH   1   2
ATOM      2  C   UNL     1       6.386   4.707  18.412  0.00  0.00    +0.000 C 
ATOM      3  O   UNL     1       7.545   4.414  17.959  0.00  0.00    +0.000 OA
ATOM      4  O   UNL     1       6.094   4.999  19.586  0.00  0.00    +0.000 OA
ENDBRANCH   1   2
BRANCH   1   5
ATOM      5  C   UNL     1       5.574   3.779  16.259  0.00  0.00    +0.000 C 
BRANCH   5   6
ATOM      6  C   UNL     1       5.481   4.329  14.850  0.00  0.00    +0.000 C 
BRANCH   6   8
ATOM      7  N   UNL     1       7.909   5.504  14.172  0.00  0.00    +0.000 NA
ATOM      8  C   UNL     1       6.808   4.972  14.480  0.00  0.00    +0.000 C 
ENDBRANCH   6   8
ENDBRANCH   5   6
ENDBRANCH   1   5
BRANCH   1   9
ATOM      9  C   UNL     1       3.829   4.823  17.858  0.00  0.00    +0.000 C 
BRANCH   9  10
ATOM     10  C   UNL     1       3.130   3.489  17.795  0.00  0.00    +0.000 C 
ATOM     11  O   UNL     1       2.266   3.190  16.974  0.00  0.00    +0.000 OA
BRANCH  10  12
ATOM     12  C   UNL     1       3.486   2.439  18.830  0.00  0.00    +0.000 C 
ATOM     13  O   UNL     1       3.649   1.215  18.430  0.00  0.00    +0.000 OA
ATOM     14  O   UNL     1       3.564   2.803  20.055  0.00  0.00    +0.000 OA
ENDBRANCH  10  12
ENDBRANCH   9  10
ENDBRANCH   1   9
TORSDOF 7
ENDMDL
MODEL 7
REMARK VINA RESULT:      -5.4      1.890      3.552
REMARK  Name = 
REMARK  7 active torsions:
REMARK  status: ('A' for Active; 'I' for Inactive)
REMARK    1  A    between atoms: C_2  and  C_3
REMARK    2  A    between atoms: C_3  and  C_4
REMARK    3  A    between atoms: C_4  and  C_5
REMARK    4  A    between atoms: C_5  and  C_6
REMARK    5  A    between atoms: C_5  and  C_12
REMARK    6  A    between atoms: C_6  and  C_7
REMARK    7  A    between atoms: C_7  and  C_9
REMARK                            x       y       z     vdW  Elec       q    Type
REMARK                         _______ _______ _______ _____ _____    ______ ____
ROOT
ATOM      1  C   UNL     1       6.346   4.750  16.284  0.00  0.00    +0.000 C 
ENDROOT
BRANCH   1   2
ATOM      2  C   UNL     1       6.883   4.617  14.843  0.00  0.00    +0.000 C 
ATOM      3  O   UNL     1       6.308   3.716  14.142  0.00  0.00    +0.000 OA
ATOM      4  O   UNL     1       7.735   5.437  14.453  0.00  0.00    +0.000 OA
ENDBRANCH   1   2
BRANCH   1   5
ATOM      5  C   UNL     1       5.116   3.858  16.411  0.00  0.00    +0.000 C 
BRANCH   5   6
ATOM      6  C   UNL     1       4.112   4.359  17.430  0.00  0.00    +0.000 C 
BRANCH   6   8
ATOM      7  N   UNL     1       1.997   2.559  17.582  0.00  0.00    +0.000 NA
ATOM      8  C   UNL     1       2.956   3.376  17.513  0.00  0.00    +0.000 C 
ENDBRANCH   6   8
ENDBRANCH   5   6
ENDBRANCH   1   5
BRANCH   1   9
ATOM      9  C   UNL     1       7.391   4.574  17.411  0.00  0.00    +0.000 C 
BRANCH   9  10
ATOM     10  C   UNL     1       7.369   5.647  18.469  0.00  0.00    +0.000 C 
ATOM     11  O   UNL     1       7.063   5.466  19.645  0.00  0.00    +0.000 OA
BRANCH  10  12
ATOM     12  C   UNL     1       7.720   7.066  18.063  0.00  0.00    +0.000 C 
ATOM     13  O   UNL     1       8.564   7.723  18.798  0.00  0.00    +0.000 OA
ATOM     14  O   UNL     1       7.131   7.563  17.041  0.00  0.00    +0.000 OA
ENDBRANCH  10  12
ENDBRANCH   9  10
ENDBRANCH   1   9
TORSDOF 7
ENDMDL
MODEL 8
REMARK VINA RESULT:      -5.3      2.446      2.876
REMARK  Name = 
REMARK  7 active torsions:
REMARK  status: ('A' for Active; 'I' for Inactive)
REMARK    1  A    between atoms: C_2  and  C_3
REMARK    2  A    between atoms: C_3  and  C_4
REMARK    3  A    between atoms: C_4  and  C_5
REMARK    4  A    between atoms: C_5  and  C_6
REMARK    5  A    between atoms: C_5  and  C_12
REMARK    6  A    between atoms: C_6  and  C_7
REMARK    7  A    between atoms: C_7  and  C_9
REMARK                            x       y       z     vdW  Elec       q    Type
REMARK                         _______ _______ _______ _____ _____    ______ ____
ROOT
ATOM      1  C   UNL     1       3.531   4.919  17.405  0.00  0.00    +0.000 C 
ENDROOT
BRANCH   1   2
ATOM      2  C   UNL     1       2.633   3.726  17.800  0.00  0.00    +0.000 C 
ATOM      3  O   UNL     1       1.449   3.771  17.322  0.00  0.00    +0.000 OA
ATOM      4  O   UNL     1       3.143   2.794  18.448  0.00  0.00    +0.000 OA
ENDBRANCH   1   2
BRANCH   1   5
ATOM      5  C   UNL     1       3.880   5.685  18.677  0.00  0.00    +0.000 C 
BRANCH   5   6
ATOM      6  C   UNL     1       2.743   6.547  19.190  0.00  0.00    +0.000 C 
BRANCH   6   8
ATOM      7  N   UNL     1       2.380   8.697  17.463  0.00  0.00    +0.000 NA
ATOM      8  C   UNL     1       2.545   7.722  18.246  0.00  0.00    +0.000 C 
ENDBRANCH   6   8
ENDBRANCH   5   6
ENDBRANCH   1   5
BRANCH   1   9
ATOM      9  C   UNL     1       4.741   4.581  16.502  0.00  0.00    +0.000 C 
BRANCH   9  10
ATOM     10  C   UNL     1       5.594   5.763  16.119  0.00  0.00    +0.000 C 
ATOM     11  O   UNL     1       5.196   6.739  15.487  0.00  0.00    +0.000 OA
BRANCH  10  12
ATOM     12  C   UNL     1       7.061   5.749  16.506  0.00  0.00    +0.000 C 
ATOM     13  O   UNL     1       7.689   6.883  16.569  0.00  0.00    +0.000 OA
ATOM     14  O   UNL     1       7.619   4.616  16.709  0.00  0.00    +0.000 OA
ENDBRANCH  10  12
ENDBRANCH   9  10
ENDBRANCH   1   9
TORSDOF 7
ENDMDL
MODEL 9
REMARK VINA RESULT:      -5.3      1.323      1.620
REMARK  Name = 
REMARK  7 active torsions:
REMARK  status: ('A' for Active; 'I' for Inactive)
REMARK    1  A    between atoms: C_2  and  C_3
REMARK    2  A    between atoms: C_3  and  C_4
REMARK    3  A    between atoms: C_4  and  C_5
REMARK    4  A    between atoms: C_5  and  C_6
REMARK    5  A    between atoms: C_5  and  C_12
REMARK    6  A    between atoms: C_6  and  C_7
REMARK    7  A    between atoms: C_7  and  C_9
REMARK                            x       y       z     vdW  Elec       q    Type
REMARK                         _______ _______ _______ _____ _____    ______ ____
ROOT
ATOM      1  C   UNL     1       4.420   3.750  18.343  0.00  0.00    +0.000 C 
ENDROOT
BRANCH   1   2
ATOM      2  C   UNL     1       4.971   4.904  19.207  0.00  0.00    +0.000 C 
ATOM      3  O   UNL     1       4.125   5.827  19.464  0.00  0.00    +0.000 OA
ATOM      4  O   UNL     1       6.127   4.803  19.659  0.00  0.00    +0.000 OA
ENDBRANCH   1   2
BRANCH   1   5
ATOM      5  C   UNL     1       2.902   3.742  18.483  0.00  0.00    +0.000 C 
BRANCH   5   6
ATOM      6  C   UNL     1       2.369   2.505  19.178  0.00  0.00    +0.000 C 
BRANCH   6   8
ATOM      7  N   UNL     1       2.269   2.974  21.917  0.00  0.00    +0.000 NA
ATOM      8  C   UNL     1       2.314   2.761  20.675  0.00  0.00    +0.000 C 
ENDBRANCH   6   8
ENDBRANCH   5   6
ENDBRANCH   1   5
BRANCH   1   9
ATOM      9  C   UNL     1       4.934   3.697  16.884  0.00  0.00    +0.000 C 
BRANCH   9  10
ATOM     10  C   UNL     1       5.566   4.972  16.388  0.00  0.00    +0.000 C 
ATOM     11  O   UNL     1       4.957   6.018  16.174  0.00  0.00    +0.000 OA
BRANCH  10  12
ATOM     12  C   UNL     1       7.055   4.973  16.097  0.00  0.00    +0.000 C 
ATOM     13  O   UNL     1       7.466   5.554  15.011  0.00  0.00    +0.000 OA
ATOM     14  O   UNL     1       7.829   4.363  16.913  0.00  0.00    +0.000 OA
ENDBRANCH  10  12
ENDBRANCH   9  10
ENDBRANCH   1   9
TORSDOF 7
ENDMDL
