MODEL 1
REMARK VINA RESULT:      -8.5      0.000      0.000
REMARK  Name = 
REMARK  6 active torsions:
REMARK  status: ('A' for Active; 'I' for Inactive)
REMARK    1  A    between atoms: C_1  and  C_2
REMARK    2  A    between atoms: C_4  and  N_5
REMARK    3  A    between atoms: C_6  and  C_8
REMARK    4  A    between atoms: C_12  and  C_13
REMARK    5  A    between atoms: N_15  and  C_16
REMARK    6  A    between atoms: C_21  and  C_22
REMARK                            x       y       z     vdW  Elec       q    Type
REMARK                         _______ _______ _______ _____ _____    ______ ____
ROOT
ATOM      1  C   UNL     1       0.840  10.033  19.930  0.00  0.00    +0.000 A 
ATOM      2  C   UNL     1       1.412  10.276  18.676  0.00  0.00    +0.000 A 
ATOM      3  C   UNL     1       2.101   9.281  17.966  0.00  0.00    +0.000 A 
ATOM      4  C   UNL     1       2.176   8.026  18.564  0.00  0.00    +0.000 A 
ATOM      5  N   UNL     1       2.710   6.838  18.139  0.00  0.00    +0.000 N 
ATOM      6  C   UNL     1       2.477   5.875  19.095  0.00  0.00    +0.000 A 
ATOM      7  N   UNL     1       1.871   6.419  20.140  0.00  0.00    +0.000 NA
ATOM      8  C   UNL     1       1.657   7.744  19.818  0.00  0.00    +0.000 A 
ATOM      9  C   UNL     1       1.004   8.768  20.532  0.00  0.00    +0.000 A 
ATOM     10  H   UNL     1       3.156   6.674  17.250  0.00  0.00    +0.000 HD
ENDROOT
BRANCH   6  11
ATOM     11  C   UNL     1       2.836   4.463  18.916  0.00  0.00    +0.000 A 
ATOM     12  C   UNL     1       3.770   3.858  19.767  0.00  0.00    +0.000 A 
ATOM     13  C   UNL     1       4.086   2.507  19.617  0.00  0.00    +0.000 A 
ATOM     14  F   UNL     1       4.977   1.941  20.442  0.00  0.00    +0.000 F 
ATOM     15  C   UNL     1       3.489   1.730  18.630  0.00  0.00    +0.000 A 
ATOM     16  C   UNL     1       2.562   2.314  17.772  0.00  0.00    +0.000 A 
ATOM     17  C   UNL     1       2.245   3.666  17.919  0.00  0.00    +0.000 A 
ATOM     18  F   UNL     1       1.341   4.191  17.077  0.00  0.00    +0.000 F 
ENDBRANCH   6  11
BRANCH   1  21
ATOM     19  C   UNL     1      -0.046  11.156  22.012  0.00  0.00    +0.000 C 
ATOM     20  O   UNL     1       0.528  10.442  22.832  0.00  0.00    +0.000 OA
ATOM     21  N   UNL     1       0.086  11.005  20.631  0.00  0.00    +0.000 N 
ATOM     22  H   UNL     1      -0.334  11.741  20.073  0.00  0.00    +0.000 HD
BRANCH  19  28
ATOM     23  C   UNL     1       0.653  14.272  21.952  0.00  0.00    +0.000 C 
ATOM     24  C   UNL     1      -0.623  13.644  22.429  0.00  0.00    +0.000 A 
ATOM     25  C   UNL     1      -1.738  14.409  22.940  0.00  0.00    +0.000 A 
ATOM     26  C   UNL     1      -2.798  13.623  23.331  0.00  0.00    +0.000 A 
ATOM     27  S   UNL     1      -2.464  11.983  23.070  0.00  0.00    +0.000 S 
ATOM     28  C   UNL     1      -0.899  12.278  22.443  0.00  0.00    +0.000 A 
BRANCH  26  29
ATOM     29  N   UNL     1      -4.013  14.052  23.856  0.00  0.00    +0.000 N 
ATOM     30  C   UNL     1      -5.149  14.330  23.114  0.00  0.00    +0.000 C 
ATOM     31  O   UNL     1      -5.288  14.212  21.901  0.00  0.00    +0.000 OA
ATOM     32  H   UNL     1      -4.052  14.185  24.856  0.00  0.00    +0.000 HD
BRANCH  30  33
ATOM     33  C   UNL     1      -6.337  14.854  23.850  0.00  0.00    +0.000 C 
ATOM     34  C   UNL     1      -7.730  15.118  23.348  0.00  0.00    +0.000 C 
ATOM     35  C   UNL     1      -7.462  13.896  24.178  0.00  0.00    +0.000 C 
ENDBRANCH  30  33
ENDBRANCH  26  29
ENDBRANCH  19  28
ENDBRANCH   1  21
TORSDOF 5
ENDMDL
MODEL 2
REMARK VINA RESULT:      -8.2      4.785     11.665
REMARK  Name = 
REMARK  6 active torsions:
REMARK  status: ('A' for Active; 'I' for Inactive)
REMARK    1  A    between atoms: C_1  and  C_2
REMARK    2  A    between atoms: C_4  and  N_5
REMARK    3  A    between atoms: C_6  and  C_8
REMARK    4  A    between atoms: C_12  and  C_13
REMARK    5  A    between atoms: N_15  and  C_16
REMARK    6  A    between atoms: C_21  and  C_22
REMARK                            x       y       z     vdW  Elec       q    Type
REMARK                         _______ _______ _______ _____ _____    ______ ____
ROOT
ATOM      1  C   UNL     1       1.008   9.935  19.472  0.00  0.00    +0.000 A 
ATOM      2  C   UNL     1       1.290  11.135  18.810  0.00  0.00    +0.000 A 
ATOM      3  C   UNL     1       0.808  12.370  19.268  0.00  0.00    +0.000 A 
ATOM      4  C   UNL     1       0.043  12.350  20.432  0.00  0.00    +0.000 A 
ATOM      5  N   UNL     1      -0.526  13.351  21.173  0.00  0.00    +0.000 N 
ATOM      6  C   UNL     1      -1.144  12.797  22.272  0.00  0.00    +0.000 A 
ATOM      7  N   UNL     1      -1.044  11.477  22.225  0.00  0.00    +0.000 NA
ATOM      8  C   UNL     1      -0.292  11.185  21.104  0.00  0.00    +0.000 A 
ATOM      9  C   UNL     1       0.167   9.951  20.605  0.00  0.00    +0.000 A 
ATOM     10  H   UNL     1      -0.463  14.338  20.981  0.00  0.00    +0.000 HD
ENDROOT
BRANCH   6  11
ATOM     11  C   UNL     1      -1.773  13.601  23.328  0.00  0.00    +0.000 A 
ATOM     12  C   UNL     1      -1.048  14.612  23.972  0.00  0.00    +0.000 A 
ATOM     13  C   UNL     1      -1.656  15.397  24.952  0.00  0.00    +0.000 A 
ATOM     14  F   UNL     1      -0.952  16.364  25.555  0.00  0.00    +0.000 F 
ATOM     15  C   UNL     1      -2.985  15.201  25.314  0.00  0.00    +0.000 A 
ATOM     16  C   UNL     1      -3.720  14.199  24.689  0.00  0.00    +0.000 A 
ATOM     17  C   UNL     1      -3.113  13.411  23.709  0.00  0.00    +0.000 A 
ATOM     18  F   UNL     1      -3.857  12.458  23.125  0.00  0.00    +0.000 F 
ENDBRANCH   6  11
BRANCH   1  21
ATOM     19  C   UNL     1       1.972   7.633  19.866  0.00  0.00    +0.000 C 
ATOM     20  O   UNL     1       1.919   7.649  21.094  0.00  0.00    +0.000 OA
ATOM     21  N   UNL     1       1.539   8.688  19.061  0.00  0.00    +0.000 N 
ATOM     22  H   UNL     1       1.515   8.492  18.066  0.00  0.00    +0.000 HD
BRANCH  19  28
ATOM     23  C   UNL     1       1.285   4.565  20.431  0.00  0.00    +0.000 C 
ATOM     24  C   UNL     1       2.188   5.104  19.362  0.00  0.00    +0.000 A 
ATOM     25  C   UNL     1       2.885   4.261  18.416  0.00  0.00    +0.000 A 
ATOM     26  C   UNL     1       3.666   4.972  17.533  0.00  0.00    +0.000 A 
ATOM     27  S   UNL     1       3.550   6.636  17.826  0.00  0.00    +0.000 S 
ATOM     28  C   UNL     1       2.469   6.451  19.139  0.00  0.00    +0.000 A 
BRANCH  26  29
ATOM     29  N   UNL     1       4.451   4.458  16.505  0.00  0.00    +0.000 N 
ATOM     30  C   UNL     1       5.834   4.402  16.509  0.00  0.00    +0.000 C 
ATOM     31  O   UNL     1       6.586   4.753  17.412  0.00  0.00    +0.000 OA
ATOM     32  H   UNL     1       3.962   4.118  15.689  0.00  0.00    +0.000 HD
BRANCH  30  33
ATOM     33  C   UNL     1       6.503   3.885  15.279  0.00  0.00    +0.000 C 
ATOM     34  C   UNL     1       6.012   3.878  13.858  0.00  0.00    +0.000 C 
ATOM     35  C   UNL     1       7.045   4.883  14.280  0.00  0.00    +0.000 C 
ENDBRANCH  30  33
ENDBRANCH  26  29
ENDBRANCH  19  28
ENDBRANCH   1  21
TORSDOF 5
ENDMDL
MODEL 3
REMARK VINA RESULT:      -8.2      2.467      3.107
REMARK  Name = 
REMARK  6 active torsions:
REMARK  status: ('A' for Active; 'I' for Inactive)
REMARK    1  A    between atoms: C_1  and  C_2
REMARK    2  A    between atoms: C_4  and  N_5
REMARK    3  A    between atoms: C_6  and  C_8
REMARK    4  A    between atoms: C_12  and  C_13
REMARK    5  A    between atoms: N_15  and  C_16
REMARK    6  A    between atoms: C_21  and  C_22
REMARK                            x       y       z     vdW  Elec       q    Type
REMARK                         _______ _______ _______ _____ _____    ______ ____
ROOT
ATOM      1  C   UNL     1       0.968   8.568  20.319  0.00  0.00    +0.000 A 
ATOM      2  C   UNL     1       0.987   7.427  21.129  0.00  0.00    +0.000 A 
ATOM      3  C   UNL     1       1.786   6.313  20.828  0.00  0.00    +0.000 A 
ATOM      4  C   UNL     1       2.577   6.402  19.686  0.00  0.00    +0.000 A 
ATOM      5  N   UNL     1       3.496   5.547  19.138  0.00  0.00    +0.000 N 
ATOM      6  C   UNL     1       4.042   6.134  18.019  0.00  0.00    +0.000 A 
ATOM      7  N   UNL     1       3.461   7.303  17.798  0.00  0.00    +0.000 NA
ATOM      8  C   UNL     1       2.568   7.495  18.834  0.00  0.00    +0.000 A 
ATOM      9  C   UNL     1       1.728   8.586  19.131  0.00  0.00    +0.000 A 
ATOM     10  H   UNL     1       3.771   4.653  19.516  0.00  0.00    +0.000 HD
ENDROOT
BRANCH   6  11
ATOM     11  C   UNL     1       5.131   5.526  17.244  0.00  0.00    +0.000 A 
ATOM     12  C   UNL     1       4.947   5.219  15.889  0.00  0.00    +0.000 A 
ATOM     13  C   UNL     1       5.992   4.671  15.144  0.00  0.00    +0.000 A 
ATOM     14  F   UNL     1       5.804   4.389  13.849  0.00  0.00    +0.000 F 
ATOM     15  C   UNL     1       7.234   4.418  15.719  0.00  0.00    +0.000 A 
ATOM     16  C   UNL     1       7.434   4.711  17.064  0.00  0.00    +0.000 A 
ATOM     17  C   UNL     1       6.389   5.257  17.811  0.00  0.00    +0.000 A 
ATOM     18  F   UNL     1       6.622   5.533  19.105  0.00  0.00    +0.000 F 
ENDBRANCH   6  11
BRANCH   1  21
ATOM     19  C   UNL     1       0.198  10.426  21.848  0.00  0.00    +0.000 C 
ATOM     20  O   UNL     1       0.884  10.122  22.822  0.00  0.00    +0.000 OA
ATOM     21  N   UNL     1       0.219   9.726  20.641  0.00  0.00    +0.000 N 
ATOM     22  H   UNL     1      -0.292  10.160  19.879  0.00  0.00    +0.000 HD
BRANCH  19  28
ATOM     23  C   UNL     1       0.240  12.932  19.868  0.00  0.00    +0.000 C 
ATOM     24  C   UNL     1      -0.688  12.714  21.025  0.00  0.00    +0.000 A 
ATOM     25  C   UNL     1      -1.721  13.654  21.399  0.00  0.00    +0.000 A 
ATOM     26  C   UNL     1      -2.444  13.253  22.499  0.00  0.00    +0.000 A 
ATOM     27  S   UNL     1      -1.898  11.754  23.068  0.00  0.00    +0.000 S 
ATOM     28  C   UNL     1      -0.682  11.608  21.873  0.00  0.00    +0.000 A 
BRANCH  26  29
ATOM     29  N   UNL     1      -3.502  13.928  23.100  0.00  0.00    +0.000 N 
ATOM     30  C   UNL     1      -4.834  13.560  23.015  0.00  0.00    +0.000 C 
ATOM     31  O   UNL     1      -5.295  12.579  22.442  0.00  0.00    +0.000 OA
ATOM     32  H   UNL     1      -3.270  14.761  23.622  0.00  0.00    +0.000 HD
BRANCH  30  33
ATOM     33  C   UNL     1      -5.836  14.456  23.666  0.00  0.00    +0.000 C 
ATOM     34  C   UNL     1      -5.741  15.923  23.979  0.00  0.00    +0.000 C 
ATOM     35  C   UNL     1      -6.562  15.468  22.807  0.00  0.00    +0.000 C 
ENDBRANCH  30  33
ENDBRANCH  26  29
ENDBRANCH  19  28
ENDBRANCH   1  21
TORSDOF 5
ENDMDL
MODEL 4
REMARK VINA RESULT:      -8.1      2.532      3.085
REMARK  Name = 
REMARK  6 active torsions:
REMARK  status: ('A' for Active; 'I' for Inactive)
REMARK    1  A    between atoms: C_1  and  C_2
REMARK    2  A    between atoms: C_4  and  N_5
REMARK    3  A    between atoms: C_6  and  C_8
REMARK    4  A    between atoms: C_12  and  C_13
REMARK    5  A    between atoms: N_15  and  C_16
REMARK    6  A    between atoms: C_21  and  C_22
REMARK                            x       y       z     vdW  Elec       q    Type
REMARK                         _______ _______ _______ _____ _____    ______ ____
ROOT
ATOM      1  C   UNL     1       0.788   9.002  20.041  0.00  0.00    +0.000 A 
ATOM      2  C   UNL     1       0.820   7.969  20.985  0.00  0.00    +0.000 A 
ATOM      3  C   UNL     1       1.644   6.843  20.830  0.00  0.00    +0.000 A 
ATOM      4  C   UNL     1       2.445   6.807  19.692  0.00  0.00    +0.000 A 
ATOM      5  N   UNL     1       3.386   5.911  19.261  0.00  0.00    +0.000 N 
ATOM      6  C   UNL     1       3.933   6.367  18.082  0.00  0.00    +0.000 A 
ATOM      7  N   UNL     1       3.332   7.489  17.715  0.00  0.00    +0.000 NA
ATOM      8  C   UNL     1       2.424   7.787  18.712  0.00  0.00    +0.000 A 
ATOM      9  C   UNL     1       1.561   8.890  18.866  0.00  0.00    +0.000 A 
ATOM     10  H   UNL     1       3.675   5.076  19.747  0.00  0.00    +0.000 HD
ENDROOT
BRANCH   6  11
ATOM     11  C   UNL     1       5.042   5.692  17.396  0.00  0.00    +0.000 A 
ATOM     12  C   UNL     1       4.935   5.360  16.039  0.00  0.00    +0.000 A 
ATOM     13  C   UNL     1       6.001   4.748  15.380  0.00  0.00    +0.000 A 
ATOM     14  F   UNL     1       5.888   4.443  14.081  0.00  0.00    +0.000 F 
ATOM     15  C   UNL     1       7.188   4.452  16.043  0.00  0.00    +0.000 A 
ATOM     16  C   UNL     1       7.310   4.769  17.392  0.00  0.00    +0.000 A 
ATOM     17  C   UNL     1       6.245   5.380  18.054  0.00  0.00    +0.000 A 
ATOM     18  F   UNL     1       6.403   5.676  19.355  0.00  0.00    +0.000 F 
ENDBRANCH   6  11
BRANCH   1  21
ATOM     19  C   UNL     1       0.341  11.319  20.941  0.00  0.00    +0.000 C 
ATOM     20  O   UNL     1       1.408  11.468  21.531  0.00  0.00    +0.000 OA
ATOM     21  N   UNL     1       0.014  10.175  20.213  0.00  0.00    +0.000 N 
ATOM     22  H   UNL     1      -0.839  10.237  19.667  0.00  0.00    +0.000 HD
BRANCH  19  28
ATOM     23  C   UNL     1       0.123  13.772  18.906  0.00  0.00    +0.000 C 
ATOM     24  C   UNL     1      -0.797  13.467  20.050  0.00  0.00    +0.000 A 
ATOM     25  C   UNL     1      -1.943  14.283  20.382  0.00  0.00    +0.000 A 
ATOM     26  C   UNL     1      -2.636  13.819  21.477  0.00  0.00    +0.000 A 
ATOM     27  S   UNL     1      -1.927  12.409  22.090  0.00  0.00    +0.000 S 
ATOM     28  C   UNL     1      -0.676  12.387  20.922  0.00  0.00    +0.000 A 
BRANCH  26  29
ATOM     29  N   UNL     1      -3.781  14.373  22.042  0.00  0.00    +0.000 N 
ATOM     30  C   UNL     1      -5.067  13.889  21.876  0.00  0.00    +0.000 C 
ATOM     31  O   UNL     1      -5.407  12.891  21.249  0.00  0.00    +0.000 OA
ATOM     32  H   UNL     1      -3.652  15.204  22.602  0.00  0.00    +0.000 HD
BRANCH  30  33
ATOM     33  C   UNL     1      -6.179  14.666  22.501  0.00  0.00    +0.000 C 
ATOM     34  C   UNL     1      -7.640  14.328  22.599  0.00  0.00    +0.000 C 
ATOM     35  C   UNL     1      -6.761  14.168  23.805  0.00  0.00    +0.000 C 
ENDBRANCH  30  33
ENDBRANCH  26  29
ENDBRANCH  19  28
ENDBRANCH   1  21
TORSDOF 5
ENDMDL
MODEL 5
REMARK VINA RESULT:      -8.1      2.944      3.676
REMARK  Name = 
REMARK  6 active torsions:
REMARK  status: ('A' for Active; 'I' for Inactive)
REMARK    1  A    between atoms: C_1  and  C_2
REMARK    2  A    between atoms: C_4  and  N_5
REMARK    3  A    between atoms: C_6  and  C_8
REMARK    4  A    between atoms: C_12  and  C_13
REMARK    5  A    between atoms: N_15  and  C_16
REMARK    6  A    between atoms: C_21  and  C_22
REMARK                            x       y       z     vdW  Elec       q    Type
REMARK                         _______ _______ _______ _____ _____    ______ ____
ROOT
ATOM      1  C   UNL     1       1.142   8.928  20.135  0.00  0.00    +0.000 A 
ATOM      2  C   UNL     1       1.054   7.799  20.958  0.00  0.00    +0.000 A 
ATOM      3  C   UNL     1       1.752   6.615  20.676  0.00  0.00    +0.000 A 
ATOM      4  C   UNL     1       2.554   6.619  19.539  0.00  0.00    +0.000 A 
ATOM      5  N   UNL     1       3.396   5.678  19.007  0.00  0.00    +0.000 N 
ATOM      6  C   UNL     1       3.999   6.200  17.884  0.00  0.00    +0.000 A 
ATOM      7  N   UNL     1       3.526   7.415  17.646  0.00  0.00    +0.000 NA
ATOM      8  C   UNL     1       2.648   7.697  18.673  0.00  0.00    +0.000 A 
ATOM      9  C   UNL     1       1.908   8.863  18.952  0.00  0.00    +0.000 A 
ATOM     10  H   UNL     1       3.588   4.768  19.397  0.00  0.00    +0.000 HD
ENDROOT
BRANCH   6  11
ATOM     11  C   UNL     1       5.034   5.488  17.124  0.00  0.00    +0.000 A 
ATOM     12  C   UNL     1       4.776   5.053  15.817  0.00  0.00    +0.000 A 
ATOM     13  C   UNL     1       5.770   4.405  15.083  0.00  0.00    +0.000 A 
ATOM     14  F   UNL     1       5.511   4.001  13.833  0.00  0.00    +0.000 F 
ATOM     15  C   UNL     1       7.032   4.175  15.621  0.00  0.00    +0.000 A 
ATOM     16  C   UNL     1       7.306   4.596  16.919  0.00  0.00    +0.000 A 
ATOM     17  C   UNL     1       6.312   5.243  17.656  0.00  0.00    +0.000 A 
ATOM     18  F   UNL     1       6.616   5.639  18.902  0.00  0.00    +0.000 F 
ENDBRANCH   6  11
BRANCH   1  21
ATOM     19  C   UNL     1      -0.659  10.678  19.861  0.00  0.00    +0.000 C 
ATOM     20  O   UNL     1      -1.309  10.100  18.993  0.00  0.00    +0.000 OA
ATOM     21  N   UNL     1       0.497  10.152  20.438  0.00  0.00    +0.000 N 
ATOM     22  H   UNL     1       0.859  10.668  21.233  0.00  0.00    +0.000 HD
BRANCH  19  28
ATOM     23  C   UNL     1      -0.444  13.539  18.458  0.00  0.00    +0.000 C 
ATOM     24  C   UNL     1      -1.012  13.241  19.814  0.00  0.00    +0.000 A 
ATOM     25  C   UNL     1      -1.556  14.259  20.684  0.00  0.00    +0.000 A 
ATOM     26  C   UNL     1      -2.011  13.758  21.883  0.00  0.00    +0.000 A 
ATOM     27  S   UNL     1      -1.802  12.078  21.954  0.00  0.00    +0.000 S 
ATOM     28  C   UNL     1      -1.093  11.979  20.400  0.00  0.00    +0.000 A 
BRANCH  26  29
ATOM     29  N   UNL     1      -2.591  14.473  22.926  0.00  0.00    +0.000 N 
ATOM     30  C   UNL     1      -1.912  14.973  24.024  0.00  0.00    +0.000 C 
ATOM     31  O   UNL     1      -0.707  14.906  24.243  0.00  0.00    +0.000 OA
ATOM     32  H   UNL     1      -3.589  14.617  22.876  0.00  0.00    +0.000 HD
BRANCH  30  33
ATOM     33  C   UNL     1      -2.722  15.649  25.081  0.00  0.00    +0.000 C 
ATOM     34  C   UNL     1      -2.769  17.103  25.461  0.00  0.00    +0.000 C 
ATOM     35  C   UNL     1      -3.888  16.512  24.652  0.00  0.00    +0.000 C 
ENDBRANCH  30  33
ENDBRANCH  26  29
ENDBRANCH  19  28
ENDBRANCH   1  21
TORSDOF 5
ENDMDL
MODEL 6
REMARK VINA RESULT:      -8.1      1.577      1.837
REMARK  Name = 
REMARK  6 active torsions:
REMARK  status: ('A' for Active; 'I' for Inactive)
REMARK    1  A    between atoms: C_1  and  C_2
REMARK    2  A    between atoms: C_4  and  N_5
REMARK    3  A    between atoms: C_6  and  C_8
REMARK    4  A    between atoms: C_12  and  C_13
REMARK    5  A    between atoms: N_15  and  C_16
REMARK    6  A    between atoms: C_21  and  C_22
REMARK                            x       y       z     vdW  Elec       q    Type
REMARK                         _______ _______ _______ _____ _____    ______ ____
ROOT
ATOM      1  C   UNL     1       0.400  10.301  20.084  0.00  0.00    +0.000 A 
ATOM      2  C   UNL     1       0.887  10.516  18.790  0.00  0.00    +0.000 A 
ATOM      3  C   UNL     1       1.660   9.558  18.115  0.00  0.00    +0.000 A 
ATOM      4  C   UNL     1       1.909   8.367  18.792  0.00  0.00    +0.000 A 
ATOM      5  N   UNL     1       2.562   7.222  18.423  0.00  0.00    +0.000 N 
ATOM      6  C   UNL     1       2.486   6.311  19.453  0.00  0.00    +0.000 A 
ATOM      7  N   UNL     1       1.863   6.855  20.487  0.00  0.00    +0.000 NA
ATOM      8  C   UNL     1       1.479   8.120  20.087  0.00  0.00    +0.000 A 
ATOM      9  C   UNL     1       0.739   9.111  20.762  0.00  0.00    +0.000 A 
ATOM     10  H   UNL     1       2.988   7.047  17.526  0.00  0.00    +0.000 HD
ENDROOT
BRANCH   6  11
ATOM     11  C   UNL     1       3.003   4.940  19.351  0.00  0.00    +0.000 A 
ATOM     12  C   UNL     1       2.118   3.855  19.293  0.00  0.00    +0.000 A 
ATOM     13  C   UNL     1       2.608   2.555  19.164  0.00  0.00    +0.000 A 
ATOM     14  F   UNL     1       1.750   1.529  19.103  0.00  0.00    +0.000 F 
ATOM     15  C   UNL     1       3.974   2.301  19.089  0.00  0.00    +0.000 A 
ATOM     16  C   UNL     1       4.868   3.365  19.151  0.00  0.00    +0.000 A 
ATOM     17  C   UNL     1       4.380   4.667  19.282  0.00  0.00    +0.000 A 
ATOM     18  F   UNL     1       5.274   5.668  19.331  0.00  0.00    +0.000 F 
ENDBRANCH   6  11
BRANCH   1  21
ATOM     19  C   UNL     1      -0.261  12.606  20.876  0.00  0.00    +0.000 C 
ATOM     20  O   UNL     1       0.673  13.222  20.367  0.00  0.00    +0.000 OA
ATOM     21  N   UNL     1      -0.435  11.227  20.755  0.00  0.00    +0.000 N 
ATOM     22  H   UNL     1      -1.315  10.868  21.110  0.00  0.00    +0.000 HD
BRANCH  19  28
ATOM     23  C   UNL     1       0.035  15.261  22.628  0.00  0.00    +0.000 C 
ATOM     24  C   UNL     1      -1.216  14.464  22.404  0.00  0.00    +0.000 A 
ATOM     25  C   UNL     1      -2.493  14.820  22.980  0.00  0.00    +0.000 A 
ATOM     26  C   UNL     1      -3.498  13.939  22.649  0.00  0.00    +0.000 A 
ATOM     27  S   UNL     1      -2.916  12.707  21.644  0.00  0.00    +0.000 S 
ATOM     28  C   UNL     1      -1.314  13.307  21.633  0.00  0.00    +0.000 A 
BRANCH  26  29
ATOM     29  N   UNL     1      -4.833  14.004  23.037  0.00  0.00    +0.000 N 
ATOM     30  C   UNL     1      -5.451  13.134  23.918  0.00  0.00    +0.000 C 
ATOM     31  O   UNL     1      -4.933  12.202  24.524  0.00  0.00    +0.000 OA
ATOM     32  H   UNL     1      -5.389  14.738  22.622  0.00  0.00    +0.000 HD
BRANCH  30  33
ATOM     33  C   UNL     1      -6.914  13.319  24.152  0.00  0.00    +0.000 C 
ATOM     34  C   UNL     1      -7.916  14.104  23.351  0.00  0.00    +0.000 C 
ATOM     35  C   UNL     1      -7.885  12.607  23.236  0.00  0.00    +0.000 C 
ENDBRANCH  30  33
ENDBRANCH  26  29
ENDBRANCH  19  28
ENDBRANCH   1  21
TORSDOF 5
ENDMDL
MODEL 7
REMARK VINA RESULT:      -8.1      5.344     11.997
REMARK  Name = 
REMARK  6 active torsions:
REMARK  status: ('A' for Active; 'I' for Inactive)
REMARK    1  A    between atoms: C_1  and  C_2
REMARK    2  A    between atoms: C_4  and  N_5
REMARK    3  A    between atoms: C_6  and  C_8
REMARK    4  A    between atoms: C_12  and  C_13
REMARK    5  A    between atoms: N_15  and  C_16
REMARK    6  A    between atoms: C_21  and  C_22
REMARK                            x       y       z     vdW  Elec       q    Type
REMARK                         _______ _______ _______ _____ _____    ______ ____
ROOT
ATOM      1  C   UNL     1       0.991   9.939  19.398  0.00  0.00    +0.000 A 
ATOM      2  C   UNL     1      -0.071  10.073  20.299  0.00  0.00    +0.000 A 
ATOM      3  C   UNL     1      -0.638  11.320  20.603  0.00  0.00    +0.000 A 
ATOM      4  C   UNL     1      -0.101  12.426  19.950  0.00  0.00    +0.000 A 
ATOM      5  N   UNL     1      -0.439  13.753  19.964  0.00  0.00    +0.000 N 
ATOM      6  C   UNL     1       0.384  14.434  19.095  0.00  0.00    +0.000 A 
ATOM      7  N   UNL     1       1.273  13.601  18.575  0.00  0.00    +0.000 NA
ATOM      8  C   UNL     1       0.972  12.350  19.076  0.00  0.00    +0.000 A 
ATOM      9  C   UNL     1       1.554  11.094  18.815  0.00  0.00    +0.000 A 
ATOM     10  H   UNL     1      -1.198  14.165  20.484  0.00  0.00    +0.000 HD
ENDROOT
BRANCH   6  11
ATOM     11  C   UNL     1       0.230  15.864  18.798  0.00  0.00    +0.000 A 
ATOM     12  C   UNL     1      -1.031  16.469  18.877  0.00  0.00    +0.000 A 
ATOM     13  C   UNL     1      -1.172  17.834  18.627  0.00  0.00    +0.000 A 
ATOM     14  F   UNL     1      -2.383  18.401  18.713  0.00  0.00    +0.000 F 
ATOM     15  C   UNL     1      -0.077  18.626  18.295  0.00  0.00    +0.000 A 
ATOM     16  C   UNL     1       1.183  18.041  18.207  0.00  0.00    +0.000 A 
ATOM     17  C   UNL     1       1.326  16.675  18.455  0.00  0.00    +0.000 A 
ATOM     18  F   UNL     1       2.558  16.149  18.367  0.00  0.00    +0.000 F 
ENDBRANCH   6  11
BRANCH   1  21
ATOM     19  C   UNL     1       1.923   7.639  19.869  0.00  0.00    +0.000 C 
ATOM     20  O   UNL     1       1.815   7.672  21.093  0.00  0.00    +0.000 OA
ATOM     21  N   UNL     1       1.533   8.683  19.030  0.00  0.00    +0.000 N 
ATOM     22  H   UNL     1       1.553   8.473  18.038  0.00  0.00    +0.000 HD
BRANCH  19  28
ATOM     23  C   UNL     1       1.352   4.577  20.577  0.00  0.00    +0.000 C 
ATOM     24  C   UNL     1       2.215   5.099  19.467  0.00  0.00    +0.000 A 
ATOM     25  C   UNL     1       2.921   4.239  18.544  0.00  0.00    +0.000 A 
ATOM     26  C   UNL     1       3.661   4.937  17.614  0.00  0.00    +0.000 A 
ATOM     27  S   UNL     1       3.494   6.607  17.840  0.00  0.00    +0.000 S 
ATOM     28  C   UNL     1       2.445   6.444  19.182  0.00  0.00    +0.000 A 
BRANCH  26  29
ATOM     29  N   UNL     1       4.442   4.406  16.593  0.00  0.00    +0.000 N 
ATOM     30  C   UNL     1       5.825   4.342  16.598  0.00  0.00    +0.000 C 
ATOM     31  O   UNL     1       6.579   4.700  17.496  0.00  0.00    +0.000 OA
ATOM     32  H   UNL     1       3.951   4.058  15.782  0.00  0.00    +0.000 HD
BRANCH  30  33
ATOM     33  C   UNL     1       6.491   3.805  15.374  0.00  0.00    +0.000 C 
ATOM     34  C   UNL     1       6.025   3.835  13.945  0.00  0.00    +0.000 C 
ATOM     35  C   UNL     1       7.096   4.787  14.394  0.00  0.00    +0.000 C 
ENDBRANCH  30  33
ENDBRANCH  26  29
ENDBRANCH  19  28
ENDBRANCH   1  21
TORSDOF 5
ENDMDL
MODEL 8
REMARK VINA RESULT:      -8.1      5.662     12.230
REMARK  Name = 
REMARK  6 active torsions:
REMARK  status: ('A' for Active; 'I' for Inactive)
REMARK    1  A    between atoms: C_1  and  C_2
REMARK    2  A    between atoms: C_4  and  N_5
REMARK    3  A    between atoms: C_6  and  C_8
REMARK    4  A    between atoms: C_12  and  C_13
REMARK    5  A    between atoms: N_15  and  C_16
REMARK    6  A    between atoms: C_21  and  C_22
REMARK                            x       y       z     vdW  Elec       q    Type
REMARK                         _______ _______ _______ _____ _____    ______ ____
ROOT
ATOM      1  C   UNL     1       2.713   7.182  18.984  0.00  0.00    +0.000 A 
ATOM      2  C   UNL     1       2.222   6.470  20.084  0.00  0.00    +0.000 A 
ATOM      3  C   UNL     1       1.277   7.017  20.965  0.00  0.00    +0.000 A 
ATOM      4  C   UNL     1       0.834   8.307  20.684  0.00  0.00    +0.000 A 
ATOM      5  N   UNL     1      -0.101   9.107  21.284  0.00  0.00    +0.000 N 
ATOM      6  C   UNL     1      -0.199  10.287  20.581  0.00  0.00    +0.000 A 
ATOM      7  N   UNL     1       0.683  10.294  19.593  0.00  0.00    +0.000 NA
ATOM      8  C   UNL     1       1.314   9.066  19.628  0.00  0.00    +0.000 A 
ATOM      9  C   UNL     1       2.293   8.514  18.779  0.00  0.00    +0.000 A 
ATOM     10  H   UNL     1      -0.668   8.860  22.081  0.00  0.00    +0.000 HD
ENDROOT
BRANCH   6  11
ATOM     11  C   UNL     1      -1.179  11.333  20.900  0.00  0.00    +0.000 A 
ATOM     12  C   UNL     1      -1.255  11.857  22.198  0.00  0.00    +0.000 A 
ATOM     13  C   UNL     1      -2.164  12.873  22.493  0.00  0.00    +0.000 A 
ATOM     14  F   UNL     1      -2.221  13.368  23.736  0.00  0.00    +0.000 F 
ATOM     15  C   UNL     1      -3.010  13.392  21.519  0.00  0.00    +0.000 A 
ATOM     16  C   UNL     1      -2.953  12.881  20.226  0.00  0.00    +0.000 A 
ATOM     17  C   UNL     1      -2.046  11.863  19.928  0.00  0.00    +0.000 A 
ATOM     18  F   UNL     1      -2.015  11.401  18.668  0.00  0.00    +0.000 F 
ENDBRANCH   6  11
BRANCH   1  21
ATOM     19  C   UNL     1       4.693   5.772  18.299  0.00  0.00    +0.000 C 
ATOM     20  O   UNL     1       4.987   5.359  19.419  0.00  0.00    +0.000 OA
ATOM     21  N   UNL     1       3.617   6.624  18.048  0.00  0.00    +0.000 N 
ATOM     22  H   UNL     1       3.406   6.779  17.068  0.00  0.00    +0.000 HD
BRANCH  19  28
ATOM     23  C   UNL     1       7.593   6.745  17.380  0.00  0.00    +0.000 C 
ATOM     24  C   UNL     1       6.712   5.754  16.681  0.00  0.00    +0.000 A 
ATOM     25  C   UNL     1       7.089   5.090  15.453  0.00  0.00    +0.000 A 
ATOM     26  C   UNL     1       6.121   4.230  14.985  0.00  0.00    +0.000 A 
ATOM     27  S   UNL     1       4.780   4.208  16.020  0.00  0.00    +0.000 S 
ATOM     28  C   UNL     1       5.449   5.347  17.107  0.00  0.00    +0.000 A 
BRANCH  26  29
ATOM     29  N   UNL     1       6.180   3.443  13.839  0.00  0.00    +0.000 N 
ATOM     30  C   UNL     1       6.774   3.816  12.646  0.00  0.00    +0.000 C 
ATOM     31  O   UNL     1       7.369   4.862  12.410  0.00  0.00    +0.000 OA
ATOM     32  H   UNL     1       5.735   2.538  13.889  0.00  0.00    +0.000 HD
BRANCH  30  33
ATOM     33  C   UNL     1       6.669   2.863  11.500  0.00  0.00    +0.000 C 
ATOM     34  C   UNL     1       6.629   1.360  11.511  0.00  0.00    +0.000 C 
ATOM     35  C   UNL     1       5.360   2.133  11.290  0.00  0.00    +0.000 C 
ENDBRANCH  30  33
ENDBRANCH  26  29
ENDBRANCH  19  28
ENDBRANCH   1  21
TORSDOF 5
ENDMDL
MODEL 9
REMARK VINA RESULT:      -8.0      2.332      2.644
REMARK  Name = 
REMARK  6 active torsions:
REMARK  status: ('A' for Active; 'I' for Inactive)
REMARK    1  A    between atoms: C_1  and  C_2
REMARK    2  A    between atoms: C_4  and  N_5
REMARK    3  A    between atoms: C_6  and  C_8
REMARK    4  A    between atoms: C_12  and  C_13
REMARK    5  A    between atoms: N_15  and  C_16
REMARK    6  A    between atoms: C_21  and  C_22
REMARK                            x       y       z     vdW  Elec       q    Type
REMARK                         _______ _______ _______ _____ _____    ______ ____
ROOT
ATOM      1  C   UNL     1       0.399   9.617  20.431  0.00  0.00    +0.000 A 
ATOM      2  C   UNL     1       0.505   8.637  21.425  0.00  0.00    +0.000 A 
ATOM      3  C   UNL     1       1.291   7.487  21.257  0.00  0.00    +0.000 A 
ATOM      4  C   UNL     1       1.978   7.370  20.052  0.00  0.00    +0.000 A 
ATOM      5  N   UNL     1       2.858   6.430  19.585  0.00  0.00    +0.000 N 
ATOM      6  C   UNL     1       3.296   6.808  18.336  0.00  0.00    +0.000 A 
ATOM      7  N   UNL     1       2.681   7.921  17.963  0.00  0.00    +0.000 NA
ATOM      8  C   UNL     1       1.879   8.294  19.024  0.00  0.00    +0.000 A 
ATOM      9  C   UNL     1       1.053   9.422  19.196  0.00  0.00    +0.000 A 
ATOM     10  H   UNL     1       3.178   5.617  20.089  0.00  0.00    +0.000 HD
ENDROOT
BRANCH   6  11
ATOM     11  C   UNL     1       4.322   6.071  17.588  0.00  0.00    +0.000 A 
ATOM     12  C   UNL     1       5.581   6.644  17.364  0.00  0.00    +0.000 A 
ATOM     13  C   UNL     1       6.566   5.931  16.681  0.00  0.00    +0.000 A 
ATOM     14  F   UNL     1       7.767   6.489  16.481  0.00  0.00    +0.000 F 
ATOM     15  C   UNL     1       6.331   4.643  16.209  0.00  0.00    +0.000 A 
ATOM     16  C   UNL     1       5.086   4.059  16.418  0.00  0.00    +0.000 A 
ATOM     17  C   UNL     1       4.097   4.772  17.099  0.00  0.00    +0.000 A 
ATOM     18  F   UNL     1       2.911   4.172  17.286  0.00  0.00    +0.000 F 
ENDBRANCH   6  11
BRANCH   1  21
ATOM     19  C   UNL     1       0.138  12.056  21.033  0.00  0.00    +0.000 C 
ATOM     20  O   UNL     1       1.318  12.281  21.295  0.00  0.00    +0.000 OA
ATOM     21  N   UNL     1      -0.336  10.814  20.608  0.00  0.00    +0.000 N 
ATOM     22  H   UNL     1      -1.302  10.801  20.299  0.00  0.00    +0.000 HD
BRANCH  19  28
ATOM     23  C   UNL     1      -0.223  14.548  19.068  0.00  0.00    +0.000 C 
ATOM     24  C   UNL     1      -1.059  14.220  20.269  0.00  0.00    +0.000 A 
ATOM     25  C   UNL     1      -2.178  15.028  20.699  0.00  0.00    +0.000 A 
ATOM     26  C   UNL     1      -2.792  14.542  21.831  0.00  0.00    +0.000 A 
ATOM     27  S   UNL     1      -2.041  13.120  22.363  0.00  0.00    +0.000 S 
ATOM     28  C   UNL     1      -0.877  13.122  21.109  0.00  0.00    +0.000 A 
BRANCH  26  29
ATOM     29  N   UNL     1      -3.893  15.083  22.487  0.00  0.00    +0.000 N 
ATOM     30  C   UNL     1      -5.213  14.897  22.117  0.00  0.00    +0.000 C 
ATOM     31  O   UNL     1      -5.632  14.209  21.192  0.00  0.00    +0.000 OA
ATOM     32  H   UNL     1      -3.699  15.671  23.285  0.00  0.00    +0.000 HD
BRANCH  30  33
ATOM     33  C   UNL     1      -6.255  15.624  22.901  0.00  0.00    +0.000 C 
ATOM     34  C   UNL     1      -7.753  15.547  22.799  0.00  0.00    +0.000 C 
ATOM     35  C   UNL     1      -7.051  14.852  23.930  0.00  0.00    +0.000 C 
ENDBRANCH  30  33
ENDBRANCH  26  29
ENDBRANCH  19  28
ENDBRANCH   1  21
TORSDOF 5
ENDMDL
