MODEL 1
REMARK VINA RESULT:      -9.8      0.000      0.000
REMARK  Name = 
REMARK  9 active torsions:
REMARK  status: ('A' for Active; 'I' for Inactive)
REMARK    1  A    between atoms: C_2  and  C_31
REMARK    2  A    between atoms: N_3  and  C_4
REMARK    3  A    between atoms: C_4  and  C_5
REMARK    4  A    between atoms: C_5  and  N_6
REMARK    5  A    between atoms: C_9  and  C_10
REMARK    6  A    between atoms: N_12  and  C_13
REMARK    7  A    between atoms: C_20  and  C_21
REMARK    8  A    between atoms: C_25  and  O_26
REMARK    9  A    between atoms: C_34  and  O_35
REMARK                            x       y       z     vdW  Elec       q    Type
REMARK                         _______ _______ _______ _____ _____    ______ ____
ROOT
ATOM      1  N   UNL     1       0.980   7.956  21.463  0.00  0.00    +0.000 N 
ATOM      2  C   UNL     1       1.487   8.132  20.162  0.00  0.00    +0.000 A 
ATOM      3  C   UNL     1       2.249   7.115  19.598  0.00  0.00    +0.000 A 
ATOM      4  C   UNL     1       2.745   7.262  18.299  0.00  0.00    +0.000 A 
ATOM      5  C   UNL     1       2.516   8.466  17.636  0.00  0.00    +0.000 A 
ATOM      6  C   UNL     1       1.764   9.432  18.269  0.00  0.00    +0.000 A 
ATOM      7  N   UNL     1       1.254   9.287  19.506  0.00  0.00    +0.000 NA
ATOM      8  H   UNL     1       0.769   6.977  21.633  0.00  0.00    +0.000 HD
ENDROOT
BRANCH   4   9
ATOM      9  C   UNL     1       3.479   6.186  17.648  0.00  0.00    +0.000 A 
ATOM     10  C   UNL     1       4.401   6.408  16.648  0.00  0.00    +0.000 A 
ATOM     11  N   UNL     1       4.816   5.182  16.189  0.00  0.00    +0.000 N 
ATOM     12  N   UNL     1       4.224   4.172  16.872  0.00  0.00    +0.000 NA
ATOM     13  C   UNL     1       3.443   4.763  17.791  0.00  0.00    +0.000 A 
BRANCH  11  14
ATOM     14  C   UNL     1       5.719   4.922  15.121  0.00  0.00    +0.000 A 
ATOM     15  C   UNL     1       6.969   5.554  15.057  0.00  0.00    +0.000 A 
ATOM     16  C   UNL     1       7.834   5.301  13.991  0.00  0.00    +0.000 A 
ATOM     17  C   UNL     1       7.458   4.419  12.980  0.00  0.00    +0.000 A 
ATOM     18  C   UNL     1       6.219   3.783  13.038  0.00  0.00    +0.000 A 
ATOM     19  C   UNL     1       5.353   4.025  14.107  0.00  0.00    +0.000 A 
ENDBRANCH  11  14
BRANCH  13  20
ATOM     20  C   UNL     1       2.675   3.956  18.746  0.00  0.00    +0.000 A 
ATOM     21  C   UNL     1       1.327   3.657  18.500  0.00  0.00    +0.000 A 
ATOM     22  C   UNL     1       0.567   2.964  19.449  0.00  0.00    +0.000 A 
ATOM     23  C   UNL     1       1.144   2.569  20.656  0.00  0.00    +0.000 A 
ATOM     24  C   UNL     1       2.486   2.846  20.890  0.00  0.00    +0.000 A 
ATOM     25  C   UNL     1       3.258   3.506  19.939  0.00  0.00    +0.000 A 
BRANCH  24  26
ATOM     26  O   UNL     1       3.090   2.503  22.064  0.00  0.00    +0.000 OA
ATOM     27  H   UNL     1       2.812   3.129  22.753  0.00  0.00    +0.000 HD
ENDBRANCH  24  26
ENDBRANCH  13  20
ENDBRANCH   4   9
BRANCH   1  28
ATOM     28  C   UNL     1      -0.200   8.790  21.738  0.00  0.00    +0.000 C 
BRANCH  28  29
ATOM     29  C   UNL     1      -0.036   9.573  23.053  0.00  0.00    +0.000 C 
BRANCH  29  32
ATOM     30  O   UNL     1      -0.113  12.247  22.168  0.00  0.00    +0.000 OA
ATOM     31  C   UNL     1      -1.039  11.810  22.844  0.00  0.00    +0.000 C 
ATOM     32  N   UNL     1      -1.105  10.513  23.293  0.00  0.00    +0.000 N 
ATOM     33  H   UNL     1      -1.970  10.150  23.671  0.00  0.00    +0.000 HD
BRANCH  31  34
ATOM     34  C   UNL     1      -2.189  12.674  23.205  0.00  0.00    +0.000 A 
ATOM     35  C   UNL     1      -3.267  12.101  23.890  0.00  0.00    +0.000 A 
ATOM     36  C   UNL     1      -4.361  12.887  24.251  0.00  0.00    +0.000 A 
ATOM     37  C   UNL     1      -4.374  14.239  23.913  0.00  0.00    +0.000 A 
ATOM     38  C   UNL     1      -3.318  14.814  23.215  0.00  0.00    +0.000 A 
ATOM     39  C   UNL     1      -2.223  14.031  22.852  0.00  0.00    +0.000 A 
BRANCH  37  40
ATOM     40  O   UNL     1      -5.420  15.044  24.248  0.00  0.00    +0.000 OA
ATOM     41  H   UNL     1      -5.577  14.967  25.203  0.00  0.00    +0.000 HD
ENDBRANCH  37  40
ENDBRANCH  31  34
ENDBRANCH  29  32
ENDBRANCH  28  29
ENDBRANCH   1  28
TORSDOF 9
ENDMDL
MODEL 2
REMARK VINA RESULT:      -9.7      0.147      1.126
REMARK  Name = 
REMARK  9 active torsions:
REMARK  status: ('A' for Active; 'I' for Inactive)
REMARK    1  A    between atoms: C_2  and  C_31
REMARK    2  A    between atoms: N_3  and  C_4
REMARK    3  A    between atoms: C_4  and  C_5
REMARK    4  A    between atoms: C_5  and  N_6
REMARK    5  A    between atoms: C_9  and  C_10
REMARK    6  A    between atoms: N_12  and  C_13
REMARK    7  A    between atoms: C_20  and  C_21
REMARK    8  A    between atoms: C_25  and  O_26
REMARK    9  A    between atoms: C_34  and  O_35
REMARK                            x       y       z     vdW  Elec       q    Type
REMARK                         _______ _______ _______ _____ _____    ______ ____
ROOT
ATOM      1  N   UNL     1       1.011   8.066  21.408  0.00  0.00    +0.000 N 
ATOM      2  C   UNL     1       1.497   8.214  20.096  0.00  0.00    +0.000 A 
ATOM      3  C   UNL     1       2.255   7.186  19.544  0.00  0.00    +0.000 A 
ATOM      4  C   UNL     1       2.730   7.305  18.234  0.00  0.00    +0.000 A 
ATOM      5  C   UNL     1       2.487   8.493  17.547  0.00  0.00    +0.000 A 
ATOM      6  C   UNL     1       1.741   9.470  18.170  0.00  0.00    +0.000 A 
ATOM      7  N   UNL     1       1.251   9.352  19.418  0.00  0.00    +0.000 NA
ATOM      8  H   UNL     1       0.806   7.090  21.604  0.00  0.00    +0.000 HD
ENDROOT
BRANCH   4   9
ATOM      9  C   UNL     1       3.458   6.218  17.597  0.00  0.00    +0.000 A 
ATOM     10  C   UNL     1       4.360   6.419  16.575  0.00  0.00    +0.000 A 
ATOM     11  N   UNL     1       4.773   5.184  16.139  0.00  0.00    +0.000 N 
ATOM     12  N   UNL     1       4.201   4.188  16.858  0.00  0.00    +0.000 NA
ATOM     13  C   UNL     1       3.434   4.798  17.777  0.00  0.00    +0.000 A 
BRANCH  11  14
ATOM     14  C   UNL     1       5.658   4.902  15.061  0.00  0.00    +0.000 A 
ATOM     15  C   UNL     1       5.290   4.027  14.028  0.00  0.00    +0.000 A 
ATOM     16  C   UNL     1       6.180   3.749  12.989  0.00  0.00    +0.000 A 
ATOM     17  C   UNL     1       7.443   4.336  12.974  0.00  0.00    +0.000 A 
ATOM     18  C   UNL     1       7.816   5.209  13.994  0.00  0.00    +0.000 A 
ATOM     19  C   UNL     1       6.927   5.499  15.032  0.00  0.00    +0.000 A 
ENDBRANCH  11  14
BRANCH  13  20
ATOM     20  C   UNL     1       2.688   4.011  18.766  0.00  0.00    +0.000 A 
ATOM     21  C   UNL     1       1.304   3.825  18.628  0.00  0.00    +0.000 A 
ATOM     22  C   UNL     1       0.575   3.151  19.614  0.00  0.00    +0.000 A 
ATOM     23  C   UNL     1       1.220   2.664  20.751  0.00  0.00    +0.000 A 
ATOM     24  C   UNL     1       2.594   2.829  20.877  0.00  0.00    +0.000 A 
ATOM     25  C   UNL     1       3.332   3.469  19.886  0.00  0.00    +0.000 A 
BRANCH  24  26
ATOM     26  O   UNL     1       3.267   2.393  21.981  0.00  0.00    +0.000 OA
ATOM     27  H   UNL     1       2.802   1.622  22.346  0.00  0.00    +0.000 HD
ENDBRANCH  24  26
ENDBRANCH  13  20
ENDBRANCH   4   9
BRANCH   1  28
ATOM     28  C   UNL     1      -0.168   8.902  21.683  0.00  0.00    +0.000 C 
BRANCH  28  29
ATOM     29  C   UNL     1      -0.039   9.621  23.038  0.00  0.00    +0.000 C 
BRANCH  29  32
ATOM     30  O   UNL     1      -0.133  12.317  22.224  0.00  0.00    +0.000 OA
ATOM     31  C   UNL     1      -1.059  11.854  22.882  0.00  0.00    +0.000 C 
ATOM     32  N   UNL     1      -1.118  10.546  23.296  0.00  0.00    +0.000 N 
ATOM     33  H   UNL     1      -1.982  10.165  23.658  0.00  0.00    +0.000 HD
BRANCH  31  34
ATOM     34  C   UNL     1      -2.218  12.699  23.259  0.00  0.00    +0.000 A 
ATOM     35  C   UNL     1      -2.083  14.091  23.188  0.00  0.00    +0.000 A 
ATOM     36  C   UNL     1      -3.156  14.914  23.528  0.00  0.00    +0.000 A 
ATOM     37  C   UNL     1      -4.354  14.339  23.948  0.00  0.00    +0.000 A 
ATOM     38  C   UNL     1      -4.493  12.959  24.042  0.00  0.00    +0.000 A 
ATOM     39  C   UNL     1      -3.422  12.133  23.703  0.00  0.00    +0.000 A 
BRANCH  37  40
ATOM     40  O   UNL     1      -5.428  15.104  24.286  0.00  0.00    +0.000 OA
ATOM     41  H   UNL     1      -5.131  15.810  24.882  0.00  0.00    +0.000 HD
ENDBRANCH  37  40
ENDBRANCH  31  34
ENDBRANCH  29  32
ENDBRANCH  28  29
ENDBRANCH   1  28
TORSDOF 9
ENDMDL
MODEL 3
REMARK VINA RESULT:      -9.4      0.760      1.094
REMARK  Name = 
REMARK  9 active torsions:
REMARK  status: ('A' for Active; 'I' for Inactive)
REMARK    1  A    between atoms: C_2  and  C_31
REMARK    2  A    between atoms: N_3  and  C_4
REMARK    3  A    between atoms: C_4  and  C_5
REMARK    4  A    between atoms: C_5  and  N_6
REMARK    5  A    between atoms: C_9  and  C_10
REMARK    6  A    between atoms: N_12  and  C_13
REMARK    7  A    between atoms: C_20  and  C_21
REMARK    8  A    between atoms: C_25  and  O_26
REMARK    9  A    between atoms: C_34  and  O_35
REMARK                            x       y       z     vdW  Elec       q    Type
REMARK                         _______ _______ _______ _____ _____    ______ ____
ROOT
ATOM      1  N   UNL     1       1.190   7.954  21.334  0.00  0.00    +0.000 N 
ATOM      2  C   UNL     1       1.675   8.107  20.022  0.00  0.00    +0.000 A 
ATOM      3  C   UNL     1       2.443   7.088  19.470  0.00  0.00    +0.000 A 
ATOM      4  C   UNL     1       2.917   7.212  18.160  0.00  0.00    +0.000 A 
ATOM      5  C   UNL     1       2.663   8.398  17.474  0.00  0.00    +0.000 A 
ATOM      6  C   UNL     1       1.908   9.368  18.097  0.00  0.00    +0.000 A 
ATOM      7  N   UNL     1       1.418   9.244  19.345  0.00  0.00    +0.000 NA
ATOM      8  H   UNL     1       0.994   6.976  21.529  0.00  0.00    +0.000 HD
ENDROOT
BRANCH   4   9
ATOM      9  C   UNL     1       3.656   6.132  17.522  0.00  0.00    +0.000 A 
ATOM     10  C   UNL     1       4.483   6.330  16.438  0.00  0.00    +0.000 A 
ATOM     11  N   UNL     1       4.927   5.096  16.028  0.00  0.00    +0.000 N 
ATOM     12  N   UNL     1       4.448   4.108  16.821  0.00  0.00    +0.000 NA
ATOM     13  C   UNL     1       3.711   4.722  17.761  0.00  0.00    +0.000 A 
BRANCH  11  14
ATOM     14  C   UNL     1       5.757   4.809  14.908  0.00  0.00    +0.000 A 
ATOM     15  C   UNL     1       6.975   5.476  14.716  0.00  0.00    +0.000 A 
ATOM     16  C   UNL     1       7.767   5.193  13.601  0.00  0.00    +0.000 A 
ATOM     17  C   UNL     1       7.347   4.247  12.668  0.00  0.00    +0.000 A 
ATOM     18  C   UNL     1       6.140   3.576  12.853  0.00  0.00    +0.000 A 
ATOM     19  C   UNL     1       5.348   3.848  13.972  0.00  0.00    +0.000 A 
ENDBRANCH  11  14
BRANCH  13  20
ATOM     20  C   UNL     1       3.065   3.946  18.826  0.00  0.00    +0.000 A 
ATOM     21  C   UNL     1       3.824   3.421  19.882  0.00  0.00    +0.000 A 
ATOM     22  C   UNL     1       3.228   2.606  20.851  0.00  0.00    +0.000 A 
ATOM     23  C   UNL     1       1.869   2.301  20.770  0.00  0.00    +0.000 A 
ATOM     24  C   UNL     1       1.112   2.840  19.736  0.00  0.00    +0.000 A 
ATOM     25  C   UNL     1       1.690   3.676  18.786  0.00  0.00    +0.000 A 
BRANCH  24  26
ATOM     26  O   UNL     1      -0.214   2.551  19.599  0.00  0.00    +0.000 OA
ATOM     27  H   UNL     1      -0.688   3.366  19.363  0.00  0.00    +0.000 HD
ENDBRANCH  24  26
ENDBRANCH  13  20
ENDBRANCH   4   9
BRANCH   1  28
ATOM     28  C   UNL     1       0.003   8.779  21.609  0.00  0.00    +0.000 C 
BRANCH  28  29
ATOM     29  C   UNL     1       0.264   9.768  22.758  0.00  0.00    +0.000 C 
BRANCH  29  32
ATOM     30  O   UNL     1       0.023  12.491  22.074  0.00  0.00    +0.000 OA
ATOM     31  C   UNL     1      -0.881  11.944  22.698  0.00  0.00    +0.000 C 
ATOM     32  N   UNL     1      -0.868  10.616  23.047  0.00  0.00    +0.000 N 
ATOM     33  H   UNL     1      -1.712  10.170  23.380  0.00  0.00    +0.000 HD
BRANCH  31  34
ATOM     34  C   UNL     1      -2.091  12.703  23.101  0.00  0.00    +0.000 A 
ATOM     35  C   UNL     1      -3.121  12.018  23.757  0.00  0.00    +0.000 A 
ATOM     36  C   UNL     1      -4.269  12.702  24.155  0.00  0.00    +0.000 A 
ATOM     37  C   UNL     1      -4.383  14.065  23.885  0.00  0.00    +0.000 A 
ATOM     38  C   UNL     1      -3.375  14.750  23.216  0.00  0.00    +0.000 A 
ATOM     39  C   UNL     1      -2.227  14.069  22.815  0.00  0.00    +0.000 A 
BRANCH  37  40
ATOM     40  O   UNL     1      -5.484  14.773  24.259  0.00  0.00    +0.000 OA
ATOM     41  H   UNL     1      -5.597  15.518  23.647  0.00  0.00    +0.000 HD
ENDBRANCH  37  40
ENDBRANCH  31  34
ENDBRANCH  29  32
ENDBRANCH  28  29
ENDBRANCH   1  28
TORSDOF 9
ENDMDL
MODEL 4
REMARK VINA RESULT:      -9.3      4.070     10.523
REMARK  Name = 
REMARK  9 active torsions:
REMARK  status: ('A' for Active; 'I' for Inactive)
REMARK    1  A    between atoms: C_2  and  C_31
REMARK    2  A    between atoms: N_3  and  C_4
REMARK    3  A    between atoms: C_4  and  C_5
REMARK    4  A    between atoms: C_5  and  N_6
REMARK    5  A    between atoms: C_9  and  C_10
REMARK    6  A    between atoms: N_12  and  C_13
REMARK    7  A    between atoms: C_20  and  C_21
REMARK    8  A    between atoms: C_25  and  O_26
REMARK    9  A    between atoms: C_34  and  O_35
REMARK                            x       y       z     vdW  Elec       q    Type
REMARK                         _______ _______ _______ _____ _____    ______ ____
ROOT
ATOM      1  N   UNL     1       2.309   6.823  20.253  0.00  0.00    +0.000 N 
ATOM      2  C   UNL     1       1.435   7.859  20.633  0.00  0.00    +0.000 A 
ATOM      3  C   UNL     1       1.470   9.056  19.925  0.00  0.00    +0.000 A 
ATOM      4  C   UNL     1       0.595  10.090  20.274  0.00  0.00    +0.000 A 
ATOM      5  C   UNL     1      -0.238   9.908  21.376  0.00  0.00    +0.000 A 
ATOM      6  C   UNL     1      -0.201   8.698  22.034  0.00  0.00    +0.000 A 
ATOM      7  N   UNL     1       0.613   7.684  21.686  0.00  0.00    +0.000 NA
ATOM      8  H   UNL     1       2.471   6.844  19.250  0.00  0.00    +0.000 HD
ENDROOT
BRANCH   4   9
ATOM      9  C   UNL     1       0.549  11.326  19.506  0.00  0.00    +0.000 A 
ATOM     10  C   UNL     1       1.602  12.213  19.453  0.00  0.00    +0.000 A 
ATOM     11  N   UNL     1       1.183  13.309  18.740  0.00  0.00    +0.000 N 
ATOM     12  N   UNL     1      -0.089  13.157  18.300  0.00  0.00    +0.000 NA
ATOM     13  C   UNL     1      -0.475  11.940  18.718  0.00  0.00    +0.000 A 
BRANCH  11  14
ATOM     14  C   UNL     1       1.917  14.501  18.480  0.00  0.00    +0.000 A 
ATOM     15  C   UNL     1       3.186  14.457  17.885  0.00  0.00    +0.000 A 
ATOM     16  C   UNL     1       3.898  15.636  17.656  0.00  0.00    +0.000 A 
ATOM     17  C   UNL     1       3.353  16.864  18.022  0.00  0.00    +0.000 A 
ATOM     18  C   UNL     1       2.091  16.918  18.611  0.00  0.00    +0.000 A 
ATOM     19  C   UNL     1       1.369  15.742  18.835  0.00  0.00    +0.000 A 
ENDBRANCH  11  14
BRANCH  13  20
ATOM     20  C   UNL     1      -1.806  11.423  18.378  0.00  0.00    +0.000 A 
ATOM     21  C   UNL     1      -1.941  10.214  17.680  0.00  0.00    +0.000 A 
ATOM     22  C   UNL     1      -3.202   9.762  17.277  0.00  0.00    +0.000 A 
ATOM     23  C   UNL     1      -4.340  10.517  17.560  0.00  0.00    +0.000 A 
ATOM     24  C   UNL     1      -4.209  11.704  18.272  0.00  0.00    +0.000 A 
ATOM     25  C   UNL     1      -2.962  12.145  18.704  0.00  0.00    +0.000 A 
BRANCH  24  26
ATOM     26  O   UNL     1      -5.287  12.491  18.551  0.00  0.00    +0.000 OA
ATOM     27  H   UNL     1      -5.224  12.791  19.473  0.00  0.00    +0.000 HD
ENDBRANCH  24  26
ENDBRANCH  13  20
ENDBRANCH   4   9
BRANCH   1  28
ATOM     28  C   UNL     1       1.840   5.492  20.670  0.00  0.00    +0.000 C 
BRANCH  28  29
ATOM     29  C   UNL     1       1.769   4.526  19.475  0.00  0.00    +0.000 C 
BRANCH  29  32
ATOM     30  O   UNL     1       4.199   3.102  19.389  0.00  0.00    +0.000 OA
ATOM     31  C   UNL     1       3.997   3.998  18.576  0.00  0.00    +0.000 C 
ATOM     32  N   UNL     1       2.832   4.724  18.518  0.00  0.00    +0.000 N 
ATOM     33  H   UNL     1       2.635   5.307  17.716  0.00  0.00    +0.000 HD
BRANCH  31  34
ATOM     34  C   UNL     1       5.019   4.342  17.557  0.00  0.00    +0.000 A 
ATOM     35  C   UNL     1       4.736   4.081  16.211  0.00  0.00    +0.000 A 
ATOM     36  C   UNL     1       5.672   4.399  15.227  0.00  0.00    +0.000 A 
ATOM     37  C   UNL     1       6.890   4.967  15.598  0.00  0.00    +0.000 A 
ATOM     38  C   UNL     1       7.189   5.212  16.934  0.00  0.00    +0.000 A 
ATOM     39  C   UNL     1       6.257   4.894  17.920  0.00  0.00    +0.000 A 
BRANCH  37  40
ATOM     40  O   UNL     1       7.831   5.296  14.671  0.00  0.00    +0.000 OA
ATOM     41  H   UNL     1       8.707   5.239  15.085  0.00  0.00    +0.000 HD
ENDBRANCH  37  40
ENDBRANCH  31  34
ENDBRANCH  29  32
ENDBRANCH  28  29
ENDBRANCH   1  28
TORSDOF 9
ENDMDL
MODEL 5
REMARK VINA RESULT:      -9.3      1.554      2.314
REMARK  Name = 
REMARK  9 active torsions:
REMARK  status: ('A' for Active; 'I' for Inactive)
REMARK    1  A    between atoms: C_2  and  C_31
REMARK    2  A    between atoms: N_3  and  C_4
REMARK    3  A    between atoms: C_4  and  C_5
REMARK    4  A    between atoms: C_5  and  N_6
REMARK    5  A    between atoms: C_9  and  C_10
REMARK    6  A    between atoms: N_12  and  C_13
REMARK    7  A    between atoms: C_20  and  C_21
REMARK    8  A    between atoms: C_25  and  O_26
REMARK    9  A    between atoms: C_34  and  O_35
REMARK                            x       y       z     vdW  Elec       q    Type
REMARK                         _______ _______ _______ _____ _____    ______ ____
ROOT
ATOM      1  N   UNL     1       1.568  10.629  17.762  0.00  0.00    +0.000 N 
ATOM      2  C   UNL     1       1.841   9.417  18.422  0.00  0.00    +0.000 A 
ATOM      3  C   UNL     1       2.456   8.392  17.710  0.00  0.00    +0.000 A 
ATOM      4  C   UNL     1       2.755   7.186  18.354  0.00  0.00    +0.000 A 
ATOM      5  C   UNL     1       2.356   7.027  19.679  0.00  0.00    +0.000 A 
ATOM      6  C   UNL     1       1.738   8.085  20.310  0.00  0.00    +0.000 A 
ATOM      7  N   UNL     1       1.476   9.261  19.710  0.00  0.00    +0.000 NA
ATOM      8  H   UNL     1       2.278  10.820  17.060  0.00  0.00    +0.000 HD
ENDROOT
BRANCH   4   9
ATOM      9  C   UNL     1       3.467   6.122  17.662  0.00  0.00    +0.000 A 
ATOM     10  C   UNL     1       4.338   6.358  16.621  0.00  0.00    +0.000 A 
ATOM     11  N   UNL     1       4.742   5.139  16.135  0.00  0.00    +0.000 N 
ATOM     12  N   UNL     1       4.195   4.119  16.840  0.00  0.00    +0.000 NA
ATOM     13  C   UNL     1       3.453   4.697  17.799  0.00  0.00    +0.000 A 
BRANCH  11  14
ATOM     14  C   UNL     1       5.596   4.894  15.023  0.00  0.00    +0.000 A 
ATOM     15  C   UNL     1       5.204   4.043  13.980  0.00  0.00    +0.000 A 
ATOM     16  C   UNL     1       6.064   3.801  12.907  0.00  0.00    +0.000 A 
ATOM     17  C   UNL     1       7.320   4.400  12.868  0.00  0.00    +0.000 A 
ATOM     18  C   UNL     1       7.717   5.250  13.899  0.00  0.00    +0.000 A 
ATOM     19  C   UNL     1       6.857   5.504  14.972  0.00  0.00    +0.000 A 
ENDBRANCH  11  14
BRANCH  13  20
ATOM     20  C   UNL     1       2.739   3.877  18.785  0.00  0.00    +0.000 A 
ATOM     21  C   UNL     1       1.358   3.664  18.665  0.00  0.00    +0.000 A 
ATOM     22  C   UNL     1       0.659   2.957  19.650  0.00  0.00    +0.000 A 
ATOM     23  C   UNL     1       1.331   2.464  20.768  0.00  0.00    +0.000 A 
ATOM     24  C   UNL     1       2.704   2.656  20.875  0.00  0.00    +0.000 A 
ATOM     25  C   UNL     1       3.412   3.329  19.886  0.00  0.00    +0.000 A 
BRANCH  24  26
ATOM     26  O   UNL     1       3.402   2.215  21.961  0.00  0.00    +0.000 OA
ATOM     27  H   UNL     1       2.773   1.986  22.665  0.00  0.00    +0.000 HD
ENDBRANCH  24  26
ENDBRANCH  13  20
ENDBRANCH   4   9
BRANCH   1  28
ATOM     28  C   UNL     1       1.438  11.769  18.683  0.00  0.00    +0.000 C 
BRANCH  28  29
ATOM     29  C   UNL     1       0.052  12.427  18.564  0.00  0.00    +0.000 C 
BRANCH  29  32
ATOM     30  O   UNL     1      -2.741  12.170  18.834  0.00  0.00    +0.000 OA
ATOM     31  C   UNL     1      -2.052  12.333  19.836  0.00  0.00    +0.000 C 
ATOM     32  N   UNL     1      -0.683  12.436  19.807  0.00  0.00    +0.000 N 
ATOM     33  H   UNL     1      -0.150  12.370  20.664  0.00  0.00    +0.000 HD
BRANCH  31  34
ATOM     34  C   UNL     1      -2.673  12.404  21.181  0.00  0.00    +0.000 A 
ATOM     35  C   UNL     1      -1.916  12.008  22.289  0.00  0.00    +0.000 A 
ATOM     36  C   UNL     1      -2.468  12.069  23.568  0.00  0.00    +0.000 A 
ATOM     37  C   UNL     1      -3.778  12.516  23.729  0.00  0.00    +0.000 A 
ATOM     38  C   UNL     1      -4.546  12.893  22.633  0.00  0.00    +0.000 A 
ATOM     39  C   UNL     1      -3.998  12.832  21.353  0.00  0.00    +0.000 A 
BRANCH  37  40
ATOM     40  O   UNL     1      -4.355  12.595  24.959  0.00  0.00    +0.000 OA
ATOM     41  H   UNL     1      -5.134  12.017  24.974  0.00  0.00    +0.000 HD
ENDBRANCH  37  40
ENDBRANCH  31  34
ENDBRANCH  29  32
ENDBRANCH  28  29
ENDBRANCH   1  28
TORSDOF 9
ENDMDL
MODEL 6
REMARK VINA RESULT:      -9.2      2.758      3.311
REMARK  Name = 
REMARK  9 active torsions:
REMARK  status: ('A' for Active; 'I' for Inactive)
REMARK    1  A    between atoms: C_2  and  C_31
REMARK    2  A    between atoms: N_3  and  C_4
REMARK    3  A    between atoms: C_4  and  C_5
REMARK    4  A    between atoms: C_5  and  N_6
REMARK    5  A    between atoms: C_9  and  C_10
REMARK    6  A    between atoms: N_12  and  C_13
REMARK    7  A    between atoms: C_20  and  C_21
REMARK    8  A    between atoms: C_25  and  O_26
REMARK    9  A    between atoms: C_34  and  O_35
REMARK                            x       y       z     vdW  Elec       q    Type
REMARK                         _______ _______ _______ _____ _____    ______ ____
ROOT
ATOM      1  N   UNL     1       1.931  10.810  17.857  0.00  0.00    +0.000 N 
ATOM      2  C   UNL     1       2.035   9.546  18.466  0.00  0.00    +0.000 A 
ATOM      3  C   UNL     1       2.640   8.512  17.761  0.00  0.00    +0.000 A 
ATOM      4  C   UNL     1       2.772   7.253  18.357  0.00  0.00    +0.000 A 
ATOM      5  C   UNL     1       2.220   7.059  19.622  0.00  0.00    +0.000 A 
ATOM      6  C   UNL     1       1.623   8.131  20.248  0.00  0.00    +0.000 A 
ATOM      7  N   UNL     1       1.520   9.355  19.698  0.00  0.00    +0.000 NA
ATOM      8  H   UNL     1       2.725  10.977  17.245  0.00  0.00    +0.000 HD
ENDROOT
BRANCH   4   9
ATOM      9  C   UNL     1       3.469   6.170  17.679  0.00  0.00    +0.000 A 
ATOM     10  C   UNL     1       4.391   6.384  16.678  0.00  0.00    +0.000 A 
ATOM     11  N   UNL     1       4.765   5.156  16.191  0.00  0.00    +0.000 N 
ATOM     12  N   UNL     1       4.149   4.150  16.858  0.00  0.00    +0.000 NA
ATOM     13  C   UNL     1       3.392   4.745  17.794  0.00  0.00    +0.000 A 
BRANCH  11  14
ATOM     14  C   UNL     1       5.654   4.891  15.111  0.00  0.00    +0.000 A 
ATOM     15  C   UNL     1       6.924   5.482  15.054  0.00  0.00    +0.000 A 
ATOM     16  C   UNL     1       7.774   5.225  13.977  0.00  0.00    +0.000 A 
ATOM     17  C   UNL     1       7.363   4.380  12.948  0.00  0.00    +0.000 A 
ATOM     18  C   UNL     1       6.103   3.785  12.999  0.00  0.00    +0.000 A 
ATOM     19  C   UNL     1       5.252   4.031  14.079  0.00  0.00    +0.000 A 
ENDBRANCH  11  14
BRANCH  13  20
ATOM     20  C   UNL     1       2.606   3.942  18.738  0.00  0.00    +0.000 A 
ATOM     21  C   UNL     1       1.435   3.295  18.317  0.00  0.00    +0.000 A 
ATOM     22  C   UNL     1       0.636   2.601  19.232  0.00  0.00    +0.000 A 
ATOM     23  C   UNL     1       0.994   2.555  20.580  0.00  0.00    +0.000 A 
ATOM     24  C   UNL     1       2.166   3.178  20.993  0.00  0.00    +0.000 A 
ATOM     25  C   UNL     1       2.983   3.842  20.084  0.00  0.00    +0.000 A 
BRANCH  24  26
ATOM     26  O   UNL     1       2.546   3.183  22.303  0.00  0.00    +0.000 OA
ATOM     27  H   UNL     1       1.772   2.982  22.854  0.00  0.00    +0.000 HD
ENDBRANCH  24  26
ENDBRANCH  13  20
ENDBRANCH   4   9
BRANCH   1  28
ATOM     28  C   UNL     1       1.791  11.907  18.827  0.00  0.00    +0.000 C 
BRANCH  28  29
ATOM     29  C   UNL     1       0.932  13.050  18.259  0.00  0.00    +0.000 C 
BRANCH  29  32
ATOM     30  O   UNL     1      -0.981  12.708  20.299  0.00  0.00    +0.000 OA
ATOM     31  C   UNL     1      -1.303  12.510  19.132  0.00  0.00    +0.000 C 
ATOM     32  N   UNL     1      -0.451  12.682  18.069  0.00  0.00    +0.000 N 
ATOM     33  H   UNL     1      -0.813  12.701  17.125  0.00  0.00    +0.000 HD
BRANCH  31  34
ATOM     34  C   UNL     1      -2.682  12.086  18.788  0.00  0.00    +0.000 A 
ATOM     35  C   UNL     1      -3.734  12.491  19.619  0.00  0.00    +0.000 A 
ATOM     36  C   UNL     1      -5.043  12.116  19.320  0.00  0.00    +0.000 A 
ATOM     37  C   UNL     1      -5.290  11.329  18.197  0.00  0.00    +0.000 A 
ATOM     38  C   UNL     1      -4.252  10.903  17.377  0.00  0.00    +0.000 A 
ATOM     39  C   UNL     1      -2.942  11.275  17.673  0.00  0.00    +0.000 A 
BRANCH  37  40
ATOM     40  O   UNL     1      -6.553  10.942  17.866  0.00  0.00    +0.000 OA
ATOM     41  H   UNL     1      -6.538  10.568  16.970  0.00  0.00    +0.000 HD
ENDBRANCH  37  40
ENDBRANCH  31  34
ENDBRANCH  29  32
ENDBRANCH  28  29
ENDBRANCH   1  28
TORSDOF 9
ENDMDL
MODEL 7
REMARK VINA RESULT:      -9.2      3.991      5.787
REMARK  Name = 
REMARK  9 active torsions:
REMARK  status: ('A' for Active; 'I' for Inactive)
REMARK    1  A    between atoms: C_2  and  C_31
REMARK    2  A    between atoms: N_3  and  C_4
REMARK    3  A    between atoms: C_4  and  C_5
REMARK    4  A    between atoms: C_5  and  N_6
REMARK    5  A    between atoms: C_9  and  C_10
REMARK    6  A    between atoms: N_12  and  C_13
REMARK    7  A    between atoms: C_20  and  C_21
REMARK    8  A    between atoms: C_25  and  O_26
REMARK    9  A    between atoms: C_34  and  O_35
REMARK                            x       y       z     vdW  Elec       q    Type
REMARK                         _______ _______ _______ _____ _____    ______ ____
ROOT
ATOM      1  N   UNL     1       1.835  10.613  17.764  0.00  0.00    +0.000 N 
ATOM      2  C   UNL     1       2.030   9.366  18.384  0.00  0.00    +0.000 A 
ATOM      3  C   UNL     1       2.630   8.343  17.657  0.00  0.00    +0.000 A 
ATOM      4  C   UNL     1       2.851   7.102  18.263  0.00  0.00    +0.000 A 
ATOM      5  C   UNL     1       2.393   6.910  19.564  0.00  0.00    +0.000 A 
ATOM      6  C   UNL     1       1.794   7.969  20.212  0.00  0.00    +0.000 A 
ATOM      7  N   UNL     1       1.606   9.178  19.650  0.00  0.00    +0.000 NA
ATOM      8  H   UNL     1       2.580  10.800  17.098  0.00  0.00    +0.000 HD
ENDROOT
BRANCH   4   9
ATOM      9  C   UNL     1       3.546   6.035  17.557  0.00  0.00    +0.000 A 
ATOM     10  C   UNL     1       4.454   6.273  16.548  0.00  0.00    +0.000 A 
ATOM     11  N   UNL     1       4.829   5.055  16.036  0.00  0.00    +0.000 N 
ATOM     12  N   UNL     1       4.227   4.034  16.692  0.00  0.00    +0.000 NA
ATOM     13  C   UNL     1       3.479   4.608  17.648  0.00  0.00    +0.000 A 
BRANCH  11  14
ATOM     14  C   UNL     1       5.706   4.814  14.940  0.00  0.00    +0.000 A 
ATOM     15  C   UNL     1       6.929   5.490  14.827  0.00  0.00    +0.000 A 
ATOM     16  C   UNL     1       7.766   5.254  13.735  0.00  0.00    +0.000 A 
ATOM     17  C   UNL     1       7.389   4.347  12.748  0.00  0.00    +0.000 A 
ATOM     18  C   UNL     1       6.176   3.668  12.854  0.00  0.00    +0.000 A 
ATOM     19  C   UNL     1       5.338   3.893  13.950  0.00  0.00    +0.000 A 
ENDBRANCH  11  14
BRANCH  13  20
ATOM     20  C   UNL     1       2.709   3.784  18.588  0.00  0.00    +0.000 A 
ATOM     21  C   UNL     1       1.402   3.384  18.276  0.00  0.00    +0.000 A 
ATOM     22  C   UNL     1       0.634   2.674  19.205  0.00  0.00    +0.000 A 
ATOM     23  C   UNL     1       1.161   2.363  20.458  0.00  0.00    +0.000 A 
ATOM     24  C   UNL     1       2.465   2.740  20.759  0.00  0.00    +0.000 A 
ATOM     25  C   UNL     1       3.247   3.418  19.830  0.00  0.00    +0.000 A 
BRANCH  24  26
ATOM     26  O   UNL     1       3.017   2.483  21.979  0.00  0.00    +0.000 OA
ATOM     27  H   UNL     1       2.482   1.808  22.429  0.00  0.00    +0.000 HD
ENDBRANCH  24  26
ENDBRANCH  13  20
ENDBRANCH   4   9
BRANCH   1  28
ATOM     28  C   UNL     1       1.715  11.722  18.723  0.00  0.00    +0.000 C 
BRANCH  28  29
ATOM     29  C   UNL     1       1.820  13.085  18.018  0.00  0.00    +0.000 C 
BRANCH  29  32
ATOM     30  O   UNL     1       2.585  15.586  19.067  0.00  0.00    +0.000 OA
ATOM     31  C   UNL     1       3.429  14.874  18.532  0.00  0.00    +0.000 C 
ATOM     32  N   UNL     1       3.158  13.627  18.022  0.00  0.00    +0.000 N 
ATOM     33  H   UNL     1       3.915  13.004  17.775  0.00  0.00    +0.000 HD
BRANCH  31  34
ATOM     34  C   UNL     1       4.840  15.318  18.427  0.00  0.00    +0.000 A 
ATOM     35  C   UNL     1       5.773  14.448  17.849  0.00  0.00    +0.000 A 
ATOM     36  C   UNL     1       7.107  14.838  17.728  0.00  0.00    +0.000 A 
ATOM     37  C   UNL     1       7.500  16.090  18.196  0.00  0.00    +0.000 A 
ATOM     38  C   UNL     1       6.586  16.953  18.790  0.00  0.00    +0.000 A 
ATOM     39  C   UNL     1       5.252  16.567  18.914  0.00  0.00    +0.000 A 
BRANCH  37  40
ATOM     40  O   UNL     1       8.791  16.513  18.095  0.00  0.00    +0.000 OA
ATOM     41  H   UNL     1       9.310  15.821  17.655  0.00  0.00    +0.000 HD
ENDBRANCH  37  40
ENDBRANCH  31  34
ENDBRANCH  29  32
ENDBRANCH  28  29
ENDBRANCH   1  28
TORSDOF 9
ENDMDL
MODEL 8
REMARK VINA RESULT:      -9.1      3.153      4.494
REMARK  Name = 
REMARK  9 active torsions:
REMARK  status: ('A' for Active; 'I' for Inactive)
REMARK    1  A    between atoms: C_2  and  C_31
REMARK    2  A    between atoms: N_3  and  C_4
REMARK    3  A    between atoms: C_4  and  C_5
REMARK    4  A    between atoms: C_5  and  N_6
REMARK    5  A    between atoms: C_9  and  C_10
REMARK    6  A    between atoms: N_12  and  C_13
REMARK    7  A    between atoms: C_20  and  C_21
REMARK    8  A    between atoms: C_25  and  O_26
REMARK    9  A    between atoms: C_34  and  O_35
REMARK                            x       y       z     vdW  Elec       q    Type
REMARK                         _______ _______ _______ _____ _____    ______ ____
ROOT
ATOM      1  N   UNL     1       1.802  10.713  17.983  0.00  0.00    +0.000 N 
ATOM      2  C   UNL     1       1.999   9.463  18.598  0.00  0.00    +0.000 A 
ATOM      3  C   UNL     1       2.561   8.433  17.852  0.00  0.00    +0.000 A 
ATOM      4  C   UNL     1       2.785   7.189  18.451  0.00  0.00    +0.000 A 
ATOM      5  C   UNL     1       2.365   7.003  19.766  0.00  0.00    +0.000 A 
ATOM      6  C   UNL     1       1.802   8.070  20.432  0.00  0.00    +0.000 A 
ATOM      7  N   UNL     1       1.613   9.281  19.876  0.00  0.00    +0.000 NA
ATOM      8  H   UNL     1       2.528  10.890  17.293  0.00  0.00    +0.000 HD
ENDROOT
BRANCH   4   9
ATOM      9  C   UNL     1       3.442   6.112  17.724  0.00  0.00    +0.000 A 
ATOM     10  C   UNL     1       4.343   6.337  16.706  0.00  0.00    +0.000 A 
ATOM     11  N   UNL     1       4.680   5.116  16.175  0.00  0.00    +0.000 N 
ATOM     12  N   UNL     1       4.059   4.104  16.827  0.00  0.00    +0.000 NA
ATOM     13  C   UNL     1       3.338   4.686  17.799  0.00  0.00    +0.000 A 
BRANCH  11  14
ATOM     14  C   UNL     1       5.536   4.866  15.066  0.00  0.00    +0.000 A 
ATOM     15  C   UNL     1       5.140   4.021  14.019  0.00  0.00    +0.000 A 
ATOM     16  C   UNL     1       6.001   3.773  12.948  0.00  0.00    +0.000 A 
ATOM     17  C   UNL     1       7.263   4.361  12.917  0.00  0.00    +0.000 A 
ATOM     18  C   UNL     1       7.664   5.204  13.951  0.00  0.00    +0.000 A 
ATOM     19  C   UNL     1       6.803   5.464  15.020  0.00  0.00    +0.000 A 
ENDBRANCH  11  14
BRANCH  13  20
ATOM     20  C   UNL     1       2.558   3.872  18.739  0.00  0.00    +0.000 A 
ATOM     21  C   UNL     1       1.213   3.576  18.476  0.00  0.00    +0.000 A 
ATOM     22  C   UNL     1       0.442   2.875  19.410  0.00  0.00    +0.000 A 
ATOM     23  C   UNL     1       1.006   2.470  20.620  0.00  0.00    +0.000 A 
ATOM     24  C   UNL     1       2.345   2.743  20.871  0.00  0.00    +0.000 A 
ATOM     25  C   UNL     1       3.128   3.411  19.934  0.00  0.00    +0.000 A 
BRANCH  24  26
ATOM     26  O   UNL     1       2.936   2.391  22.048  0.00  0.00    +0.000 OA
ATOM     27  H   UNL     1       2.877   1.426  22.151  0.00  0.00    +0.000 HD
ENDBRANCH  24  26
ENDBRANCH  13  20
ENDBRANCH   4   9
BRANCH   1  28
ATOM     28  C   UNL     1       1.728  11.823  18.945  0.00  0.00    +0.000 C 
BRANCH  28  29
ATOM     29  C   UNL     1       0.295  12.374  19.054  0.00  0.00    +0.000 C 
BRANCH  29  32
ATOM     30  O   UNL     1      -2.209  11.116  19.350  0.00  0.00    +0.000 OA
ATOM     31  C   UNL     1      -1.759  11.305  18.224  0.00  0.00    +0.000 C 
ATOM     32  N   UNL     1      -0.565  11.938  17.979  0.00  0.00    +0.000 N 
ATOM     33  H   UNL     1      -0.335  12.245  17.044  0.00  0.00    +0.000 HD
BRANCH  31  34
ATOM     34  C   UNL     1      -2.514  10.872  17.023  0.00  0.00    +0.000 A 
ATOM     35  C   UNL     1      -3.753  11.469  16.760  0.00  0.00    +0.000 A 
ATOM     36  C   UNL     1      -4.485  11.091  15.636  0.00  0.00    +0.000 A 
ATOM     37  C   UNL     1      -3.978  10.108  14.787  0.00  0.00    +0.000 A 
ATOM     38  C   UNL     1      -2.759   9.494  15.050  0.00  0.00    +0.000 A 
ATOM     39  C   UNL     1      -2.025   9.869  16.173  0.00  0.00    +0.000 A 
BRANCH  37  40
ATOM     40  O   UNL     1      -4.658   9.710  13.676  0.00  0.00    +0.000 OA
ATOM     41  H   UNL     1      -5.552   9.440  13.940  0.00  0.00    +0.000 HD
ENDBRANCH  37  40
ENDBRANCH  31  34
ENDBRANCH  29  32
ENDBRANCH  28  29
ENDBRANCH   1  28
TORSDOF 9
ENDMDL
MODEL 9
REMARK VINA RESULT:      -9.0      4.174     10.510
REMARK  Name = 
REMARK  9 active torsions:
REMARK  status: ('A' for Active; 'I' for Inactive)
REMARK    1  A    between atoms: C_2  and  C_31
REMARK    2  A    between atoms: N_3  and  C_4
REMARK    3  A    between atoms: C_4  and  C_5
REMARK    4  A    between atoms: C_5  and  N_6
REMARK    5  A    between atoms: C_9  and  C_10
REMARK    6  A    between atoms: N_12  and  C_13
REMARK    7  A    between atoms: C_20  and  C_21
REMARK    8  A    between atoms: C_25  and  O_26
REMARK    9  A    between atoms: C_34  and  O_35
REMARK                            x       y       z     vdW  Elec       q    Type
REMARK                         _______ _______ _______ _____ _____    ______ ____
ROOT
ATOM      1  N   UNL     1       2.129   6.887  20.274  0.00  0.00    +0.000 N 
ATOM      2  C   UNL     1       1.266   7.941  20.625  0.00  0.00    +0.000 A 
ATOM      3  C   UNL     1       1.389   9.156  19.958  0.00  0.00    +0.000 A 
ATOM      4  C   UNL     1       0.527  10.210  20.278  0.00  0.00    +0.000 A 
ATOM      5  C   UNL     1      -0.386  10.027  21.314  0.00  0.00    +0.000 A 
ATOM      6  C   UNL     1      -0.435   8.798  21.936  0.00  0.00    +0.000 A 
ATOM      7  N   UNL     1       0.367   7.766  21.614  0.00  0.00    +0.000 NA
ATOM      8  H   UNL     1       2.361   6.930  19.285  0.00  0.00    +0.000 HD
ENDROOT
BRANCH   4   9
ATOM      9  C   UNL     1       0.576  11.468  19.547  0.00  0.00    +0.000 A 
ATOM     10  C   UNL     1       1.663  12.314  19.586  0.00  0.00    +0.000 A 
ATOM     11  N   UNL     1       1.330  13.446  18.882  0.00  0.00    +0.000 N 
ATOM     12  N   UNL     1       0.083  13.356  18.360  0.00  0.00    +0.000 NA
ATOM     13  C   UNL     1      -0.373  12.144  18.716  0.00  0.00    +0.000 A 
BRANCH  11  14
ATOM     14  C   UNL     1       2.123  14.615  18.704  0.00  0.00    +0.000 A 
ATOM     15  C   UNL     1       1.877  15.779  19.446  0.00  0.00    +0.000 A 
ATOM     16  C   UNL     1       2.654  16.921  19.244  0.00  0.00    +0.000 A 
ATOM     17  C   UNL     1       3.677  16.912  18.300  0.00  0.00    +0.000 A 
ATOM     18  C   UNL     1       3.932  15.758  17.560  0.00  0.00    +0.000 A 
ATOM     19  C   UNL     1       3.164  14.609  17.765  0.00  0.00    +0.000 A 
ENDBRANCH  11  14
BRANCH  13  20
ATOM     20  C   UNL     1      -1.699  11.689  18.280  0.00  0.00    +0.000 A 
ATOM     21  C   UNL     1      -2.850  12.081  18.979  0.00  0.00    +0.000 A 
ATOM     22  C   UNL     1      -4.106  11.579  18.621  0.00  0.00    +0.000 A 
ATOM     23  C   UNL     1      -4.223  10.675  17.565  0.00  0.00    +0.000 A 
ATOM     24  C   UNL     1      -3.085  10.304  16.858  0.00  0.00    +0.000 A 
ATOM     25  C   UNL     1      -1.837  10.823  17.187  0.00  0.00    +0.000 A 
BRANCH  24  26
ATOM     26  O   UNL     1      -3.144   9.404  15.835  0.00  0.00    +0.000 OA
ATOM     27  H   UNL     1      -4.060   9.356  15.513  0.00  0.00    +0.000 HD
ENDBRANCH  24  26
ENDBRANCH  13  20
ENDBRANCH   4   9
BRANCH   1  28
ATOM     28  C   UNL     1       1.588   5.562  20.617  0.00  0.00    +0.000 C 
BRANCH  28  29
ATOM     29  C   UNL     1       2.641   4.459  20.414  0.00  0.00    +0.000 C 
BRANCH  29  32
ATOM     30  O   UNL     1       4.974   3.016  19.768  0.00  0.00    +0.000 OA
ATOM     31  C   UNL     1       4.616   3.938  19.042  0.00  0.00    +0.000 C 
ATOM     32  N   UNL     1       3.478   4.677  19.257  0.00  0.00    +0.000 N 
ATOM     33  H   UNL     1       3.122   5.285  18.533  0.00  0.00    +0.000 HD
BRANCH  31  34
ATOM     34  C   UNL     1       5.401   4.305  17.838  0.00  0.00    +0.000 A 
ATOM     35  C   UNL     1       4.741   4.371  16.605  0.00  0.00    +0.000 A 
ATOM     36  C   UNL     1       5.448   4.720  15.454  0.00  0.00    +0.000 A 
ATOM     37  C   UNL     1       6.813   4.988  15.543  0.00  0.00    +0.000 A 
ATOM     38  C   UNL     1       7.482   4.904  16.759  0.00  0.00    +0.000 A 
ATOM     39  C   UNL     1       6.779   4.555  17.911  0.00  0.00    +0.000 A 
BRANCH  37  40
ATOM     40  O   UNL     1       7.541   5.334  14.446  0.00  0.00    +0.000 OA
ATOM     41  H   UNL     1       6.947   5.741  13.796  0.00  0.00    +0.000 HD
ENDBRANCH  37  40
ENDBRANCH  31  34
ENDBRANCH  29  32
ENDBRANCH  28  29
ENDBRANCH   1  28
TORSDOF 9
ENDMDL
