MODEL 1
REMARK VINA RESULT:      -7.8      0.000      0.000
REMARK  Name = 
REMARK  5 active torsions:
REMARK  status: ('A' for Active; 'I' for Inactive)
REMARK    1  A    between atoms: C_1  and  S_2
REMARK    2  A    between atoms: S_2  and  C_3
REMARK    3  A    between atoms: N_5  and  C_6
REMARK    4  A    between atoms: C_9  and  N_10
REMARK    5  A    between atoms: C_17  and  C_18
REMARK                            x       y       z     vdW  Elec       q    Type
REMARK                         _______ _______ _______ _____ _____    ______ ____
ROOT
ATOM      1  C   UNL     1       2.176   4.411  20.203  0.00  0.00    +0.000 A 
ATOM      2  N   UNL     1       2.861   4.024  19.132  0.00  0.00    +0.000 NA
ATOM      3  N   UNL     1       3.197   5.180  18.512  0.00  0.00    +0.000 N 
ATOM      4  C   UNL     1       2.576   6.284  19.083  0.00  0.00    +0.000 A 
ATOM      5  C   UNL     1       2.467   7.629  18.684  0.00  0.00    +0.000 A 
ATOM      6  C   UNL     1       1.705   8.499  19.476  0.00  0.00    +0.000 A 
ATOM      7  C   UNL     1       1.105   8.043  20.652  0.00  0.00    +0.000 A 
ATOM      8  C   UNL     1       1.210   6.701  21.037  0.00  0.00    +0.000 A 
ATOM      9  C   UNL     1       1.928   5.801  20.219  0.00  0.00    +0.000 A 
ENDROOT
BRANCH   6  10
ATOM     10  C   UNL     1       1.516   9.884  19.034  0.00  0.00    +0.000 C 
ATOM     11  C   UNL     1       2.378  10.476  18.192  0.00  0.00    +0.000 C 
ATOM     12  C   UNL     1       2.207  11.891  17.716  0.00  0.00    +0.000 C 
ATOM     13  N   UNL     1       0.892  12.470  18.010  0.00  0.00    +0.000 NA
ATOM     14  C   UNL     1       0.474  12.142  19.378  0.00  0.00    +0.000 C 
ATOM     15  C   UNL     1       0.323  10.626  19.578  0.00  0.00    +0.000 C 
ATOM     16  H   UNL     1       0.217  12.070  17.359  0.00  0.00    +0.000 HD
ENDBRANCH   6  10
BRANCH   3  17
ATOM     17  C   UNL     1       4.089   5.135  17.405  0.00  0.00    +0.000 A 
ATOM     18  C   UNL     1       4.525   3.885  16.936  0.00  0.00    +0.000 A 
ATOM     19  C   UNL     1       5.407   3.807  15.857  0.00  0.00    +0.000 A 
ATOM     20  C   UNL     1       5.887   4.986  15.272  0.00  0.00    +0.000 A 
ATOM     21  C   UNL     1       5.477   6.238  15.751  0.00  0.00    +0.000 A 
ATOM     22  C   UNL     1       4.570   6.312  16.815  0.00  0.00    +0.000 A 
BRANCH  20  23
ATOM     23  N   UNL     1       6.843   4.910  14.160  0.00  0.00    +0.000 N 
ATOM     24  O   UNL     1       6.573   4.149  13.220  0.00  0.00    +0.000 OA
ATOM     25  O   UNL     1       7.863   5.610  14.229  0.00  0.00    +0.000 OA
ENDBRANCH  20  23
ENDBRANCH   3  17
BRANCH   1  27
ATOM     26  C   UNL     1       3.014   2.136  21.507  0.00  0.00    +0.000 C 
ATOM     27  S   UNL     1       1.606   3.266  21.396  0.00  0.00    +0.000 S 
ENDBRANCH   1  27
TORSDOF 4
ENDMDL
MODEL 2
REMARK VINA RESULT:      -7.8      1.153      1.456
REMARK  Name = 
REMARK  5 active torsions:
REMARK  status: ('A' for Active; 'I' for Inactive)
REMARK    1  A    between atoms: C_1  and  S_2
REMARK    2  A    between atoms: S_2  and  C_3
REMARK    3  A    between atoms: N_5  and  C_6
REMARK    4  A    between atoms: C_9  and  N_10
REMARK    5  A    between atoms: C_17  and  C_18
REMARK                            x       y       z     vdW  Elec       q    Type
REMARK                         _______ _______ _______ _____ _____    ______ ____
ROOT
ATOM      1  C   UNL     1       3.461   3.490  19.838  0.00  0.00    +0.000 A 
ATOM      2  N   UNL     1       4.149   3.300  18.716  0.00  0.00    +0.000 NA
ATOM      3  N   UNL     1       4.238   4.533  18.163  0.00  0.00    +0.000 N 
ATOM      4  C   UNL     1       3.459   5.469  18.833  0.00  0.00    +0.000 A 
ATOM      5  C   UNL     1       3.089   6.792  18.530  0.00  0.00    +0.000 A 
ATOM      6  C   UNL     1       2.225   7.459  19.410  0.00  0.00    +0.000 A 
ATOM      7  C   UNL     1       1.779   6.832  20.575  0.00  0.00    +0.000 A 
ATOM      8  C   UNL     1       2.143   5.511  20.863  0.00  0.00    +0.000 A 
ATOM      9  C   UNL     1       2.968   4.809  19.958  0.00  0.00    +0.000 A 
ENDROOT
BRANCH   6  10
ATOM     10  C   UNL     1       1.767   8.811  19.071  0.00  0.00    +0.000 C 
ATOM     11  C   UNL     1       2.278   9.484  18.028  0.00  0.00    +0.000 C 
ATOM     12  C   UNL     1       1.825  10.866  17.653  0.00  0.00    +0.000 C 
ATOM     13  N   UNL     1       0.597  11.301  18.327  0.00  0.00    +0.000 NA
ATOM     14  C   UNL     1       0.632  10.944  19.750  0.00  0.00    +0.000 C 
ATOM     15  C   UNL     1       0.710   9.423  19.953  0.00  0.00    +0.000 C 
ATOM     16  H   UNL     1      -0.190  10.822  17.891  0.00  0.00    +0.000 HD
ENDBRANCH   6  10
BRANCH   3  17
ATOM     17  C   UNL     1       5.066   4.719  17.021  0.00  0.00    +0.000 A 
ATOM     18  C   UNL     1       4.745   4.040  15.834  0.00  0.00    +0.000 A 
ATOM     19  C   UNL     1       5.540   4.194  14.698  0.00  0.00    +0.000 A 
ATOM     20  C   UNL     1       6.686   4.998  14.763  0.00  0.00    +0.000 A 
ATOM     21  C   UNL     1       7.028   5.658  15.951  0.00  0.00    +0.000 A 
ATOM     22  C   UNL     1       6.211   5.524  17.080  0.00  0.00    +0.000 A 
BRANCH  20  23
ATOM     23  N   UNL     1       7.546   5.135  13.581  0.00  0.00    +0.000 N 
ATOM     24  O   UNL     1       8.545   5.861  13.676  0.00  0.00    +0.000 OA
ATOM     25  O   UNL     1       7.220   4.515  12.558  0.00  0.00    +0.000 OA
ENDBRANCH  20  23
ENDBRANCH   3  17
BRANCH   1  27
ATOM     26  C   UNL     1       1.451   2.510  21.441  0.00  0.00    +0.000 C 
ATOM     27  S   UNL     1       3.168   2.192  20.972  0.00  0.00    +0.000 S 
ENDBRANCH   1  27
TORSDOF 4
ENDMDL
MODEL 3
REMARK VINA RESULT:      -7.6      0.177      1.145
REMARK  Name = 
REMARK  5 active torsions:
REMARK  status: ('A' for Active; 'I' for Inactive)
REMARK    1  A    between atoms: C_1  and  S_2
REMARK    2  A    between atoms: S_2  and  C_3
REMARK    3  A    between atoms: N_5  and  C_6
REMARK    4  A    between atoms: C_9  and  N_10
REMARK    5  A    between atoms: C_17  and  C_18
REMARK                            x       y       z     vdW  Elec       q    Type
REMARK                         _______ _______ _______ _____ _____    ______ ____
ROOT
ATOM      1  C   UNL     1       2.124   4.254  20.148  0.00  0.00    +0.000 A 
ATOM      2  N   UNL     1       2.841   3.871  19.097  0.00  0.00    +0.000 NA
ATOM      3  N   UNL     1       3.226   5.030  18.511  0.00  0.00    +0.000 N 
ATOM      4  C   UNL     1       2.609   6.138  19.080  0.00  0.00    +0.000 A 
ATOM      5  C   UNL     1       2.546   7.492  18.703  0.00  0.00    +0.000 A 
ATOM      6  C   UNL     1       1.774   8.364  19.482  0.00  0.00    +0.000 A 
ATOM      7  C   UNL     1       1.120   7.901  20.626  0.00  0.00    +0.000 A 
ATOM      8  C   UNL     1       1.180   6.550  20.989  0.00  0.00    +0.000 A 
ATOM      9  C   UNL     1       1.908   5.649  20.181  0.00  0.00    +0.000 A 
ENDROOT
BRANCH   6  10
ATOM     10  C   UNL     1       1.633   9.762  19.060  0.00  0.00    +0.000 C 
ATOM     11  C   UNL     1       2.418  10.290  18.107  0.00  0.00    +0.000 C 
ATOM     12  C   UNL     1       2.293  11.715  17.649  0.00  0.00    +0.000 C 
ATOM     13  N   UNL     1       1.076  12.391  18.111  0.00  0.00    +0.000 NA
ATOM     14  C   UNL     1       0.820  12.091  19.525  0.00  0.00    +0.000 C 
ATOM     15  C   UNL     1       0.582  10.590  19.754  0.00  0.00    +0.000 C 
ATOM     16  H   UNL     1       0.292  12.046  17.558  0.00  0.00    +0.000 HD
ENDBRANCH   6  10
BRANCH   3  17
ATOM     17  C   UNL     1       4.158   4.985  17.438  0.00  0.00    +0.000 A 
ATOM     18  C   UNL     1       4.561   6.190  16.840  0.00  0.00    +0.000 A 
ATOM     19  C   UNL     1       5.469   6.181  15.780  0.00  0.00    +0.000 A 
ATOM     20  C   UNL     1       5.942   4.957  15.289  0.00  0.00    +0.000 A 
ATOM     21  C   UNL     1       5.525   3.748  15.863  0.00  0.00    +0.000 A 
ATOM     22  C   UNL     1       4.637   3.763  16.945  0.00  0.00    +0.000 A 
BRANCH  20  23
ATOM     23  N   UNL     1       6.869   4.940  14.150  0.00  0.00    +0.000 N 
ATOM     24  O   UNL     1       7.900   5.621  14.237  0.00  0.00    +0.000 OA
ATOM     25  O   UNL     1       6.563   4.246  13.170  0.00  0.00    +0.000 OA
ENDBRANCH  20  23
ENDBRANCH   3  17
BRANCH   1  27
ATOM     26  C   UNL     1       2.929   2.058  21.598  0.00  0.00    +0.000 C 
ATOM     27  S   UNL     1       1.483   3.101  21.297  0.00  0.00    +0.000 S 
ENDBRANCH   1  27
TORSDOF 4
ENDMDL
MODEL 4
REMARK VINA RESULT:      -7.5      1.282      1.665
REMARK  Name = 
REMARK  5 active torsions:
REMARK  status: ('A' for Active; 'I' for Inactive)
REMARK    1  A    between atoms: C_1  and  S_2
REMARK    2  A    between atoms: S_2  and  C_3
REMARK    3  A    between atoms: N_5  and  C_6
REMARK    4  A    between atoms: C_9  and  N_10
REMARK    5  A    between atoms: C_17  and  C_18
REMARK                            x       y       z     vdW  Elec       q    Type
REMARK                         _______ _______ _______ _____ _____    ______ ____
ROOT
ATOM      1  C   UNL     1       3.575   3.270  19.888  0.00  0.00    +0.000 A 
ATOM      2  N   UNL     1       4.247   3.071  18.759  0.00  0.00    +0.000 NA
ATOM      3  N   UNL     1       4.320   4.298  18.190  0.00  0.00    +0.000 N 
ATOM      4  C   UNL     1       3.545   5.237  18.860  0.00  0.00    +0.000 A 
ATOM      5  C   UNL     1       3.162   6.554  18.548  0.00  0.00    +0.000 A 
ATOM      6  C   UNL     1       2.306   7.225  19.433  0.00  0.00    +0.000 A 
ATOM      7  C   UNL     1       1.882   6.609  20.612  0.00  0.00    +0.000 A 
ATOM      8  C   UNL     1       2.259   5.294  20.910  0.00  0.00    +0.000 A 
ATOM      9  C   UNL     1       3.075   4.586  20.000  0.00  0.00    +0.000 A 
ENDROOT
BRANCH   6  10
ATOM     10  C   UNL     1       1.834   8.570  19.085  0.00  0.00    +0.000 C 
ATOM     11  C   UNL     1       2.297   9.219  18.005  0.00  0.00    +0.000 C 
ATOM     12  C   UNL     1       1.829  10.593  17.620  0.00  0.00    +0.000 C 
ATOM     13  N   UNL     1       0.634  11.045  18.340  0.00  0.00    +0.000 NA
ATOM     14  C   UNL     1       0.734  10.720  19.769  0.00  0.00    +0.000 C 
ATOM     15  C   UNL     1       0.820   9.204  20.002  0.00  0.00    +0.000 C 
ATOM     16  H   UNL     1      -0.173  10.559  17.952  0.00  0.00    +0.000 HD
ENDBRANCH   6  10
BRANCH   3  17
ATOM     17  C   UNL     1       5.129   4.476  17.033  0.00  0.00    +0.000 A 
ATOM     18  C   UNL     1       6.333   5.189  17.152  0.00  0.00    +0.000 A 
ATOM     19  C   UNL     1       7.146   5.388  16.035  0.00  0.00    +0.000 A 
ATOM     20  C   UNL     1       6.731   4.908  14.786  0.00  0.00    +0.000 A 
ATOM     21  C   UNL     1       5.518   4.217  14.655  0.00  0.00    +0.000 A 
ATOM     22  C   UNL     1       4.719   3.994  15.782  0.00  0.00    +0.000 A 
BRANCH  20  23
ATOM     23  N   UNL     1       7.565   5.146  13.602  0.00  0.00    +0.000 N 
ATOM     24  O   UNL     1       7.211   4.626  12.534  0.00  0.00    +0.000 OA
ATOM     25  O   UNL     1       8.573   5.853  13.742  0.00  0.00    +0.000 OA
ENDBRANCH  20  23
ENDBRANCH   3  17
BRANCH   1  27
ATOM     26  C   UNL     1       4.964   1.266  21.163  0.00  0.00    +0.000 C 
ATOM     27  S   UNL     1       3.308   1.983  21.042  0.00  0.00    +0.000 S 
ENDBRANCH   1  27
TORSDOF 4
ENDMDL
MODEL 5
REMARK VINA RESULT:      -7.4      3.149      6.782
REMARK  Name = 
REMARK  5 active torsions:
REMARK  status: ('A' for Active; 'I' for Inactive)
REMARK    1  A    between atoms: C_1  and  S_2
REMARK    2  A    between atoms: S_2  and  C_3
REMARK    3  A    between atoms: N_5  and  C_6
REMARK    4  A    between atoms: C_9  and  N_10
REMARK    5  A    between atoms: C_17  and  C_18
REMARK                            x       y       z     vdW  Elec       q    Type
REMARK                         _______ _______ _______ _____ _____    ______ ____
ROOT
ATOM      1  C   UNL     1       1.829   4.215  20.163  0.00  0.00    +0.000 A 
ATOM      2  N   UNL     1       1.597   5.505  20.388  0.00  0.00    +0.000 NA
ATOM      3  N   UNL     1       2.168   6.138  19.336  0.00  0.00    +0.000 N 
ATOM      4  C   UNL     1       2.914   5.275  18.543  0.00  0.00    +0.000 A 
ATOM      5  C   UNL     1       3.815   5.492  17.484  0.00  0.00    +0.000 A 
ATOM      6  C   UNL     1       4.459   4.382  16.920  0.00  0.00    +0.000 A 
ATOM      7  C   UNL     1       4.178   3.093  17.377  0.00  0.00    +0.000 A 
ATOM      8  C   UNL     1       3.288   2.886  18.438  0.00  0.00    +0.000 A 
ATOM      9  C   UNL     1       2.674   4.000  19.052  0.00  0.00    +0.000 A 
ENDROOT
BRANCH   6  10
ATOM     10  C   UNL     1       5.460   4.597  15.869  0.00  0.00    +0.000 C 
ATOM     11  C   UNL     1       5.373   3.980  14.680  0.00  0.00    +0.000 C 
ATOM     12  C   UNL     1       6.378   4.185  13.583  0.00  0.00    +0.000 C 
ATOM     13  N   UNL     1       7.287   5.314  13.803  0.00  0.00    +0.000 NA
ATOM     14  C   UNL     1       7.761   5.337  15.192  0.00  0.00    +0.000 C 
ATOM     15  C   UNL     1       6.603   5.526  16.185  0.00  0.00    +0.000 C 
ATOM     16  H   UNL     1       6.773   6.175  13.621  0.00  0.00    +0.000 HD
ENDBRANCH   6  10
BRANCH   3  17
ATOM     17  C   UNL     1       1.958   7.536  19.175  0.00  0.00    +0.000 A 
ATOM     18  C   UNL     1       1.429   8.270  20.249  0.00  0.00    +0.000 A 
ATOM     19  C   UNL     1       1.203   9.641  20.121  0.00  0.00    +0.000 A 
ATOM     20  C   UNL     1       1.468  10.272  18.899  0.00  0.00    +0.000 A 
ATOM     21  C   UNL     1       1.971   9.541  17.813  0.00  0.00    +0.000 A 
ATOM     22  C   UNL     1       2.223   8.172  17.954  0.00  0.00    +0.000 A 
BRANCH  20  23
ATOM     23  N   UNL     1       1.198  11.707  18.748  0.00  0.00    +0.000 N 
ATOM     24  O   UNL     1       0.085  12.124  19.099  0.00  0.00    +0.000 OA
ATOM     25  O   UNL     1       2.100  12.415  18.278  0.00  0.00    +0.000 OA
ENDBRANCH  20  23
ENDBRANCH   3  17
BRANCH   1  27
ATOM     26  C   UNL     1       2.710   2.207  21.826  0.00  0.00    +0.000 C 
ATOM     27  S   UNL     1       1.189   2.967  21.208  0.00  0.00    +0.000 S 
ENDBRANCH   1  27
TORSDOF 4
ENDMDL
MODEL 6
REMARK VINA RESULT:      -7.3      1.375      1.871
REMARK  Name = 
REMARK  5 active torsions:
REMARK  status: ('A' for Active; 'I' for Inactive)
REMARK    1  A    between atoms: C_1  and  S_2
REMARK    2  A    between atoms: S_2  and  C_3
REMARK    3  A    between atoms: N_5  and  C_6
REMARK    4  A    between atoms: C_9  and  N_10
REMARK    5  A    between atoms: C_17  and  C_18
REMARK                            x       y       z     vdW  Elec       q    Type
REMARK                         _______ _______ _______ _____ _____    ______ ____
ROOT
ATOM      1  C   UNL     1       3.668   3.170  19.873  0.00  0.00    +0.000 A 
ATOM      2  N   UNL     1       4.343   3.035  18.736  0.00  0.00    +0.000 NA
ATOM      3  N   UNL     1       4.373   4.283  18.211  0.00  0.00    +0.000 N 
ATOM      4  C   UNL     1       3.567   5.170  18.916  0.00  0.00    +0.000 A 
ATOM      5  C   UNL     1       3.138   6.483  18.651  0.00  0.00    +0.000 A 
ATOM      6  C   UNL     1       2.262   7.093  19.560  0.00  0.00    +0.000 A 
ATOM      7  C   UNL     1       1.862   6.421  20.716  0.00  0.00    +0.000 A 
ATOM      8  C   UNL     1       2.285   5.110  20.967  0.00  0.00    +0.000 A 
ATOM      9  C   UNL     1       3.123   4.464  20.032  0.00  0.00    +0.000 A 
ENDROOT
BRANCH   6  10
ATOM     10  C   UNL     1       1.743   8.432  19.260  0.00  0.00    +0.000 C 
ATOM     11  C   UNL     1       1.123   9.170  20.195  0.00  0.00    +0.000 C 
ATOM     12  C   UNL     1       0.587  10.545  19.920  0.00  0.00    +0.000 C 
ATOM     13  N   UNL     1       1.041  11.127  18.652  0.00  0.00    +0.000 NA
ATOM     14  C   UNL     1       0.985  10.131  17.575  0.00  0.00    +0.000 C 
ATOM     15  C   UNL     1       1.916   8.940  17.852  0.00  0.00    +0.000 C 
ATOM     16  H   UNL     1       2.009  11.425  18.769  0.00  0.00    +0.000 HD
ENDBRANCH   6  10
BRANCH   3  17
ATOM     17  C   UNL     1       5.172   4.529  17.061  0.00  0.00    +0.000 A 
ATOM     18  C   UNL     1       4.717   4.080  15.811  0.00  0.00    +0.000 A 
ATOM     19  C   UNL     1       5.480   4.299  14.663  0.00  0.00    +0.000 A 
ATOM     20  C   UNL     1       6.725   4.932  14.775  0.00  0.00    +0.000 A 
ATOM     21  C   UNL     1       7.199   5.361  16.023  0.00  0.00    +0.000 A 
ATOM     22  C   UNL     1       6.417   5.165  17.166  0.00  0.00    +0.000 A 
BRANCH  20  23
ATOM     23  N   UNL     1       7.549   5.132  13.576  0.00  0.00    +0.000 N 
ATOM     24  O   UNL     1       7.192   4.569  12.531  0.00  0.00    +0.000 OA
ATOM     25  O   UNL     1       8.552   5.852  13.681  0.00  0.00    +0.000 OA
ENDBRANCH  20  23
ENDBRANCH   3  17
BRANCH   1  27
ATOM     26  C   UNL     1       5.150   1.257  21.182  0.00  0.00    +0.000 C 
ATOM     27  S   UNL     1       3.448   1.835  20.980  0.00  0.00    +0.000 S 
ENDBRANCH   1  27
TORSDOF 4
ENDMDL
MODEL 7
REMARK VINA RESULT:      -7.2      0.267      1.148
REMARK  Name = 
REMARK  5 active torsions:
REMARK  status: ('A' for Active; 'I' for Inactive)
REMARK    1  A    between atoms: C_1  and  S_2
REMARK    2  A    between atoms: S_2  and  C_3
REMARK    3  A    between atoms: N_5  and  C_6
REMARK    4  A    between atoms: C_9  and  N_10
REMARK    5  A    between atoms: C_17  and  C_18
REMARK                            x       y       z     vdW  Elec       q    Type
REMARK                         _______ _______ _______ _____ _____    ______ ____
ROOT
ATOM      1  C   UNL     1       2.294   4.424  20.301  0.00  0.00    +0.000 A 
ATOM      2  N   UNL     1       2.980   4.034  19.231  0.00  0.00    +0.000 NA
ATOM      3  N   UNL     1       3.257   5.183  18.571  0.00  0.00    +0.000 N 
ATOM      4  C   UNL     1       2.598   6.277  19.119  0.00  0.00    +0.000 A 
ATOM      5  C   UNL     1       2.426   7.603  18.681  0.00  0.00    +0.000 A 
ATOM      6  C   UNL     1       1.639   8.464  19.459  0.00  0.00    +0.000 A 
ATOM      7  C   UNL     1       1.076   8.020  20.657  0.00  0.00    +0.000 A 
ATOM      8  C   UNL     1       1.244   6.695  21.081  0.00  0.00    +0.000 A 
ATOM      9  C   UNL     1       1.988   5.802  20.279  0.00  0.00    +0.000 A 
ENDROOT
BRANCH   6  10
ATOM     10  C   UNL     1       1.384   9.826  18.979  0.00  0.00    +0.000 C 
ATOM     11  C   UNL     1       0.172  10.393  19.084  0.00  0.00    +0.000 C 
ATOM     12  C   UNL     1      -0.118  11.787  18.607  0.00  0.00    +0.000 C 
ATOM     13  N   UNL     1       1.078  12.574  18.286  0.00  0.00    +0.000 NA
ATOM     14  C   UNL     1       2.043  11.767  17.530  0.00  0.00    +0.000 C 
ATOM     15  C   UNL     1       2.536  10.560  18.342  0.00  0.00    +0.000 C 
ATOM     16  H   UNL     1       1.512  12.863  19.162  0.00  0.00    +0.000 HD
ENDBRANCH   6  10
BRANCH   3  17
ATOM     17  C   UNL     1       4.134   5.143  17.452  0.00  0.00    +0.000 A 
ATOM     18  C   UNL     1       4.511   3.894  16.931  0.00  0.00    +0.000 A 
ATOM     19  C   UNL     1       5.376   3.819  15.839  0.00  0.00    +0.000 A 
ATOM     20  C   UNL     1       5.900   4.998  15.292  0.00  0.00    +0.000 A 
ATOM     21  C   UNL     1       5.549   6.248  15.822  0.00  0.00    +0.000 A 
ATOM     22  C   UNL     1       4.658   6.320  16.899  0.00  0.00    +0.000 A 
BRANCH  20  23
ATOM     23  N   UNL     1       6.839   4.923  14.166  0.00  0.00    +0.000 N 
ATOM     24  O   UNL     1       7.866   5.614  14.226  0.00  0.00    +0.000 OA
ATOM     25  O   UNL     1       6.547   4.173  13.223  0.00  0.00    +0.000 OA
ENDBRANCH  20  23
ENDBRANCH   3  17
BRANCH   1  27
ATOM     26  C   UNL     1       3.129   2.077  21.472  0.00  0.00    +0.000 C 
ATOM     27  S   UNL     1       1.791   3.293  21.536  0.00  0.00    +0.000 S 
ENDBRANCH   1  27
TORSDOF 4
ENDMDL
MODEL 8
REMARK VINA RESULT:      -7.0      1.100      1.780
REMARK  Name = 
REMARK  5 active torsions:
REMARK  status: ('A' for Active; 'I' for Inactive)
REMARK    1  A    between atoms: C_1  and  S_2
REMARK    2  A    between atoms: S_2  and  C_3
REMARK    3  A    between atoms: N_5  and  C_6
REMARK    4  A    between atoms: C_9  and  N_10
REMARK    5  A    between atoms: C_17  and  C_18
REMARK                            x       y       z     vdW  Elec       q    Type
REMARK                         _______ _______ _______ _____ _____    ______ ____
ROOT
ATOM      1  C   UNL     1       3.268   3.569  20.137  0.00  0.00    +0.000 A 
ATOM      2  N   UNL     1       3.943   3.303  19.023  0.00  0.00    +0.000 NA
ATOM      3  N   UNL     1       4.061   4.502  18.405  0.00  0.00    +0.000 N 
ATOM      4  C   UNL     1       3.312   5.492  19.030  0.00  0.00    +0.000 A 
ATOM      5  C   UNL     1       2.974   6.807  18.661  0.00  0.00    +0.000 A 
ATOM      6  C   UNL     1       2.134   7.542  19.509  0.00  0.00    +0.000 A 
ATOM      7  C   UNL     1       1.680   6.989  20.708  0.00  0.00    +0.000 A 
ATOM      8  C   UNL     1       2.012   5.676  21.063  0.00  0.00    +0.000 A 
ATOM      9  C   UNL     1       2.811   4.905  20.191  0.00  0.00    +0.000 A 
ENDROOT
BRANCH   6  10
ATOM     10  C   UNL     1       1.709   8.886  19.102  0.00  0.00    +0.000 C 
ATOM     11  C   UNL     1       0.581   9.438  19.574  0.00  0.00    +0.000 C 
ATOM     12  C   UNL     1       0.123  10.814  19.180  0.00  0.00    +0.000 C 
ATOM     13  N   UNL     1       1.137  11.607  18.478  0.00  0.00    +0.000 NA
ATOM     14  C   UNL     1       1.830  10.792  17.473  0.00  0.00    +0.000 C 
ATOM     15  C   UNL     1       2.583   9.617  18.115  0.00  0.00    +0.000 C 
ATOM     16  H   UNL     1       1.820  11.928  19.164  0.00  0.00    +0.000 HD
ENDBRANCH   6  10
BRANCH   3  17
ATOM     17  C   UNL     1       4.884   4.606  17.250  0.00  0.00    +0.000 A 
ATOM     18  C   UNL     1       6.135   5.233  17.365  0.00  0.00    +0.000 A 
ATOM     19  C   UNL     1       6.965   5.359  16.249  0.00  0.00    +0.000 A 
ATOM     20  C   UNL     1       6.521   4.892  15.005  0.00  0.00    +0.000 A 
ATOM     21  C   UNL     1       5.262   4.288  14.877  0.00  0.00    +0.000 A 
ATOM     22  C   UNL     1       4.446   4.138  16.004  0.00  0.00    +0.000 A 
BRANCH  20  23
ATOM     23  N   UNL     1       7.374   5.054  13.821  0.00  0.00    +0.000 N 
ATOM     24  O   UNL     1       8.387   5.759  13.934  0.00  0.00    +0.000 OA
ATOM     25  O   UNL     1       7.030   4.476  12.781  0.00  0.00    +0.000 OA
ENDBRANCH  20  23
ENDBRANCH   3  17
BRANCH   1  27
ATOM     26  C   UNL     1       1.159   2.493  21.538  0.00  0.00    +0.000 C 
ATOM     27  S   UNL     1       2.950   2.340  21.340  0.00  0.00    +0.000 S 
ENDBRANCH   1  27
TORSDOF 4
ENDMDL
MODEL 9
REMARK VINA RESULT:      -6.9      3.904      6.590
REMARK  Name = 
REMARK  5 active torsions:
REMARK  status: ('A' for Active; 'I' for Inactive)
REMARK    1  A    between atoms: C_1  and  S_2
REMARK    2  A    between atoms: S_2  and  C_3
REMARK    3  A    between atoms: N_5  and  C_6
REMARK    4  A    between atoms: C_9  and  N_10
REMARK    5  A    between atoms: C_17  and  C_18
REMARK                            x       y       z     vdW  Elec       q    Type
REMARK                         _______ _______ _______ _____ _____    ______ ____
ROOT
ATOM      1  C   UNL     1      -1.400  11.331  18.223  0.00  0.00    +0.000 A 
ATOM      2  N   UNL     1      -0.872  10.111  18.204  0.00  0.00    +0.000 NA
ATOM      3  N   UNL     1       0.390  10.284  18.664  0.00  0.00    +0.000 N 
ATOM      4  C   UNL     1       0.722  11.626  18.803  0.00  0.00    +0.000 A 
ATOM      5  C   UNL     1       1.938  12.286  19.057  0.00  0.00    +0.000 A 
ATOM      6  C   UNL     1       1.942  13.688  19.081  0.00  0.00    +0.000 A 
ATOM      7  C   UNL     1       0.757  14.403  18.895  0.00  0.00    +0.000 A 
ATOM      8  C   UNL     1      -0.448  13.738  18.633  0.00  0.00    +0.000 A 
ATOM      9  C   UNL     1      -0.456  12.329  18.551  0.00  0.00    +0.000 A 
ENDROOT
BRANCH   6  10
ATOM     10  C   UNL     1       3.214  14.394  19.266  0.00  0.00    +0.000 C 
ATOM     11  C   UNL     1       3.762  14.546  20.482  0.00  0.00    +0.000 C 
ATOM     12  C   UNL     1       5.066  15.258  20.703  0.00  0.00    +0.000 C 
ATOM     13  N   UNL     1       5.826  15.517  19.475  0.00  0.00    +0.000 NA
ATOM     14  C   UNL     1       4.940  16.002  18.409  0.00  0.00    +0.000 C 
ATOM     15  C   UNL     1       3.875  14.960  18.036  0.00  0.00    +0.000 C 
ATOM     16  H   UNL     1       6.248  14.640  19.173  0.00  0.00    +0.000 HD
ENDBRANCH   6  10
BRANCH   3  17
ATOM     17  C   UNL     1       1.191   9.139  18.932  0.00  0.00    +0.000 A 
ATOM     18  C   UNL     1       1.921   8.562  17.879  0.00  0.00    +0.000 A 
ATOM     19  C   UNL     1       2.710   7.433  18.106  0.00  0.00    +0.000 A 
ATOM     20  C   UNL     1       2.734   6.854  19.382  0.00  0.00    +0.000 A 
ATOM     21  C   UNL     1       1.988   7.408  20.431  0.00  0.00    +0.000 A 
ATOM     22  C   UNL     1       1.221   8.557  20.207  0.00  0.00    +0.000 A 
BRANCH  20  23
ATOM     23  N   UNL     1       3.534   5.646  19.616  0.00  0.00    +0.000 N 
ATOM     24  O   UNL     1       3.027   4.743  20.298  0.00  0.00    +0.000 OA
ATOM     25  O   UNL     1       4.668   5.601  19.118  0.00  0.00    +0.000 OA
ENDBRANCH  20  23
ENDBRANCH   3  17
BRANCH   1  27
ATOM     26  C   UNL     1      -3.128  11.009  16.106  0.00  0.00    +0.000 C 
ATOM     27  S   UNL     1      -3.075  11.617  17.809  0.00  0.00    +0.000 S 
ENDBRANCH   1  27
TORSDOF 4
ENDMDL
