MODEL 1
REMARK VINA RESULT:      -7.1      0.000      0.000
REMARK  Name = 
REMARK  2 active torsions:
REMARK  status: ('A' for Active; 'I' for Inactive)
REMARK    1  A    between atoms: C_1  and  N_2
REMARK    2  A    between atoms: C_5  and  C_6
REMARK                            x       y       z     vdW  Elec       q    Type
REMARK                         _______ _______ _______ _____ _____    ______ ____
ROOT
ATOM      1  C   UNL     1       5.618   3.663  15.983  0.00  0.00    +0.000 C 
ATOM      2  N   UNL     1       4.611   4.645  16.512  0.00  0.00    +0.000 NA
ATOM      3  C   UNL     1       5.461   5.534  17.480  0.00  0.00    +0.000 C 
ATOM      4  C   UNL     1       4.776   6.140  18.776  0.00  0.00    +0.000 C 
ATOM      5  C   UNL     1       3.428   5.454  18.921  0.00  0.00    +0.000 C 
ATOM      6  C   UNL     1       2.518   6.551  18.215  0.00  0.00    +0.000 C 
ATOM      7  C   UNL     1       3.958   3.945  18.578  0.00  0.00    +0.000 C 
ATOM      8  C   UNL     1       3.544   3.778  17.176  0.00  0.00    +0.000 C 
ATOM      9  C   UNL     1       1.931   3.952  17.332  0.00  0.00    +0.000 C 
ATOM     10  C   UNL     1       1.524   3.972  18.916  0.00  0.00    +0.000 A 
ATOM     11  C   UNL     1       0.925   2.872  19.511  0.00  0.00    +0.000 A 
ATOM     12  C   UNL     1       1.218   2.596  20.862  0.00  0.00    +0.000 A 
ATOM     13  C   UNL     1       2.006   3.463  21.657  0.00  0.00    +0.000 A 
ATOM     14  C   UNL     1       2.535   4.630  21.126  0.00  0.00    +0.000 A 
ATOM     15  C   UNL     1       2.369   4.827  19.777  0.00  0.00    +0.000 A 
ENDROOT
TORSDOF 0
ENDMDL
MODEL 2
REMARK VINA RESULT:      -7.0      1.571      4.824
REMARK  Name = 
REMARK  2 active torsions:
REMARK  status: ('A' for Active; 'I' for Inactive)
REMARK    1  A    between atoms: C_1  and  N_2
REMARK    2  A    between atoms: C_5  and  C_6
REMARK                            x       y       z     vdW  Elec       q    Type
REMARK                         _______ _______ _______ _____ _____    ______ ____
ROOT
ATOM      1  C   UNL     1       2.940   2.647  20.856  0.00  0.00    +0.000 C 
ATOM      2  N   UNL     1       3.000   3.955  20.118  0.00  0.00    +0.000 NA
ATOM      3  C   UNL     1       1.864   3.810  19.052  0.00  0.00    +0.000 C 
ATOM      4  C   UNL     1       2.032   4.512  17.640  0.00  0.00    +0.000 C 
ATOM      5  C   UNL     1       3.477   4.978  17.552  0.00  0.00    +0.000 C 
ATOM      6  C   UNL     1       3.275   6.487  18.015  0.00  0.00    +0.000 C 
ATOM      7  C   UNL     1       4.140   3.620  18.176  0.00  0.00    +0.000 C 
ATOM      8  C   UNL     1       4.422   4.016  19.564  0.00  0.00    +0.000 C 
ATOM      9  C   UNL     1       5.444   5.259  19.305  0.00  0.00    +0.000 C 
ATOM     10  C   UNL     1       5.859   5.317  17.725  0.00  0.00    +0.000 A 
ATOM     11  C   UNL     1       7.111   4.898  17.302  0.00  0.00    +0.000 A 
ATOM     12  C   UNL     1       7.223   4.291  16.034  0.00  0.00    +0.000 A 
ATOM     13  C   UNL     1       6.130   4.202  15.139  0.00  0.00    +0.000 A 
ATOM     14  C   UNL     1       4.885   4.708  15.483  0.00  0.00    +0.000 A 
ATOM     15  C   UNL     1       4.740   5.170  16.769  0.00  0.00    +0.000 A 
ENDROOT
TORSDOF 0
ENDMDL
MODEL 3
REMARK VINA RESULT:      -6.8      1.664      4.676
REMARK  Name = 
REMARK  2 active torsions:
REMARK  status: ('A' for Active; 'I' for Inactive)
REMARK    1  A    between atoms: C_1  and  N_2
REMARK    2  A    between atoms: C_5  and  C_6
REMARK                            x       y       z     vdW  Elec       q    Type
REMARK                         _______ _______ _______ _____ _____    ______ ____
ROOT
ATOM      1  C   UNL     1       2.562   2.591  21.707  0.00  0.00    +0.000 C 
ATOM      2  N   UNL     1       2.131   3.287  20.447  0.00  0.00    +0.000 NA
ATOM      3  C   UNL     1       1.870   2.101  19.461  0.00  0.00    +0.000 C 
ATOM      4  C   UNL     1       2.152   2.304  17.913  0.00  0.00    +0.000 C 
ATOM      5  C   UNL     1       2.911   3.613  17.774  0.00  0.00    +0.000 C 
ATOM      6  C   UNL     1       1.687   4.571  17.436  0.00  0.00    +0.000 C 
ATOM      7  C   UNL     1       3.919   3.369  19.038  0.00  0.00    +0.000 C 
ATOM      8  C   UNL     1       3.307   4.195  20.092  0.00  0.00    +0.000 C 
ATOM      9  C   UNL     1       3.385   5.662  19.386  0.00  0.00    +0.000 C 
ATOM     10  C   UNL     1       4.288   5.578  18.026  0.00  0.00    +0.000 A 
ATOM     11  C   UNL     1       5.578   6.087  17.995  0.00  0.00    +0.000 A 
ATOM     12  C   UNL     1       6.537   5.438  17.191  0.00  0.00    +0.000 A 
ATOM     13  C   UNL     1       6.201   4.364  16.332  0.00  0.00    +0.000 A 
ATOM     14  C   UNL     1       4.898   3.896  16.254  0.00  0.00    +0.000 A 
ATOM     15  C   UNL     1       3.994   4.431  17.139  0.00  0.00    +0.000 A 
ENDROOT
TORSDOF 0
ENDMDL
MODEL 4
REMARK VINA RESULT:      -6.6      1.672      4.679
REMARK  Name = 
REMARK  2 active torsions:
REMARK  status: ('A' for Active; 'I' for Inactive)
REMARK    1  A    between atoms: C_1  and  N_2
REMARK    2  A    between atoms: C_5  and  C_6
REMARK                            x       y       z     vdW  Elec       q    Type
REMARK                         _______ _______ _______ _____ _____    ______ ____
ROOT
ATOM      1  C   UNL     1       2.282   3.723  21.671  0.00  0.00    +0.000 C 
ATOM      2  N   UNL     1       2.153   3.616  20.178  0.00  0.00    +0.000 NA
ATOM      3  C   UNL     1       2.830   2.240  19.864  0.00  0.00    +0.000 C 
ATOM      4  C   UNL     1       3.602   2.053  18.491  0.00  0.00    +0.000 C 
ATOM      5  C   UNL     1       3.736   3.434  17.871  0.00  0.00    +0.000 C 
ATOM      6  C   UNL     1       2.478   3.388  16.898  0.00  0.00    +0.000 C 
ATOM      7  C   UNL     1       4.147   4.209  19.251  0.00  0.00    +0.000 C 
ATOM      8  C   UNL     1       2.880   4.847  19.642  0.00  0.00    +0.000 C 
ATOM      9  C   UNL     1       2.623   5.792  18.340  0.00  0.00    +0.000 C 
ATOM     10  C   UNL     1       3.944   5.786  17.377  0.00  0.00    +0.000 A 
ATOM     11  C   UNL     1       4.798   6.878  17.333  0.00  0.00    +0.000 A 
ATOM     12  C   UNL     1       6.174   6.647  17.131  0.00  0.00    +0.000 A 
ATOM     13  C   UNL     1       6.692   5.358  16.858  0.00  0.00    +0.000 A 
ATOM     14  C   UNL     1       5.855   4.255  16.787  0.00  0.00    +0.000 A 
ATOM     15  C   UNL     1       4.538   4.455  17.123  0.00  0.00    +0.000 A 
ENDROOT
TORSDOF 0
ENDMDL
MODEL 5
REMARK VINA RESULT:      -6.6      1.794      4.872
REMARK  Name = 
REMARK  2 active torsions:
REMARK  status: ('A' for Active; 'I' for Inactive)
REMARK    1  A    between atoms: C_1  and  N_2
REMARK    2  A    between atoms: C_5  and  C_6
REMARK                            x       y       z     vdW  Elec       q    Type
REMARK                         _______ _______ _______ _____ _____    ______ ____
ROOT
ATOM      1  C   UNL     1       1.686   5.306  20.795  0.00  0.00    +0.000 C 
ATOM      2  N   UNL     1       2.287   4.672  19.573  0.00  0.00    +0.000 NA
ATOM      3  C   UNL     1       3.020   3.416  20.153  0.00  0.00    +0.000 C 
ATOM      4  C   UNL     1       4.354   2.910  19.460  0.00  0.00    +0.000 C 
ATOM      5  C   UNL     1       4.780   3.995  18.484  0.00  0.00    +0.000 C 
ATOM      6  C   UNL     1       4.142   3.394  17.157  0.00  0.00    +0.000 C 
ATOM      7  C   UNL     1       4.486   5.257  19.482  0.00  0.00    +0.000 C 
ATOM      8  C   UNL     1       3.192   5.753  18.988  0.00  0.00    +0.000 C 
ATOM      9  C   UNL     1       3.598   6.131  17.456  0.00  0.00    +0.000 C 
ATOM     10  C   UNL     1       5.219   6.032  17.268  0.00  0.00    +0.000 A 
ATOM     11  C   UNL     1       5.999   7.176  17.190  0.00  0.00    +0.000 A 
ATOM     12  C   UNL     1       7.301   7.140  17.729  0.00  0.00    +0.000 A 
ATOM     13  C   UNL     1       7.876   5.950  18.237  0.00  0.00    +0.000 A 
ATOM     14  C   UNL     1       7.166   4.759  18.234  0.00  0.00    +0.000 A 
ATOM     15  C   UNL     1       5.851   4.824  17.842  0.00  0.00    +0.000 A 
ENDROOT
TORSDOF 0
ENDMDL
MODEL 6
REMARK VINA RESULT:      -6.6      1.866      4.681
REMARK  Name = 
REMARK  2 active torsions:
REMARK  status: ('A' for Active; 'I' for Inactive)
REMARK    1  A    between atoms: C_1  and  N_2
REMARK    2  A    between atoms: C_5  and  C_6
REMARK                            x       y       z     vdW  Elec       q    Type
REMARK                         _______ _______ _______ _____ _____    ______ ____
ROOT
ATOM      1  C   UNL     1       1.962   1.785  18.979  0.00  0.00    +0.000 C 
ATOM      2  N   UNL     1       2.477   3.173  19.237  0.00  0.00    +0.000 NA
ATOM      3  C   UNL     1       1.475   4.074  18.440  0.00  0.00    +0.000 C 
ATOM      4  C   UNL     1       1.996   5.421  17.787  0.00  0.00    +0.000 C 
ATOM      5  C   UNL     1       3.513   5.391  17.871  0.00  0.00    +0.000 C 
ATOM      6  C   UNL     1       3.701   6.241  19.203  0.00  0.00    +0.000 C 
ATOM      7  C   UNL     1       3.685   3.828  17.421  0.00  0.00    +0.000 C 
ATOM      8  C   UNL     1       3.910   3.154  18.710  0.00  0.00    +0.000 C 
ATOM      9  C   UNL     1       5.267   3.912  19.197  0.00  0.00    +0.000 C 
ATOM     10  C   UNL     1       5.858   4.832  17.981  0.00  0.00    +0.000 A 
ATOM     11  C   UNL     1       6.977   4.434  17.266  0.00  0.00    +0.000 A 
ATOM     12  C   UNL     1       7.054   4.767  15.898  0.00  0.00    +0.000 A 
ATOM     13  C   UNL     1       6.089   5.587  15.265  0.00  0.00    +0.000 A 
ATOM     14  C   UNL     1       5.011   6.095  15.974  0.00  0.00    +0.000 A 
ATOM     15  C   UNL     1       4.859   5.656  17.267  0.00  0.00    +0.000 A 
ENDROOT
TORSDOF 0
ENDMDL
MODEL 7
REMARK VINA RESULT:      -6.5      1.635      3.056
REMARK  Name = 
REMARK  2 active torsions:
REMARK  status: ('A' for Active; 'I' for Inactive)
REMARK    1  A    between atoms: C_1  and  N_2
REMARK    2  A    between atoms: C_5  and  C_6
REMARK                            x       y       z     vdW  Elec       q    Type
REMARK                         _______ _______ _______ _____ _____    ______ ____
ROOT
ATOM      1  C   UNL     1       2.202   8.773  17.685  0.00  0.00    +0.000 C 
ATOM      2  N   UNL     1       3.133   7.778  18.318  0.00  0.00    +0.000 NA
ATOM      3  C   UNL     1       3.937   7.221  17.097  0.00  0.00    +0.000 C 
ATOM      4  C   UNL     1       4.429   5.713  17.116  0.00  0.00    +0.000 C 
ATOM      5  C   UNL     1       3.731   5.039  18.286  0.00  0.00    +0.000 C 
ATOM      6  C   UNL     1       4.883   5.182  19.374  0.00  0.00    +0.000 C 
ATOM      7  C   UNL     1       2.258   5.698  18.017  0.00  0.00    +0.000 C 
ATOM      8  C   UNL     1       2.211   6.780  19.013  0.00  0.00    +0.000 C 
ATOM      9  C   UNL     1       2.368   5.912  20.384  0.00  0.00    +0.000 C 
ATOM     10  C   UNL     1       2.251   4.316  20.050  0.00  0.00    +0.000 A 
ATOM     11  C   UNL     1       1.104   3.605  20.365  0.00  0.00    +0.000 A 
ATOM     12  C   UNL     1       0.714   2.549  19.516  0.00  0.00    +0.000 A 
ATOM     13  C   UNL     1       1.510   2.120  18.427  0.00  0.00    +0.000 A 
ATOM     14  C   UNL     1       2.720   2.738  18.144  0.00  0.00    +0.000 A 
ATOM     15  C   UNL     1       3.032   3.854  18.881  0.00  0.00    +0.000 A 
ENDROOT
TORSDOF 0
ENDMDL
MODEL 8
REMARK VINA RESULT:      -6.5      1.486      2.382
REMARK  Name = 
REMARK  2 active torsions:
REMARK  status: ('A' for Active; 'I' for Inactive)
REMARK    1  A    between atoms: C_1  and  N_2
REMARK    2  A    between atoms: C_5  and  C_6
REMARK                            x       y       z     vdW  Elec       q    Type
REMARK                         _______ _______ _______ _____ _____    ______ ____
ROOT
ATOM      1  C   UNL     1       7.537   5.888  18.992  0.00  0.00    +0.000 C 
ATOM      2  N   UNL     1       6.485   5.162  18.201  0.00  0.00    +0.000 NA
ATOM      3  C   UNL     1       5.723   6.324  17.479  0.00  0.00    +0.000 C 
ATOM      4  C   UNL     1       4.171   6.171  17.192  0.00  0.00    +0.000 C 
ATOM      5  C   UNL     1       3.698   4.956  17.974  0.00  0.00    +0.000 C 
ATOM      6  C   UNL     1       3.779   3.872  16.812  0.00  0.00    +0.000 C 
ATOM      7  C   UNL     1       4.521   5.296  19.346  0.00  0.00    +0.000 C 
ATOM      8  C   UNL     1       5.680   4.396  19.248  0.00  0.00    +0.000 C 
ATOM      9  C   UNL     1       4.920   2.955  19.207  0.00  0.00    +0.000 C 
ATOM     10  C   UNL     1       3.331   3.154  19.535  0.00  0.00    +0.000 A 
ATOM     11  C   UNL     1       2.807   2.793  20.767  0.00  0.00    +0.000 A 
ATOM     12  C   UNL     1       1.744   3.554  21.295  0.00  0.00    +0.000 A 
ATOM     13  C   UNL     1       1.122   4.594  20.563  0.00  0.00    +0.000 A 
ATOM     14  C   UNL     1       1.548   4.915  19.282  0.00  0.00    +0.000 A 
ATOM     15  C   UNL     1       2.671   4.271  18.824  0.00  0.00    +0.000 A 
ENDROOT
TORSDOF 0
ENDMDL
MODEL 9
REMARK VINA RESULT:      -6.3      1.180      1.747
REMARK  Name = 
REMARK  2 active torsions:
REMARK  status: ('A' for Active; 'I' for Inactive)
REMARK    1  A    between atoms: C_1  and  N_2
REMARK    2  A    between atoms: C_5  and  C_6
REMARK                            x       y       z     vdW  Elec       q    Type
REMARK                         _______ _______ _______ _____ _____    ______ ____
ROOT
ATOM      1  C   UNL     1       6.090   6.203  17.008  0.00  0.00    +0.000 C 
ATOM      2  N   UNL     1       4.656   5.763  16.923  0.00  0.00    +0.000 NA
ATOM      3  C   UNL     1       3.871   7.021  17.422  0.00  0.00    +0.000 C 
ATOM      4  C   UNL     1       2.511   6.821  18.213  0.00  0.00    +0.000 C 
ATOM      5  C   UNL     1       2.414   5.342  18.553  0.00  0.00    +0.000 C 
ATOM      6  C   UNL     1       1.502   4.872  17.337  0.00  0.00    +0.000 C 
ATOM      7  C   UNL     1       3.974   5.163  19.011  0.00  0.00    +0.000 C 
ATOM      8  C   UNL     1       4.579   4.534  17.826  0.00  0.00    +0.000 C 
ATOM      9  C   UNL     1       3.695   3.168  17.745  0.00  0.00    +0.000 C 
ATOM     10  C   UNL     1       2.777   3.018  19.090  0.00  0.00    +0.000 A 
ATOM     11  C   UNL     1       3.109   2.109  20.082  0.00  0.00    +0.000 A 
ATOM     12  C   UNL     1       2.823   2.441  21.422  0.00  0.00    +0.000 A 
ATOM     13  C   UNL     1       2.109   3.611  21.774  0.00  0.00    +0.000 A 
ATOM     14  C   UNL     1       1.664   4.494  20.801  0.00  0.00    +0.000 A 
ATOM     15  C   UNL     1       2.064   4.244  19.511  0.00  0.00    +0.000 A 
ENDROOT
TORSDOF 0
ENDMDL
