MODEL 1
REMARK VINA RESULT:      -8.2      0.000      0.000
REMARK  Name = 
REMARK  7 active torsions:
REMARK  status: ('A' for Active; 'I' for Inactive)
REMARK    1  A    between atoms: C_1  and  C_2
REMARK    2  A    between atoms: C_2  and  C_3
REMARK    3  A    between atoms: C_7  and  N_8
REMARK    4  A    between atoms: N_8  and  S_9
REMARK    5  A    between atoms: S_9  and  C_12
REMARK    6  A    between atoms: C_15  and  C_16
REMARK    7  A    between atoms: C_19  and  C_20
REMARK                            x       y       z     vdW  Elec       q    Type
REMARK                         _______ _______ _______ _____ _____    ______ ____
ROOT
ATOM      1  C   UNL     1       7.339   6.479  17.767  0.00  0.00    +0.000 A 
ATOM      2  C   UNL     1       8.172   6.580  18.883  0.00  0.00    +0.000 A 
ATOM      3  C   UNL     1       8.711   7.824  19.239  0.00  0.00    +0.000 A 
ATOM      4  C   UNL     1       8.461   8.988  18.484  0.00  0.00    +0.000 A 
ATOM      5  C   UNL     1       7.627   8.848  17.357  0.00  0.00    +0.000 A 
ATOM      6  C   UNL     1       7.070   7.610  16.998  0.00  0.00    +0.000 A 
ENDROOT
BRANCH   4   7
ATOM      7  C   UNL     1       9.063  10.294  18.858  0.00  0.00    +0.000 A 
ATOM      8  C   UNL     1       9.107  11.371  17.950  0.00  0.00    +0.000 A 
ATOM      9  C   UNL     1       9.705  12.596  18.281  0.00  0.00    +0.000 A 
ATOM     10  C   UNL     1      10.261  12.780  19.547  0.00  0.00    +0.000 A 
ATOM     11  C   UNL     1      10.214  11.741  20.472  0.00  0.00    +0.000 A 
ATOM     12  C   UNL     1       9.625  10.514  20.131  0.00  0.00    +0.000 A 
BRANCH  10  13
ATOM     13  C   UNL     1      10.884  14.028  19.891  0.00  0.00    +0.000 C 
ATOM     14  N   UNL     1      11.379  15.041  20.166  0.00  0.00    +0.000 NA
ENDBRANCH  10  13
ENDBRANCH   4   7
BRANCH   1  15
ATOM     15  S   UNL     1       6.786   4.873  17.221  0.00  0.00    +0.000 S 
ATOM     16  O   UNL     1       7.962   4.172  16.744  0.00  0.00    +0.000 OA
ATOM     17  O   UNL     1       5.643   5.065  16.353  0.00  0.00    +0.000 OA
BRANCH  15  18
ATOM     18  N   UNL     1       6.297   4.067  18.609  0.00  0.00    +0.000 N 
ATOM     19  H   UNL     1       6.956   4.193  19.372  0.00  0.00    +0.000 HD
BRANCH  18  24
ATOM     20  C   UNL     1       2.897   3.246  19.224  0.00  0.00    +0.000 A 
ATOM     21  C   UNL     1       2.332   4.450  19.643  0.00  0.00    +0.000 A 
ATOM     22  C   UNL     1       3.145   5.575  19.744  0.00  0.00    +0.000 A 
ATOM     23  C   UNL     1       4.495   5.465  19.437  0.00  0.00    +0.000 A 
ATOM     24  C   UNL     1       4.963   4.234  19.016  0.00  0.00    +0.000 A 
ATOM     25  N   UNL     1       4.211   3.126  18.902  0.00  0.00    +0.000 NA
BRANCH  20  27
ATOM     26  C   UNL     1       0.596   2.341  18.787  0.00  0.00    +0.000 C 
ATOM     27  C   UNL     1       2.041   2.008  19.120  0.00  0.00    +0.000 C 
ENDBRANCH  20  27
ENDBRANCH  18  24
ENDBRANCH  15  18
ENDBRANCH   1  15
TORSDOF 6
ENDMDL
MODEL 2
REMARK VINA RESULT:      -8.1      4.514      7.128
REMARK  Name = 
REMARK  7 active torsions:
REMARK  status: ('A' for Active; 'I' for Inactive)
REMARK    1  A    between atoms: C_1  and  C_2
REMARK    2  A    between atoms: C_2  and  C_3
REMARK    3  A    between atoms: C_7  and  N_8
REMARK    4  A    between atoms: N_8  and  S_9
REMARK    5  A    between atoms: S_9  and  C_12
REMARK    6  A    between atoms: C_15  and  C_16
REMARK    7  A    between atoms: C_19  and  C_20
REMARK                            x       y       z     vdW  Elec       q    Type
REMARK                         _______ _______ _______ _____ _____    ______ ____
ROOT
ATOM      1  C   UNL     1       2.899   4.673  19.109  0.00  0.00    +0.000 A 
ATOM      2  C   UNL     1       2.323   4.761  20.377  0.00  0.00    +0.000 A 
ATOM      3  C   UNL     1       1.788   5.980  20.817  0.00  0.00    +0.000 A 
ATOM      4  C   UNL     1       1.837   7.144  20.024  0.00  0.00    +0.000 A 
ATOM      5  C   UNL     1       2.437   7.024  18.754  0.00  0.00    +0.000 A 
ATOM      6  C   UNL     1       2.964   5.805  18.297  0.00  0.00    +0.000 A 
ENDROOT
BRANCH   4   7
ATOM      7  C   UNL     1       1.291   8.436  20.515  0.00  0.00    +0.000 A 
ATOM      8  C   UNL     1       1.000   8.640  21.879  0.00  0.00    +0.000 A 
ATOM      9  C   UNL     1       0.451   9.844  22.348  0.00  0.00    +0.000 A 
ATOM     10  C   UNL     1       0.196  10.886  21.457  0.00  0.00    +0.000 A 
ATOM     11  C   UNL     1       0.494  10.721  20.107  0.00  0.00    +0.000 A 
ATOM     12  C   UNL     1       1.031   9.510  19.643  0.00  0.00    +0.000 A 
BRANCH  10  13
ATOM     13  C   UNL     1      -0.374  12.118  21.927  0.00  0.00    +0.000 C 
ATOM     14  N   UNL     1      -0.839  13.109  22.312  0.00  0.00    +0.000 NA
ENDBRANCH  10  13
ENDBRANCH   4   7
BRANCH   1  15
ATOM     15  S   UNL     1       3.722   3.169  18.616  0.00  0.00    +0.000 S 
ATOM     16  O   UNL     1       3.651   3.115  17.169  0.00  0.00    +0.000 OA
ATOM     17  O   UNL     1       3.193   2.086  19.418  0.00  0.00    +0.000 OA
BRANCH  15  18
ATOM     18  N   UNL     1       5.341   3.396  18.992  0.00  0.00    +0.000 N 
ATOM     19  H   UNL     1       5.858   2.522  18.982  0.00  0.00    +0.000 HD
BRANCH  18  24
ATOM     20  C   UNL     1       6.855   5.180  16.320  0.00  0.00    +0.000 A 
ATOM     21  C   UNL     1       7.424   6.293  16.940  0.00  0.00    +0.000 A 
ATOM     22  C   UNL     1       7.263   6.453  18.313  0.00  0.00    +0.000 A 
ATOM     23  C   UNL     1       6.532   5.510  19.024  0.00  0.00    +0.000 A 
ATOM     24  C   UNL     1       6.019   4.432  18.327  0.00  0.00    +0.000 A 
ATOM     25  N   UNL     1       6.154   4.239  17.004  0.00  0.00    +0.000 NA
BRANCH  20  27
ATOM     26  C   UNL     1       5.898   4.118  14.257  0.00  0.00    +0.000 C 
ATOM     27  C   UNL     1       7.002   4.991  14.831  0.00  0.00    +0.000 C 
ENDBRANCH  20  27
ENDBRANCH  18  24
ENDBRANCH  15  18
ENDBRANCH   1  15
TORSDOF 6
ENDMDL
MODEL 3
REMARK VINA RESULT:      -8.1      4.594      7.234
REMARK  Name = 
REMARK  7 active torsions:
REMARK  status: ('A' for Active; 'I' for Inactive)
REMARK    1  A    between atoms: C_1  and  C_2
REMARK    2  A    between atoms: C_2  and  C_3
REMARK    3  A    between atoms: C_7  and  N_8
REMARK    4  A    between atoms: N_8  and  S_9
REMARK    5  A    between atoms: S_9  and  C_12
REMARK    6  A    between atoms: C_15  and  C_16
REMARK    7  A    between atoms: C_19  and  C_20
REMARK                            x       y       z     vdW  Elec       q    Type
REMARK                         _______ _______ _______ _____ _____    ______ ____
ROOT
ATOM      1  C   UNL     1       2.922   4.911  19.281  0.00  0.00    +0.000 A 
ATOM      2  C   UNL     1       2.958   6.068  18.502  0.00  0.00    +0.000 A 
ATOM      3  C   UNL     1       2.385   7.253  18.986  0.00  0.00    +0.000 A 
ATOM      4  C   UNL     1       1.739   7.310  20.237  0.00  0.00    +0.000 A 
ATOM      5  C   UNL     1       1.708   6.121  20.993  0.00  0.00    +0.000 A 
ATOM      6  C   UNL     1       2.291   4.932  20.525  0.00  0.00    +0.000 A 
ENDROOT
BRANCH   4   7
ATOM      7  C   UNL     1       1.111   8.566  20.724  0.00  0.00    +0.000 A 
ATOM      8  C   UNL     1       0.968   9.690  19.886  0.00  0.00    +0.000 A 
ATOM      9  C   UNL     1       0.409  10.892  20.347  0.00  0.00    +0.000 A 
ATOM     10  C   UNL     1      -0.040  10.991  21.664  0.00  0.00    +0.000 A 
ATOM     11  C   UNL     1       0.070   9.891  22.508  0.00  0.00    +0.000 A 
ATOM     12  C   UNL     1       0.640   8.696  22.045  0.00  0.00    +0.000 A 
BRANCH  10  13
ATOM     13  C   UNL     1      -0.605  12.221  22.145  0.00  0.00    +0.000 C 
ATOM     14  N   UNL     1      -1.065  13.215  22.527  0.00  0.00    +0.000 NA
ENDBRANCH  10  13
ENDBRANCH   4   7
BRANCH   1  15
ATOM     15  S   UNL     1       3.504   3.368  18.600  0.00  0.00    +0.000 S 
ATOM     16  O   UNL     1       3.316   3.454  17.165  0.00  0.00    +0.000 OA
ATOM     17  O   UNL     1       2.903   2.290  19.356  0.00  0.00    +0.000 OA
BRANCH  15  18
ATOM     18  N   UNL     1       5.163   3.362  18.850  0.00  0.00    +0.000 N 
ATOM     19  H   UNL     1       5.564   2.440  18.706  0.00  0.00    +0.000 HD
BRANCH  18  24
ATOM     20  C   UNL     1       6.835   5.144  16.272  0.00  0.00    +0.000 A 
ATOM     21  C   UNL     1       7.451   6.201  16.942  0.00  0.00    +0.000 A 
ATOM     22  C   UNL     1       7.268   6.325  18.316  0.00  0.00    +0.000 A 
ATOM     23  C   UNL     1       6.470   5.402  18.979  0.00  0.00    +0.000 A 
ATOM     24  C   UNL     1       5.913   4.378  18.235  0.00  0.00    +0.000 A 
ATOM     25  N   UNL     1       6.067   4.222  16.909  0.00  0.00    +0.000 NA
BRANCH  20  27
ATOM     26  C   UNL     1       5.949   4.083  14.177  0.00  0.00    +0.000 C 
ATOM     27  C   UNL     1       7.004   4.995  14.781  0.00  0.00    +0.000 C 
ENDBRANCH  20  27
ENDBRANCH  18  24
ENDBRANCH  15  18
ENDBRANCH   1  15
TORSDOF 6
ENDMDL
MODEL 4
REMARK VINA RESULT:      -8.1      1.294      2.159
REMARK  Name = 
REMARK  7 active torsions:
REMARK  status: ('A' for Active; 'I' for Inactive)
REMARK    1  A    between atoms: C_1  and  C_2
REMARK    2  A    between atoms: C_2  and  C_3
REMARK    3  A    between atoms: C_7  and  N_8
REMARK    4  A    between atoms: N_8  and  S_9
REMARK    5  A    between atoms: S_9  and  C_12
REMARK    6  A    between atoms: C_15  and  C_16
REMARK    7  A    between atoms: C_19  and  C_20
REMARK                            x       y       z     vdW  Elec       q    Type
REMARK                         _______ _______ _______ _____ _____    ______ ____
ROOT
ATOM      1  C   UNL     1       7.063   6.310  17.873  0.00  0.00    +0.000 A 
ATOM      2  C   UNL     1       6.712   7.434  17.124  0.00  0.00    +0.000 A 
ATOM      3  C   UNL     1       7.342   8.662  17.371  0.00  0.00    +0.000 A 
ATOM      4  C   UNL     1       8.312   8.810  18.383  0.00  0.00    +0.000 A 
ATOM      5  C   UNL     1       8.634   7.659  19.130  0.00  0.00    +0.000 A 
ATOM      6  C   UNL     1       8.020   6.421  18.882  0.00  0.00    +0.000 A 
ENDROOT
BRANCH   4   7
ATOM      7  C   UNL     1       8.951  10.125  18.653  0.00  0.00    +0.000 A 
ATOM      8  C   UNL     1       9.723  10.343  19.811  0.00  0.00    +0.000 A 
ATOM      9  C   UNL     1      10.300  11.591  20.093  0.00  0.00    +0.000 A 
ATOM     10  C   UNL     1      10.132  12.653  19.204  0.00  0.00    +0.000 A 
ATOM     11  C   UNL     1       9.392  12.460  18.041  0.00  0.00    +0.000 A 
ATOM     12  C   UNL     1       8.808  11.213  17.771  0.00  0.00    +0.000 A 
BRANCH  10  13
ATOM     13  C   UNL     1      10.713  13.935  19.489  0.00  0.00    +0.000 C 
ATOM     14  N   UNL     1      11.186  14.968  19.725  0.00  0.00    +0.000 NA
ENDBRANCH  10  13
ENDBRANCH   4   7
BRANCH   1  15
ATOM     15  S   UNL     1       6.148   4.792  17.669  0.00  0.00    +0.000 S 
ATOM     16  O   UNL     1       6.260   4.072  18.923  0.00  0.00    +0.000 OA
ATOM     17  O   UNL     1       6.573   4.178  16.428  0.00  0.00    +0.000 OA
BRANCH  15  18
ATOM     18  N   UNL     1       4.540   5.249  17.538  0.00  0.00    +0.000 N 
ATOM     19  H   UNL     1       4.347   5.706  16.651  0.00  0.00    +0.000 HD
BRANCH  18  24
ATOM     20  C   UNL     1       1.998   3.631  19.420  0.00  0.00    +0.000 A 
ATOM     21  C   UNL     1       1.753   2.456  18.709  0.00  0.00    +0.000 A 
ATOM     22  C   UNL     1       2.461   2.220  17.534  0.00  0.00    +0.000 A 
ATOM     23  C   UNL     1       3.380   3.164  17.096  0.00  0.00    +0.000 A 
ATOM     24  C   UNL     1       3.568   4.292  17.874  0.00  0.00    +0.000 A 
ATOM     25  N   UNL     1       2.908   4.555  19.015  0.00  0.00    +0.000 NA
BRANCH  20  27
ATOM     26  C   UNL     1       1.391   2.806  21.711  0.00  0.00    +0.000 C 
ATOM     27  C   UNL     1       1.235   3.918  20.688  0.00  0.00    +0.000 C 
ENDBRANCH  20  27
ENDBRANCH  18  24
ENDBRANCH  15  18
ENDBRANCH   1  15
TORSDOF 6
ENDMDL
MODEL 5
REMARK VINA RESULT:      -8.0      4.481      6.792
REMARK  Name = 
REMARK  7 active torsions:
REMARK  status: ('A' for Active; 'I' for Inactive)
REMARK    1  A    between atoms: C_1  and  C_2
REMARK    2  A    between atoms: C_2  and  C_3
REMARK    3  A    between atoms: C_7  and  N_8
REMARK    4  A    between atoms: N_8  and  S_9
REMARK    5  A    between atoms: S_9  and  C_12
REMARK    6  A    between atoms: C_15  and  C_16
REMARK    7  A    between atoms: C_19  and  C_20
REMARK                            x       y       z     vdW  Elec       q    Type
REMARK                         _______ _______ _______ _____ _____    ______ ____
ROOT
ATOM      1  C   UNL     1       3.046   4.669  18.973  0.00  0.00    +0.000 A 
ATOM      2  C   UNL     1       2.649   5.155  20.220  0.00  0.00    +0.000 A 
ATOM      3  C   UNL     1       2.158   6.463  20.335  0.00  0.00    +0.000 A 
ATOM      4  C   UNL     1       2.075   7.327  19.224  0.00  0.00    +0.000 A 
ATOM      5  C   UNL     1       2.496   6.810  17.982  0.00  0.00    +0.000 A 
ATOM      6  C   UNL     1       2.977   5.497  17.853  0.00  0.00    +0.000 A 
ENDROOT
BRANCH   4   7
ATOM      7  C   UNL     1       1.579   8.721  19.366  0.00  0.00    +0.000 A 
ATOM      8  C   UNL     1       0.899   9.144  20.526  0.00  0.00    +0.000 A 
ATOM      9  C   UNL     1       0.394  10.448  20.655  0.00  0.00    +0.000 A 
ATOM     10  C   UNL     1       0.578  11.370  19.625  0.00  0.00    +0.000 A 
ATOM     11  C   UNL     1       1.265  10.986  18.477  0.00  0.00    +0.000 A 
ATOM     12  C   UNL     1       1.756   9.678  18.349  0.00  0.00    +0.000 A 
BRANCH  10  13
ATOM     13  C   UNL     1       0.058  12.704  19.745  0.00  0.00    +0.000 C 
ATOM     14  N   UNL     1      -0.369  13.778  19.847  0.00  0.00    +0.000 NA
ENDBRANCH  10  13
ENDBRANCH   4   7
BRANCH   1  15
ATOM     15  S   UNL     1       3.821   3.066  18.856  0.00  0.00    +0.000 S 
ATOM     16  O   UNL     1       3.693   2.646  17.474  0.00  0.00    +0.000 OA
ATOM     17  O   UNL     1       3.302   2.240  19.926  0.00  0.00    +0.000 OA
BRANCH  15  18
ATOM     18  N   UNL     1       5.457   3.336  19.109  0.00  0.00    +0.000 N 
ATOM     19  H   UNL     1       5.995   2.476  19.058  0.00  0.00    +0.000 HD
BRANCH  18  24
ATOM     20  C   UNL     1       6.806   5.119  16.349  0.00  0.00    +0.000 A 
ATOM     21  C   UNL     1       7.313   6.286  16.920  0.00  0.00    +0.000 A 
ATOM     22  C   UNL     1       7.166   6.483  18.290  0.00  0.00    +0.000 A 
ATOM     23  C   UNL     1       6.511   5.521  19.046  0.00  0.00    +0.000 A 
ATOM     24  C   UNL     1       6.055   4.389  18.396  0.00  0.00    +0.000 A 
ATOM     25  N   UNL     1       6.179   4.159  17.078  0.00  0.00    +0.000 NA
BRANCH  20  27
ATOM     26  C   UNL     1       5.721   4.181  14.288  0.00  0.00    +0.000 C 
ATOM     27  C   UNL     1       6.938   4.887  14.865  0.00  0.00    +0.000 C 
ENDBRANCH  20  27
ENDBRANCH  18  24
ENDBRANCH  15  18
ENDBRANCH   1  15
TORSDOF 6
ENDMDL
MODEL 6
REMARK VINA RESULT:      -8.0      1.172      2.193
REMARK  Name = 
REMARK  7 active torsions:
REMARK  status: ('A' for Active; 'I' for Inactive)
REMARK    1  A    between atoms: C_1  and  C_2
REMARK    2  A    between atoms: C_2  and  C_3
REMARK    3  A    between atoms: C_7  and  N_8
REMARK    4  A    between atoms: N_8  and  S_9
REMARK    5  A    between atoms: S_9  and  C_12
REMARK    6  A    between atoms: C_15  and  C_16
REMARK    7  A    between atoms: C_19  and  C_20
REMARK                            x       y       z     vdW  Elec       q    Type
REMARK                         _______ _______ _______ _____ _____    ______ ____
ROOT
ATOM      1  C   UNL     1       7.462   6.450  17.750  0.00  0.00    +0.000 A 
ATOM      2  C   UNL     1       8.213   6.550  18.923  0.00  0.00    +0.000 A 
ATOM      3  C   UNL     1       8.714   7.795  19.327  0.00  0.00    +0.000 A 
ATOM      4  C   UNL     1       8.508   8.963  18.565  0.00  0.00    +0.000 A 
ATOM      5  C   UNL     1       7.758   8.826  17.379  0.00  0.00    +0.000 A 
ATOM      6  C   UNL     1       7.239   7.586  16.972  0.00  0.00    +0.000 A 
ENDROOT
BRANCH   4   7
ATOM      7  C   UNL     1       9.070  10.271  18.990  0.00  0.00    +0.000 A 
ATOM      8  C   UNL     1       9.373  10.536  20.341  0.00  0.00    +0.000 A 
ATOM      9  C   UNL     1       9.870  11.781  20.758  0.00  0.00    +0.000 A 
ATOM     10  C   UNL     1      10.095  12.790  19.822  0.00  0.00    +0.000 A 
ATOM     11  C   UNL     1       9.825  12.549  18.478  0.00  0.00    +0.000 A 
ATOM     12  C   UNL     1       9.317  11.307  18.069  0.00  0.00    +0.000 A 
BRANCH  10  13
ATOM     13  C   UNL     1      10.595  14.070  20.242  0.00  0.00    +0.000 C 
ATOM     14  N   UNL     1      11.003  15.104  20.574  0.00  0.00    +0.000 NA
ENDBRANCH  10  13
ENDBRANCH   4   7
BRANCH   1  15
ATOM     15  S   UNL     1       6.965   4.844  17.154  0.00  0.00    +0.000 S 
ATOM     16  O   UNL     1       8.153   4.014  17.163  0.00  0.00    +0.000 OA
ATOM     17  O   UNL     1       6.211   5.035  15.932  0.00  0.00    +0.000 OA
BRANCH  15  18
ATOM     18  N   UNL     1       5.952   4.217  18.336  0.00  0.00    +0.000 N 
ATOM     19  H   UNL     1       6.289   4.424  19.272  0.00  0.00    +0.000 HD
BRANCH  18  24
ATOM     20  C   UNL     1       2.846   5.927  18.549  0.00  0.00    +0.000 A 
ATOM     21  C   UNL     1       1.916   4.988  18.101  0.00  0.00    +0.000 A 
ATOM     22  C   UNL     1       2.368   3.739  17.688  0.00  0.00    +0.000 A 
ATOM     23  C   UNL     1       3.729   3.465  17.721  0.00  0.00    +0.000 A 
ATOM     24  C   UNL     1       4.575   4.451  18.195  0.00  0.00    +0.000 A 
ATOM     25  N   UNL     1       4.178   5.668  18.606  0.00  0.00    +0.000 NA
BRANCH  20  27
ATOM     26  C   UNL     1       2.231   8.247  17.815  0.00  0.00    +0.000 C 
ATOM     27  C   UNL     1       2.386   7.294  18.989  0.00  0.00    +0.000 C 
ENDBRANCH  20  27
ENDBRANCH  18  24
ENDBRANCH  15  18
ENDBRANCH   1  15
TORSDOF 6
ENDMDL
MODEL 7
REMARK VINA RESULT:      -7.9      4.560      6.918
REMARK  Name = 
REMARK  7 active torsions:
REMARK  status: ('A' for Active; 'I' for Inactive)
REMARK    1  A    between atoms: C_1  and  C_2
REMARK    2  A    between atoms: C_2  and  C_3
REMARK    3  A    between atoms: C_7  and  N_8
REMARK    4  A    between atoms: N_8  and  S_9
REMARK    5  A    between atoms: S_9  and  C_12
REMARK    6  A    between atoms: C_15  and  C_16
REMARK    7  A    between atoms: C_19  and  C_20
REMARK                            x       y       z     vdW  Elec       q    Type
REMARK                         _______ _______ _______ _____ _____    ______ ____
ROOT
ATOM      1  C   UNL     1       3.046   5.032  19.122  0.00  0.00    +0.000 A 
ATOM      2  C   UNL     1       3.063   5.943  18.064  0.00  0.00    +0.000 A 
ATOM      3  C   UNL     1       2.523   7.225  18.239  0.00  0.00    +0.000 A 
ATOM      4  C   UNL     1       1.931   7.624  19.454  0.00  0.00    +0.000 A 
ATOM      5  C   UNL     1       1.918   6.676  20.498  0.00  0.00    +0.000 A 
ATOM      6  C   UNL     1       2.467   5.394  20.338  0.00  0.00    +0.000 A 
ENDROOT
BRANCH   4   7
ATOM      7  C   UNL     1       1.337   8.977  19.616  0.00  0.00    +0.000 A 
ATOM      8  C   UNL     1       1.270   9.884  18.540  0.00  0.00    +0.000 A 
ATOM      9  C   UNL     1       0.745  11.176  18.691  0.00  0.00    +0.000 A 
ATOM     10  C   UNL     1       0.253  11.587  19.930  0.00  0.00    +0.000 A 
ATOM     11  C   UNL     1       0.287  10.705  21.006  0.00  0.00    +0.000 A 
ATOM     12  C   UNL     1       0.825   9.418  20.851  0.00  0.00    +0.000 A 
BRANCH  10  13
ATOM     13  C   UNL     1      -0.278  12.912  20.096  0.00  0.00    +0.000 C 
ATOM     14  N   UNL     1      -0.713  13.979  20.224  0.00  0.00    +0.000 NA
ENDBRANCH  10  13
ENDBRANCH   4   7
BRANCH   1  15
ATOM     15  S   UNL     1       3.583   3.353  18.849  0.00  0.00    +0.000 S 
ATOM     16  O   UNL     1       3.346   3.066  17.448  0.00  0.00    +0.000 OA
ATOM     17  O   UNL     1       2.994   2.523  19.879  0.00  0.00    +0.000 OA
BRANCH  15  18
ATOM     18  N   UNL     1       5.249   3.375  19.043  0.00  0.00    +0.000 N 
ATOM     19  H   UNL     1       5.659   2.456  18.901  0.00  0.00    +0.000 HD
BRANCH  18  24
ATOM     20  C   UNL     1       6.808   5.132  16.379  0.00  0.00    +0.000 A 
ATOM     21  C   UNL     1       7.428   6.212  17.008  0.00  0.00    +0.000 A 
ATOM     22  C   UNL     1       7.288   6.359  18.385  0.00  0.00    +0.000 A 
ATOM     23  C   UNL     1       6.527   5.437  19.091  0.00  0.00    +0.000 A 
ATOM     24  C   UNL     1       5.962   4.390  18.385  0.00  0.00    +0.000 A 
ATOM     25  N   UNL     1       6.076   4.211  17.058  0.00  0.00    +0.000 NA
BRANCH  20  27
ATOM     26  C   UNL     1       5.707   4.283  14.289  0.00  0.00    +0.000 C 
ATOM     27  C   UNL     1       6.931   4.957  14.886  0.00  0.00    +0.000 C 
ENDBRANCH  20  27
ENDBRANCH  18  24
ENDBRANCH  15  18
ENDBRANCH   1  15
TORSDOF 6
ENDMDL
MODEL 8
REMARK VINA RESULT:      -7.8      4.561      6.848
REMARK  Name = 
REMARK  7 active torsions:
REMARK  status: ('A' for Active; 'I' for Inactive)
REMARK    1  A    between atoms: C_1  and  C_2
REMARK    2  A    between atoms: C_2  and  C_3
REMARK    3  A    between atoms: C_7  and  N_8
REMARK    4  A    between atoms: N_8  and  S_9
REMARK    5  A    between atoms: S_9  and  C_12
REMARK    6  A    between atoms: C_15  and  C_16
REMARK    7  A    between atoms: C_19  and  C_20
REMARK                            x       y       z     vdW  Elec       q    Type
REMARK                         _______ _______ _______ _____ _____    ______ ____
ROOT
ATOM      1  C   UNL     1       3.081   5.146  18.992  0.00  0.00    +0.000 A 
ATOM      2  C   UNL     1       3.041   5.918  17.829  0.00  0.00    +0.000 A 
ATOM      3  C   UNL     1       2.553   7.231  17.881  0.00  0.00    +0.000 A 
ATOM      4  C   UNL     1       2.068   7.798  19.077  0.00  0.00    +0.000 A 
ATOM      5  C   UNL     1       2.110   6.988  20.229  0.00  0.00    +0.000 A 
ATOM      6  C   UNL     1       2.609   5.676  20.192  0.00  0.00    +0.000 A 
ENDROOT
BRANCH   4   7
ATOM      7  C   UNL     1       1.527   9.182  19.110  0.00  0.00    +0.000 A 
ATOM      8  C   UNL     1       0.470   9.538  19.971  0.00  0.00    +0.000 A 
ATOM      9  C   UNL     1      -0.072  10.832  19.985  0.00  0.00    +0.000 A 
ATOM     10  C   UNL     1       0.450  11.814  19.142  0.00  0.00    +0.000 A 
ATOM     11  C   UNL     1       1.508  11.497  18.296  0.00  0.00    +0.000 A 
ATOM     12  C   UNL     1       2.037  10.198  18.279  0.00  0.00    +0.000 A 
BRANCH  10  13
ATOM     13  C   UNL     1      -0.105  13.139  19.143  0.00  0.00    +0.000 C 
ATOM     14  N   UNL     1      -0.557  14.208  19.151  0.00  0.00    +0.000 NA
ENDBRANCH  10  13
ENDBRANCH   4   7
BRANCH   1  15
ATOM     15  S   UNL     1       3.548   3.427  18.894  0.00  0.00    +0.000 S 
ATOM     16  O   UNL     1       3.264   2.998  17.539  0.00  0.00    +0.000 OA
ATOM     17  O   UNL     1       2.956   2.738  20.022  0.00  0.00    +0.000 OA
BRANCH  15  18
ATOM     18  N   UNL     1       5.219   3.403  19.046  0.00  0.00    +0.000 N 
ATOM     19  H   UNL     1       5.601   2.477  18.881  0.00  0.00    +0.000 HD
BRANCH  18  24
ATOM     20  C   UNL     1       6.804   5.134  16.380  0.00  0.00    +0.000 A 
ATOM     21  C   UNL     1       7.425   6.215  17.005  0.00  0.00    +0.000 A 
ATOM     22  C   UNL     1       7.277   6.372  18.380  0.00  0.00    +0.000 A 
ATOM     23  C   UNL     1       6.507   5.459  19.088  0.00  0.00    +0.000 A 
ATOM     24  C   UNL     1       5.941   4.411  18.386  0.00  0.00    +0.000 A 
ATOM     25  N   UNL     1       6.063   4.221  17.060  0.00  0.00    +0.000 NA
BRANCH  20  27
ATOM     26  C   UNL     1       5.758   4.185  14.304  0.00  0.00    +0.000 C 
ATOM     27  C   UNL     1       6.936   4.948  14.889  0.00  0.00    +0.000 C 
ENDBRANCH  20  27
ENDBRANCH  18  24
ENDBRANCH  15  18
ENDBRANCH   1  15
TORSDOF 6
ENDMDL
MODEL 9
REMARK VINA RESULT:      -7.8      0.837      1.601
REMARK  Name = 
REMARK  7 active torsions:
REMARK  status: ('A' for Active; 'I' for Inactive)
REMARK    1  A    between atoms: C_1  and  C_2
REMARK    2  A    between atoms: C_2  and  C_3
REMARK    3  A    between atoms: C_7  and  N_8
REMARK    4  A    between atoms: N_8  and  S_9
REMARK    5  A    between atoms: S_9  and  C_12
REMARK    6  A    between atoms: C_15  and  C_16
REMARK    7  A    between atoms: C_19  and  C_20
REMARK                            x       y       z     vdW  Elec       q    Type
REMARK                         _______ _______ _______ _____ _____    ______ ____
ROOT
ATOM      1  C   UNL     1       6.875   6.385  17.659  0.00  0.00    +0.000 A 
ATOM      2  C   UNL     1       7.872   6.375  18.635  0.00  0.00    +0.000 A 
ATOM      3  C   UNL     1       8.526   7.568  18.975  0.00  0.00    +0.000 A 
ATOM      4  C   UNL     1       8.227   8.789  18.338  0.00  0.00    +0.000 A 
ATOM      5  C   UNL     1       7.225   8.761  17.347  0.00  0.00    +0.000 A 
ATOM      6  C   UNL     1       6.553   7.576  17.007  0.00  0.00    +0.000 A 
ENDROOT
BRANCH   4   7
ATOM      7  C   UNL     1       8.949  10.040  18.689  0.00  0.00    +0.000 A 
ATOM      8  C   UNL     1       9.109  11.083  17.755  0.00  0.00    +0.000 A 
ATOM      9  C   UNL     1       9.820  12.252  18.066  0.00  0.00    +0.000 A 
ATOM     10  C   UNL     1      10.374  12.414  19.336  0.00  0.00    +0.000 A 
ATOM     11  C   UNL     1      10.213  11.409  20.285  0.00  0.00    +0.000 A 
ATOM     12  C   UNL     1       9.512  10.237  19.965  0.00  0.00    +0.000 A 
BRANCH  10  13
ATOM     13  C   UNL     1      11.111  13.605  19.659  0.00  0.00    +0.000 C 
ATOM     14  N   UNL     1      11.706  14.568  19.911  0.00  0.00    +0.000 NA
ENDBRANCH  10  13
ENDBRANCH   4   7
BRANCH   1  15
ATOM     15  S   UNL     1       6.159   4.844  17.112  0.00  0.00    +0.000 S 
ATOM     16  O   UNL     1       7.223   4.102  16.464  0.00  0.00    +0.000 OA
ATOM     17  O   UNL     1       4.935   5.148  16.400  0.00  0.00    +0.000 OA
BRANCH  15  18
ATOM     18  N   UNL     1       5.789   3.997  18.512  0.00  0.00    +0.000 N 
ATOM     19  H   UNL     1       6.146   4.462  19.342  0.00  0.00    +0.000 HD
BRANCH  18  24
ATOM     20  C   UNL     1       2.479   3.847  19.792  0.00  0.00    +0.000 A 
ATOM     21  C   UNL     1       1.928   2.730  19.164  0.00  0.00    +0.000 A 
ATOM     22  C   UNL     1       2.704   2.019  18.254  0.00  0.00    +0.000 A 
ATOM     23  C   UNL     1       3.998   2.447  17.987  0.00  0.00    +0.000 A 
ATOM     24  C   UNL     1       4.465   3.556  18.668  0.00  0.00    +0.000 A 
ATOM     25  N   UNL     1       3.749   4.268  19.556  0.00  0.00    +0.000 NA
BRANCH  20  27
ATOM     26  C   UNL     1       1.769   6.141  20.525  0.00  0.00    +0.000 C 
ATOM     27  C   UNL     1       1.655   4.645  20.771  0.00  0.00    +0.000 C 
ENDBRANCH  20  27
ENDBRANCH  18  24
ENDBRANCH  15  18
ENDBRANCH   1  15
TORSDOF 6
ENDMDL
