MODEL 1
REMARK VINA RESULT:      -8.5      0.000      0.000
REMARK  Name = 
REMARK  3 active torsions:
REMARK  status: ('A' for Active; 'I' for Inactive)
REMARK    1  A    between atoms: C_1  and  C_2
REMARK    2  A    between atoms: C_4  and  N_5
REMARK    3  A    between atoms: N_8  and  C_9
REMARK                            x       y       z     vdW  Elec       q    Type
REMARK                         _______ _______ _______ _____ _____    ______ ____
ROOT
ATOM      1  N   UNL     1       2.047   7.753  19.727  0.00  0.00    +0.000 N 
ATOM      2  C   UNL     1       1.070   7.698  20.825  0.00  0.00    +0.000 C 
ATOM      3  C   UNL     1       0.891   9.129  21.379  0.00  0.00    +0.000 C 
ATOM      4  N   UNL     1       0.478  10.024  20.277  0.00  0.00    +0.000 N 
ATOM      5  C   UNL     1       1.446  10.060  19.156  0.00  0.00    +0.000 C 
ATOM      6  C   UNL     1       1.635   8.620  18.608  0.00  0.00    +0.000 C 
ENDROOT
BRANCH   1  10
ATOM      7  C   UNL     1       2.279   2.922  20.029  0.00  0.00    +0.000 C 
ATOM      8  C   UNL     1       2.796   4.239  19.544  0.00  0.00    +0.000 A 
ATOM      9  C   UNL     1       2.270   5.413  20.016  0.00  0.00    +0.000 A 
ATOM     10  C   UNL     1       2.720   6.577  19.434  0.00  0.00    +0.000 A 
ATOM     11  N   UNL     1       3.683   6.571  18.498  0.00  0.00    +0.000 NA
ATOM     12  C   UNL     1       4.188   5.390  18.111  0.00  0.00    +0.000 A 
ATOM     13  N   UNL     1       5.245   5.358  17.233  0.00  0.00    +0.000 N 
ATOM     14  C   UNL     1       5.822   6.604  16.735  0.00  0.00    +0.000 C 
ATOM     15  C   UNL     1       7.290   6.331  16.320  0.00  0.00    +0.000 C 
ATOM     16  N   UNL     1       7.458   5.205  15.375  0.00  0.00    +0.000 NA
ATOM     17  C   UNL     1       6.769   4.004  15.895  0.00  0.00    +0.000 C 
ATOM     18  C   UNL     1       5.295   4.254  16.277  0.00  0.00    +0.000 C 
ATOM     19  N   UNL     1       3.749   4.217  18.597  0.00  0.00    +0.000 NA
ATOM     20  H   UNL     1       8.453   4.994  15.293  0.00  0.00    +0.000 HD
ENDBRANCH   1  10
BRANCH   4  21
ATOM     21  C   UNL     1      -0.459  11.023  20.480  0.00  0.00    +0.000 A 
ATOM     22  C   UNL     1      -0.328  11.900  21.565  0.00  0.00    +0.000 A 
ATOM     23  C   UNL     1      -1.294  12.861  21.787  0.00  0.00    +0.000 A 
ATOM     24  N   UNL     1      -2.367  13.042  20.999  0.00  0.00    +0.000 NA
ATOM     25  C   UNL     1      -2.513  12.220  19.949  0.00  0.00    +0.000 A 
ATOM     26  C   UNL     1      -3.632  12.402  19.154  0.00  0.00    +0.000 A 
ATOM     27  C   UNL     1      -3.896  11.589  18.055  0.00  0.00    +0.000 A 
ATOM     28 CL   UNL     1      -5.280  11.875  17.076  0.00  0.00    +0.000 Cl
ATOM     29  C   UNL     1      -3.053  10.534  17.760  0.00  0.00    +0.000 A 
ATOM     30  C   UNL     1      -1.943  10.312  18.572  0.00  0.00    +0.000 A 
ATOM     31  C   UNL     1      -1.613  11.172  19.654  0.00  0.00    +0.000 A 
ENDBRANCH   4  21
TORSDOF 2
ENDMDL
MODEL 2
REMARK VINA RESULT:      -8.5      2.472      3.074
REMARK  Name = 
REMARK  3 active torsions:
REMARK  status: ('A' for Active; 'I' for Inactive)
REMARK    1  A    between atoms: C_1  and  C_2
REMARK    2  A    between atoms: C_4  and  N_5
REMARK    3  A    between atoms: N_8  and  C_9
REMARK                            x       y       z     vdW  Elec       q    Type
REMARK                         _______ _______ _______ _____ _____    ______ ____
ROOT
ATOM      1  N   UNL     1       1.604   8.072  19.654  0.00  0.00    +0.000 N 
ATOM      2  C   UNL     1       1.715   9.034  18.548  0.00  0.00    +0.000 C 
ATOM      3  C   UNL     1       0.412   9.861  18.499  0.00  0.00    +0.000 C 
ATOM      4  N   UNL     1       0.200  10.506  19.812  0.00  0.00    +0.000 N 
ATOM      5  C   UNL     1       0.115   9.542  20.933  0.00  0.00    +0.000 C 
ATOM      6  C   UNL     1       1.421   8.703  20.975  0.00  0.00    +0.000 C 
ENDROOT
BRANCH   1  10
ATOM      7  C   UNL     1       2.217   3.369  20.651  0.00  0.00    +0.000 C 
ATOM      8  C   UNL     1       2.656   4.651  20.018  0.00  0.00    +0.000 A 
ATOM      9  C   UNL     1       2.000   5.824  20.285  0.00  0.00    +0.000 A 
ATOM     10  C   UNL     1       2.393   6.936  19.573  0.00  0.00    +0.000 A 
ATOM     11  N   UNL     1       3.422   6.893  18.710  0.00  0.00    +0.000 NA
ATOM     12  C   UNL     1       4.051   5.722  18.526  0.00  0.00    +0.000 A 
ATOM     13  N   UNL     1       5.170   5.671  17.730  0.00  0.00    +0.000 N 
ATOM     14  C   UNL     1       5.676   6.886  17.098  0.00  0.00    +0.000 C 
ATOM     15  C   UNL     1       7.189   6.698  16.819  0.00  0.00    +0.000 C 
ATOM     16  N   UNL     1       7.522   5.475  16.055  0.00  0.00    +0.000 NA
ATOM     17  C   UNL     1       6.899   4.296  16.696  0.00  0.00    +0.000 C 
ATOM     18  C   UNL     1       5.384   4.457  16.945  0.00  0.00    +0.000 C 
ATOM     19  N   UNL     1       3.676   4.591  19.145  0.00  0.00    +0.000 NA
ATOM     20  H   UNL     1       8.534   5.349  16.067  0.00  0.00    +0.000 HD
ENDBRANCH   1  10
BRANCH   4  21
ATOM     21  C   UNL     1      -0.297  11.795  19.904  0.00  0.00    +0.000 A 
ATOM     22  C   UNL     1      -1.592  12.016  20.392  0.00  0.00    +0.000 A 
ATOM     23  C   UNL     1      -2.096  13.300  20.433  0.00  0.00    +0.000 A 
ATOM     24  N   UNL     1      -1.407  14.390  20.056  0.00  0.00    +0.000 NA
ATOM     25  C   UNL     1      -0.162  14.207  19.591  0.00  0.00    +0.000 A 
ATOM     26  C   UNL     1       0.535  15.334  19.188  0.00  0.00    +0.000 A 
ATOM     27  C   UNL     1       1.823  15.257  18.665  0.00  0.00    +0.000 A 
ATOM     28 CL   UNL     1       2.662  16.687  18.209  0.00  0.00    +0.000 Cl
ATOM     29  C   UNL     1       2.424  14.025  18.492  0.00  0.00    +0.000 A 
ATOM     30  C   UNL     1       1.723  12.876  18.857  0.00  0.00    +0.000 A 
ATOM     31  C   UNL     1       0.438  12.935  19.460  0.00  0.00    +0.000 A 
ENDBRANCH   4  21
TORSDOF 2
ENDMDL
MODEL 3
REMARK VINA RESULT:      -8.4      1.404      3.080
REMARK  Name = 
REMARK  3 active torsions:
REMARK  status: ('A' for Active; 'I' for Inactive)
REMARK    1  A    between atoms: C_1  and  C_2
REMARK    2  A    between atoms: C_4  and  N_5
REMARK    3  A    between atoms: N_8  and  C_9
REMARK                            x       y       z     vdW  Elec       q    Type
REMARK                         _______ _______ _______ _____ _____    ______ ____
ROOT
ATOM      1  N   UNL     1       2.056   8.577  18.777  0.00  0.00    +0.000 N 
ATOM      2  C   UNL     1       1.190   8.340  19.940  0.00  0.00    +0.000 C 
ATOM      3  C   UNL     1       0.959   9.692  20.651  0.00  0.00    +0.000 C 
ATOM      4  N   UNL     1       0.385  10.652  19.684  0.00  0.00    +0.000 N 
ATOM      5  C   UNL     1       1.242  10.873  18.496  0.00  0.00    +0.000 C 
ATOM      6  C   UNL     1       1.483   9.512  17.790  0.00  0.00    +0.000 C 
ENDROOT
BRANCH   1  10
ATOM      7  C   UNL     1       6.114   6.866  16.756  0.00  0.00    +0.000 C 
ATOM      8  C   UNL     1       4.768   6.672  17.378  0.00  0.00    +0.000 A 
ATOM      9  C   UNL     1       3.954   7.745  17.631  0.00  0.00    +0.000 A 
ATOM     10  C   UNL     1       2.782   7.493  18.310  0.00  0.00    +0.000 A 
ATOM     11  N   UNL     1       2.416   6.244  18.645  0.00  0.00    +0.000 NA
ATOM     12  C   UNL     1       3.239   5.233  18.330  0.00  0.00    +0.000 A 
ATOM     13  N   UNL     1       2.844   3.938  18.567  0.00  0.00    +0.000 N 
ATOM     14  C   UNL     1       1.531   3.666  19.147  0.00  0.00    +0.000 C 
ATOM     15  C   UNL     1       1.101   2.236  18.734  0.00  0.00    +0.000 C 
ATOM     16  N   UNL     1       2.094   1.184  19.048  0.00  0.00    +0.000 NA
ATOM     17  C   UNL     1       3.419   1.568  18.515  0.00  0.00    +0.000 C 
ATOM     18  C   UNL     1       3.876   2.977  18.950  0.00  0.00    +0.000 C 
ATOM     19  N   UNL     1       4.421   5.421  17.722  0.00  0.00    +0.000 NA
ATOM     20  H   UNL     1       1.804   0.317  18.596  0.00  0.00    +0.000 HD
ENDBRANCH   1  10
BRANCH   4  21
ATOM     21  C   UNL     1      -0.599  11.549  20.066  0.00  0.00    +0.000 A 
ATOM     22  C   UNL     1      -0.358  12.457  21.104  0.00  0.00    +0.000 A 
ATOM     23  C   UNL     1      -1.363  13.313  21.510  0.00  0.00    +0.000 A 
ATOM     24  N   UNL     1      -2.581  13.361  20.946  0.00  0.00    +0.000 NA
ATOM     25  C   UNL     1      -2.835  12.507  19.944  0.00  0.00    +0.000 A 
ATOM     26  C   UNL     1      -4.100  12.551  19.380  0.00  0.00    +0.000 A 
ATOM     27  C   UNL     1      -4.480  11.692  18.352  0.00  0.00    +0.000 A 
ATOM     28 CL   UNL     1      -6.050  11.807  17.660  0.00  0.00    +0.000 Cl
ATOM     29  C   UNL     1      -3.599  10.728  17.899  0.00  0.00    +0.000 A 
ATOM     30  C   UNL     1      -2.335  10.643  18.481  0.00  0.00    +0.000 A 
ATOM     31  C   UNL     1      -1.900  11.555  19.479  0.00  0.00    +0.000 A 
ENDBRANCH   4  21
TORSDOF 2
ENDMDL
MODEL 4
REMARK VINA RESULT:      -8.3      3.909      9.134
REMARK  Name = 
REMARK  3 active torsions:
REMARK  status: ('A' for Active; 'I' for Inactive)
REMARK    1  A    between atoms: C_1  and  C_2
REMARK    2  A    between atoms: C_4  and  N_5
REMARK    3  A    between atoms: N_8  and  C_9
REMARK                            x       y       z     vdW  Elec       q    Type
REMARK                         _______ _______ _______ _____ _____    ______ ____
ROOT
ATOM      1  N   UNL     1       1.255  10.055  19.157  0.00  0.00    +0.000 N 
ATOM      2  C   UNL     1       1.530   9.442  17.849  0.00  0.00    +0.000 C 
ATOM      3  C   UNL     1       2.636   8.381  18.039  0.00  0.00    +0.000 C 
ATOM      4  N   UNL     1       2.196   7.404  19.058  0.00  0.00    +0.000 N 
ATOM      5  C   UNL     1       1.892   8.021  20.370  0.00  0.00    +0.000 C 
ATOM      6  C   UNL     1       0.789   9.096  20.176  0.00  0.00    +0.000 C 
ENDROOT
BRANCH   1  10
ATOM      7  C   UNL     1      -2.470  12.958  20.242  0.00  0.00    +0.000 C 
ATOM      8  C   UNL     1      -1.087  12.726  19.719  0.00  0.00    +0.000 A 
ATOM      9  C   UNL     1      -0.621  11.454  19.518  0.00  0.00    +0.000 A 
ATOM     10  C   UNL     1       0.699  11.324  19.146  0.00  0.00    +0.000 A 
ATOM     11  N   UNL     1       1.476  12.396  18.918  0.00  0.00    +0.000 NA
ATOM     12  C   UNL     1       0.945  13.616  19.092  0.00  0.00    +0.000 A 
ATOM     13  N   UNL     1       1.683  14.729  18.767  0.00  0.00    +0.000 N 
ATOM     14  C   UNL     1       3.031  14.583  18.226  0.00  0.00    +0.000 C 
ATOM     15  C   UNL     1       3.364  15.849  17.396  0.00  0.00    +0.000 C 
ATOM     16  N   UNL     1       3.176  17.123  18.124  0.00  0.00    +0.000 NA
ATOM     17  C   UNL     1       1.826  17.163  18.727  0.00  0.00    +0.000 C 
ATOM     18  C   UNL     1       1.496  15.925  19.587  0.00  0.00    +0.000 C 
ATOM     19  N   UNL     1      -0.317  13.806  19.511  0.00  0.00    +0.000 NA
ATOM     20  H   UNL     1       3.254  17.893  17.459  0.00  0.00    +0.000 HD
ENDBRANCH   1  10
BRANCH   4  21
ATOM     21  C   UNL     1       2.470   6.053  18.920  0.00  0.00    +0.000 A 
ATOM     22  C   UNL     1       1.852   5.121  19.763  0.00  0.00    +0.000 A 
ATOM     23  C   UNL     1       2.169   3.782  19.651  0.00  0.00    +0.000 A 
ATOM     24  N   UNL     1       3.031   3.289  18.745  0.00  0.00    +0.000 NA
ATOM     25  C   UNL     1       3.631   4.160  17.921  0.00  0.00    +0.000 A 
ATOM     26  C   UNL     1       4.531   3.644  17.003  0.00  0.00    +0.000 A 
ATOM     27  C   UNL     1       5.231   4.460  16.117  0.00  0.00    +0.000 A 
ATOM     28 CL   UNL     1       6.312   3.771  14.972  0.00  0.00    +0.000 Cl
ATOM     29  C   UNL     1       5.071   5.832  16.172  0.00  0.00    +0.000 A 
ATOM     30  C   UNL     1       4.197   6.371  17.115  0.00  0.00    +0.000 A 
ATOM     31  C   UNL     1       3.419   5.555  17.978  0.00  0.00    +0.000 A 
ENDBRANCH   4  21
TORSDOF 2
ENDMDL
MODEL 5
REMARK VINA RESULT:      -8.2      3.551      9.224
REMARK  Name = 
REMARK  3 active torsions:
REMARK  status: ('A' for Active; 'I' for Inactive)
REMARK    1  A    between atoms: C_1  and  C_2
REMARK    2  A    between atoms: C_4  and  N_5
REMARK    3  A    between atoms: N_8  and  C_9
REMARK                            x       y       z     vdW  Elec       q    Type
REMARK                         _______ _______ _______ _____ _____    ______ ____
ROOT
ATOM      1  N   UNL     1       1.261   9.418  20.039  0.00  0.00    +0.000 N 
ATOM      2  C   UNL     1       1.242   9.246  18.580  0.00  0.00    +0.000 C 
ATOM      3  C   UNL     1       2.392   8.290  18.194  0.00  0.00    +0.000 C 
ATOM      4  N   UNL     1       2.231   7.020  18.932  0.00  0.00    +0.000 N 
ATOM      5  C   UNL     1       2.223   7.192  20.404  0.00  0.00    +0.000 C 
ATOM      6  C   UNL     1       1.073   8.162  20.789  0.00  0.00    +0.000 C 
ENDROOT
BRANCH   1  10
ATOM      7  C   UNL     1      -1.779  11.507  23.182  0.00  0.00    +0.000 C 
ATOM      8  C   UNL     1      -0.755  11.576  22.094  0.00  0.00    +0.000 A 
ATOM      9  C   UNL     1      -0.348  10.440  21.445  0.00  0.00    +0.000 A 
ATOM     10  C   UNL     1       0.680  10.573  20.538  0.00  0.00    +0.000 A 
ATOM     11  N   UNL     1       1.212  11.773  20.246  0.00  0.00    +0.000 NA
ATOM     12  C   UNL     1       0.738  12.852  20.886  0.00  0.00    +0.000 A 
ATOM     13  N   UNL     1       1.189  14.102  20.534  0.00  0.00    +0.000 N 
ATOM     14  C   UNL     1       2.170  14.252  19.462  0.00  0.00    +0.000 C 
ATOM     15  C   UNL     1       2.027  15.676  18.867  0.00  0.00    +0.000 C 
ATOM     16  N   UNL     1       2.100  16.766  19.865  0.00  0.00    +0.000 NA
ATOM     17  C   UNL     1       1.151  16.501  20.969  0.00  0.00    +0.000 C 
ATOM     18  C   UNL     1       1.308  15.099  21.595  0.00  0.00    +0.000 C 
ATOM     19  N   UNL     1      -0.221  12.778  21.824  0.00  0.00    +0.000 NA
ATOM     20  H   UNL     1       1.831  17.640  19.413  0.00  0.00    +0.000 HD
ENDBRANCH   1  10
BRANCH   4  21
ATOM     21  C   UNL     1       2.505   5.803  18.330  0.00  0.00    +0.000 A 
ATOM     22  C   UNL     1       1.664   4.705  18.551  0.00  0.00    +0.000 A 
ATOM     23  C   UNL     1       1.973   3.483  17.987  0.00  0.00    +0.000 A 
ATOM     24  N   UNL     1       3.037   3.271  17.194  0.00  0.00    +0.000 NA
ATOM     25  C   UNL     1       3.854   4.308  16.960  0.00  0.00    +0.000 A 
ATOM     26  C   UNL     1       4.958   4.074  16.157  0.00  0.00    +0.000 A 
ATOM     27  C   UNL     1       5.887   5.072  15.871  0.00  0.00    +0.000 A 
ATOM     28 CL   UNL     1       7.223   4.745  14.840  0.00  0.00    +0.000 Cl
ATOM     29  C   UNL     1       5.745   6.326  16.435  0.00  0.00    +0.000 A 
ATOM     30  C   UNL     1       4.661   6.568  17.277  0.00  0.00    +0.000 A 
ATOM     31  C   UNL     1       3.663   5.589  17.524  0.00  0.00    +0.000 A 
ENDBRANCH   4  21
TORSDOF 2
ENDMDL
MODEL 6
REMARK VINA RESULT:      -8.1      2.375      2.930
REMARK  Name = 
REMARK  3 active torsions:
REMARK  status: ('A' for Active; 'I' for Inactive)
REMARK    1  A    between atoms: C_1  and  C_2
REMARK    2  A    between atoms: C_4  and  N_5
REMARK    3  A    between atoms: N_8  and  C_9
REMARK                            x       y       z     vdW  Elec       q    Type
REMARK                         _______ _______ _______ _____ _____    ______ ____
ROOT
ATOM      1  N   UNL     1       1.485   7.966  20.339  0.00  0.00    +0.000 N 
ATOM      2  C   UNL     1       1.492   8.988  19.282  0.00  0.00    +0.000 C 
ATOM      3  C   UNL     1       0.384  10.016  19.601  0.00  0.00    +0.000 C 
ATOM      4  N   UNL     1       0.618  10.573  20.950  0.00  0.00    +0.000 N 
ATOM      5  C   UNL     1       0.639   9.543  22.015  0.00  0.00    +0.000 C 
ATOM      6  C   UNL     1       1.745   8.504  21.687  0.00  0.00    +0.000 C 
ENDROOT
BRANCH   1  10
ATOM      7  C   UNL     1       1.213   3.136  20.612  0.00  0.00    +0.000 C 
ATOM      8  C   UNL     1       1.846   4.395  20.109  0.00  0.00    +0.000 A 
ATOM      9  C   UNL     1       1.469   5.614  20.608  0.00  0.00    +0.000 A 
ATOM     10  C   UNL     1       2.015   6.729  20.011  0.00  0.00    +0.000 A 
ATOM     11  N   UNL     1       2.931   6.627  19.034  0.00  0.00    +0.000 NA
ATOM     12  C   UNL     1       3.289   5.403  18.620  0.00  0.00    +0.000 A 
ATOM     13  N   UNL     1       4.297   5.266  17.696  0.00  0.00    +0.000 N 
ATOM     14  C   UNL     1       4.982   6.448  17.178  0.00  0.00    +0.000 C 
ATOM     15  C   UNL     1       6.394   6.023  16.699  0.00  0.00    +0.000 C 
ATOM     16  N   UNL     1       6.400   4.894  15.742  0.00  0.00    +0.000 NA
ATOM     17  C   UNL     1       5.610   3.769  16.288  0.00  0.00    +0.000 C 
ATOM     18  C   UNL     1       4.188   4.171  16.735  0.00  0.00    +0.000 C 
ATOM     19  N   UNL     1       2.749   4.280  19.121  0.00  0.00    +0.000 NA
ATOM     20  H   UNL     1       7.362   4.579  15.616  0.00  0.00    +0.000 HD
ENDBRANCH   1  10
BRANCH   4  21
ATOM     21  C   UNL     1       0.396  11.914  21.220  0.00  0.00    +0.000 A 
ATOM     22  C   UNL     1       1.277  12.885  20.726  0.00  0.00    +0.000 A 
ATOM     23  C   UNL     1       1.075  14.213  21.042  0.00  0.00    +0.000 A 
ATOM     24  N   UNL     1       0.049  14.660  21.785  0.00  0.00    +0.000 NA
ATOM     25  C   UNL     1      -0.813  13.751  22.264  0.00  0.00    +0.000 A 
ATOM     26  C   UNL     1      -1.857  14.220  23.045  0.00  0.00    +0.000 A 
ATOM     27  C   UNL     1      -2.794  13.362  23.615  0.00  0.00    +0.000 A 
ATOM     28 CL   UNL     1      -4.094  13.992  24.548  0.00  0.00    +0.000 Cl
ATOM     29  C   UNL     1      -2.669  11.996  23.447  0.00  0.00    +0.000 A 
ATOM     30  C   UNL     1      -1.603  11.504  22.696  0.00  0.00    +0.000 A 
ATOM     31  C   UNL     1      -0.678  12.362  22.045  0.00  0.00    +0.000 A 
ENDBRANCH   4  21
TORSDOF 2
ENDMDL
MODEL 7
REMARK VINA RESULT:      -8.0      2.949      9.788
REMARK  Name = 
REMARK  3 active torsions:
REMARK  status: ('A' for Active; 'I' for Inactive)
REMARK    1  A    between atoms: C_1  and  C_2
REMARK    2  A    between atoms: C_4  and  N_5
REMARK    3  A    between atoms: N_8  and  C_9
REMARK                            x       y       z     vdW  Elec       q    Type
REMARK                         _______ _______ _______ _____ _____    ______ ____
ROOT
ATOM      1  N   UNL     1      -0.111  10.309  19.410  0.00  0.00    +0.000 N 
ATOM      2  C   UNL     1       0.055   9.794  18.043  0.00  0.00    +0.000 C 
ATOM      3  C   UNL     1       1.534   9.389  17.859  0.00  0.00    +0.000 C 
ATOM      4  N   UNL     1       1.897   8.404  18.900  0.00  0.00    +0.000 N 
ATOM      5  C   UNL     1       1.705   8.908  20.279  0.00  0.00    +0.000 C 
ATOM      6  C   UNL     1       0.221   9.327  20.459  0.00  0.00    +0.000 C 
ENDROOT
BRANCH   1  10
ATOM      7  C   UNL     1      -4.460  11.947  18.038  0.00  0.00    +0.000 C 
ATOM      8  C   UNL     1      -3.300  11.916  18.982  0.00  0.00    +0.000 A 
ATOM      9  C   UNL     1      -2.151  11.245  18.656  0.00  0.00    +0.000 A 
ATOM     10  C   UNL     1      -1.176  11.168  19.626  0.00  0.00    +0.000 A 
ATOM     11  N   UNL     1      -1.312  11.785  20.812  0.00  0.00    +0.000 NA
ATOM     12  C   UNL     1      -2.444  12.463  21.052  0.00  0.00    +0.000 A 
ATOM     13  N   UNL     1      -2.567  13.189  22.212  0.00  0.00    +0.000 N 
ATOM     14  C   UNL     1      -1.467  13.230  23.172  0.00  0.00    +0.000 C 
ATOM     15  C   UNL     1      -1.591  14.534  24.001  0.00  0.00    +0.000 C 
ATOM     16  N   UNL     1      -2.912  14.728  24.639  0.00  0.00    +0.000 NA
ATOM     17  C   UNL     1      -3.984  14.579  23.630  0.00  0.00    +0.000 C 
ATOM     18  C   UNL     1      -3.893  13.267  22.822  0.00  0.00    +0.000 C 
ATOM     19  N   UNL     1      -3.455  12.525  20.170  0.00  0.00    +0.000 NA
ATOM     20  H   UNL     1      -2.955  15.675  25.015  0.00  0.00    +0.000 HD
ENDBRANCH   1  10
BRANCH   4  21
ATOM     21  C   UNL     1       2.723   7.330  18.612  0.00  0.00    +0.000 A 
ATOM     22  C   UNL     1       3.615   7.399  17.534  0.00  0.00    +0.000 A 
ATOM     23  C   UNL     1       4.399   6.305  17.225  0.00  0.00    +0.000 A 
ATOM     24  N   UNL     1       4.390   5.155  17.920  0.00  0.00    +0.000 NA
ATOM     25  C   UNL     1       3.549   5.065  18.961  0.00  0.00    +0.000 A 
ATOM     26  C   UNL     1       3.534   3.870  19.660  0.00  0.00    +0.000 A 
ATOM     27  C   UNL     1       2.682   3.659  20.741  0.00  0.00    +0.000 A 
ATOM     28 CL   UNL     1       2.722   2.170  21.601  0.00  0.00    +0.000 Cl
ATOM     29  C   UNL     1       1.785   4.641  21.113  0.00  0.00    +0.000 A 
ATOM     30  C   UNL     1       1.759   5.837  20.397  0.00  0.00    +0.000 A 
ATOM     31  C   UNL     1       2.668   6.103  19.339  0.00  0.00    +0.000 A 
ENDBRANCH   4  21
TORSDOF 2
ENDMDL
MODEL 8
REMARK VINA RESULT:      -7.9      2.080      2.703
REMARK  Name = 
REMARK  3 active torsions:
REMARK  status: ('A' for Active; 'I' for Inactive)
REMARK    1  A    between atoms: C_1  and  C_2
REMARK    2  A    between atoms: C_4  and  N_5
REMARK    3  A    between atoms: N_8  and  C_9
REMARK                            x       y       z     vdW  Elec       q    Type
REMARK                         _______ _______ _______ _____ _____    ______ ____
ROOT
ATOM      1  N   UNL     1       1.558   8.095  19.716  0.00  0.00    +0.000 N 
ATOM      2  C   UNL     1       1.711   9.090  18.645  0.00  0.00    +0.000 C 
ATOM      3  C   UNL     1       0.414   9.925  18.575  0.00  0.00    +0.000 C 
ATOM      4  N   UNL     1       0.161  10.532  19.899  0.00  0.00    +0.000 N 
ATOM      5  C   UNL     1       0.033   9.535  20.988  0.00  0.00    +0.000 C 
ATOM      6  C   UNL     1       1.332   8.688  21.048  0.00  0.00    +0.000 C 
ENDROOT
BRANCH   1  10
ATOM      7  C   UNL     1       2.160   3.386  20.684  0.00  0.00    +0.000 C 
ATOM      8  C   UNL     1       2.602   4.670  20.058  0.00  0.00    +0.000 A 
ATOM      9  C   UNL     1       1.949   5.843  20.333  0.00  0.00    +0.000 A 
ATOM     10  C   UNL     1       2.344   6.958  19.628  0.00  0.00    +0.000 A 
ATOM     11  N   UNL     1       3.372   6.918  18.764  0.00  0.00    +0.000 NA
ATOM     12  C   UNL     1       3.998   5.747  18.573  0.00  0.00    +0.000 A 
ATOM     13  N   UNL     1       5.117   5.697  17.775  0.00  0.00    +0.000 N 
ATOM     14  C   UNL     1       5.626   6.915  17.150  0.00  0.00    +0.000 C 
ATOM     15  C   UNL     1       7.138   6.725  16.870  0.00  0.00    +0.000 C 
ATOM     16  N   UNL     1       7.468   5.506  16.098  0.00  0.00    +0.000 NA
ATOM     17  C   UNL     1       6.842   4.325  16.732  0.00  0.00    +0.000 C 
ATOM     18  C   UNL     1       5.328   4.488  16.983  0.00  0.00    +0.000 C 
ATOM     19  N   UNL     1       3.621   4.612  19.185  0.00  0.00    +0.000 NA
ATOM     20  H   UNL     1       8.479   5.378  16.109  0.00  0.00    +0.000 HD
ENDBRANCH   1  10
BRANCH   4  21
ATOM     21  C   UNL     1      -0.334  11.821  20.013  0.00  0.00    +0.000 A 
ATOM     22  C   UNL     1      -0.034  12.777  19.034  0.00  0.00    +0.000 A 
ATOM     23  C   UNL     1      -0.490  14.072  19.182  0.00  0.00    +0.000 A 
ATOM     24  N   UNL     1      -1.247  14.487  20.212  0.00  0.00    +0.000 NA
ATOM     25  C   UNL     1      -1.554  13.589  21.159  0.00  0.00    +0.000 A 
ATOM     26  C   UNL     1      -2.319  14.032  22.226  0.00  0.00    +0.000 A 
ATOM     27  C   UNL     1      -2.674  13.192  23.278  0.00  0.00    +0.000 A 
ATOM     28 CL   UNL     1      -3.654  13.776  24.563  0.00  0.00    +0.000 Cl
ATOM     29  C   UNL     1      -2.219  11.887  23.301  0.00  0.00    +0.000 A 
ATOM     30  C   UNL     1      -1.416  11.435  22.255  0.00  0.00    +0.000 A 
ATOM     31  C   UNL     1      -1.103  12.251  21.136  0.00  0.00    +0.000 A 
ENDBRANCH   4  21
TORSDOF 2
ENDMDL
MODEL 9
REMARK VINA RESULT:      -7.8      3.935      9.073
REMARK  Name = 
REMARK  3 active torsions:
REMARK  status: ('A' for Active; 'I' for Inactive)
REMARK    1  A    between atoms: C_1  and  C_2
REMARK    2  A    between atoms: C_4  and  N_5
REMARK    3  A    between atoms: N_8  and  C_9
REMARK                            x       y       z     vdW  Elec       q    Type
REMARK                         _______ _______ _______ _____ _____    ______ ____
ROOT
ATOM      1  N   UNL     1       1.089  10.048  19.203  0.00  0.00    +0.000 N 
ATOM      2  C   UNL     1       1.517   9.401  20.452  0.00  0.00    +0.000 C 
ATOM      3  C   UNL     1       1.369   7.873  20.276  0.00  0.00    +0.000 C 
ATOM      4  N   UNL     1       2.156   7.445  19.100  0.00  0.00    +0.000 N 
ATOM      5  C   UNL     1       1.747   8.115  17.844  0.00  0.00    +0.000 C 
ATOM      6  C   UNL     1       1.884   9.651  18.026  0.00  0.00    +0.000 C 
ENDROOT
BRANCH   1  10
ATOM      7  C   UNL     1      -2.178  13.249  20.803  0.00  0.00    +0.000 C 
ATOM      8  C   UNL     1      -0.893  12.906  20.117  0.00  0.00    +0.000 A 
ATOM      9  C   UNL     1      -0.584  11.605  19.822  0.00  0.00    +0.000 A 
ATOM     10  C   UNL     1       0.667  11.364  19.297  0.00  0.00    +0.000 A 
ATOM     11  N   UNL     1       1.518  12.365  19.017  0.00  0.00    +0.000 NA
ATOM     12  C   UNL     1       1.137  13.621  19.289  0.00  0.00    +0.000 A 
ATOM     13  N   UNL     1       1.942  14.671  18.919  0.00  0.00    +0.000 N 
ATOM     14  C   UNL     1       3.201  14.418  18.221  0.00  0.00    +0.000 C 
ATOM     15  C   UNL     1       3.566  15.682  17.400  0.00  0.00    +0.000 C 
ATOM     16  N   UNL     1       3.590  16.935  18.186  0.00  0.00    +0.000 NA
ATOM     17  C   UNL     1       2.326  17.079  18.941  0.00  0.00    +0.000 C 
ATOM     18  C   UNL     1       1.970  15.842  19.792  0.00  0.00    +0.000 C 
ATOM     19  N   UNL     1      -0.045  13.915  19.857  0.00  0.00    +0.000 NA
ATOM     20  H   UNL     1       3.671  17.722  17.542  0.00  0.00    +0.000 HD
ENDBRANCH   1  10
BRANCH   4  21
ATOM     21  C   UNL     1       2.866   6.256  19.108  0.00  0.00    +0.000 A 
ATOM     22  C   UNL     1       2.625   5.301  20.105  0.00  0.00    +0.000 A 
ATOM     23  C   UNL     1       3.372   4.141  20.134  0.00  0.00    +0.000 A 
ATOM     24  N   UNL     1       4.322   3.837  19.233  0.00  0.00    +0.000 NA
ATOM     25  C   UNL     1       4.567   4.731  18.263  0.00  0.00    +0.000 A 
ATOM     26  C   UNL     1       5.560   4.418  17.350  0.00  0.00    +0.000 A 
ATOM     27  C   UNL     1       5.914   5.285  16.320  0.00  0.00    +0.000 A 
ATOM     28 CL   UNL     1       7.130   4.838  15.189  0.00  0.00    +0.000 Cl
ATOM     29  C   UNL     1       5.302   6.520  16.217  0.00  0.00    +0.000 A 
ATOM     30  C   UNL     1       4.327   6.868  17.151  0.00  0.00    +0.000 A 
ATOM     31  C   UNL     1       3.897   5.972  18.165  0.00  0.00    +0.000 A 
ENDBRANCH   4  21
TORSDOF 2
ENDMDL
