MODEL 1
REMARK VINA RESULT:      -7.6      0.000      0.000
REMARK  Name = 
REMARK  10 active torsions:
REMARK  status: ('A' for Active; 'I' for Inactive)
REMARK    1  A    between atoms: C_1  and  C_2
REMARK    2  A    between atoms: C_2  and  N_3
REMARK    3  A    between atoms: N_3  and  C_4
REMARK    4  A    between atoms: N_3  and  C_6
REMARK    5  A    between atoms: C_4  and  C_5
REMARK    6  A    between atoms: C_9  and  N_10
REMARK    7  A    between atoms: C_11  and  C_13
REMARK    8  A    between atoms: C_19  and  C_20
REMARK    9  A    between atoms: C_21  and  C_22
REMARK   10  A    between atoms: N_23  and  C_24
REMARK                            x       y       z     vdW  Elec       q    Type
REMARK                         _______ _______ _______ _____ _____    ______ ____
ROOT
ATOM      1  N   UNL     1       2.249   7.765  18.833  0.00  0.00    +0.000 N 
ATOM      2  C   UNL     1       1.745   8.990  18.404  0.00  0.00    +0.000 C 
ATOM      3  O   UNL     1       1.993   9.552  17.344  0.00  0.00    +0.000 OA
ATOM      4  H   UNL     1       1.908   7.401  19.717  0.00  0.00    +0.000 HD
ENDROOT
BRANCH   2   5
ATOM      5  C   UNL     1       0.725   9.628  19.277  0.00  0.00    +0.000 A 
ATOM      6  C   UNL     1       0.707   9.255  20.635  0.00  0.00    +0.000 A 
ATOM      7  C   UNL     1       0.024  10.015  21.590  0.00  0.00    +0.000 A 
ATOM      8  C   UNL     1      -0.607  11.157  21.096  0.00  0.00    +0.000 A 
ATOM      9  C   UNL     1      -0.902  11.331  19.738  0.00  0.00    +0.000 A 
ATOM     10  C   UNL     1      -0.149  10.610  18.793  0.00  0.00    +0.000 A 
ATOM     11  C   UNL     1      -1.799  12.444  19.712  0.00  0.00    +0.000 A 
ATOM     12  C   UNL     1      -3.310  12.412  19.815  0.00  0.00    +0.000 C 
ATOM     13  C   UNL     1      -1.110  13.252  20.603  0.00  0.00    +0.000 A 
ATOM     14  C   UNL     1      -0.827  14.695  20.537  0.00  0.00    +0.000 C 
ATOM     15  N   UNL     1      -0.973  12.367  21.660  0.00  0.00    +0.000 N 
ATOM     16  C   UNL     1      -1.267  12.635  23.043  0.00  0.00    +0.000 C 
ENDBRANCH   2   5
BRANCH   1  20
ATOM     17  C   UNL     1       4.926   5.212  16.674  0.00  0.00    +0.000 A 
ATOM     18  C   UNL     1       3.920   4.701  17.503  0.00  0.00    +0.000 A 
ATOM     19  C   UNL     1       3.039   5.526  18.204  0.00  0.00    +0.000 A 
ATOM     20  C   UNL     1       3.126   6.908  18.118  0.00  0.00    +0.000 A 
ATOM     21  C   UNL     1       4.136   7.445  17.309  0.00  0.00    +0.000 A 
ATOM     22  C   UNL     1       5.023   6.608  16.593  0.00  0.00    +0.000 A 
BRANCH  17  23
ATOM     23  N   UNL     1       5.811   4.369  15.971  0.00  0.00    +0.000 N 
BRANCH  23  25
ATOM     24  C   UNL     1       7.609   4.597  17.705  0.00  0.00    +0.000 C 
ATOM     25  C   UNL     1       7.249   4.595  16.229  0.00  0.00    +0.000 C 
ENDBRANCH  23  25
BRANCH  23  26
ATOM     26  C   UNL     1       5.406   4.029  14.591  0.00  0.00    +0.000 C 
ATOM     27  C   UNL     1       6.547   4.094  13.581  0.00  0.00    +0.000 C 
ENDBRANCH  23  26
ENDBRANCH  17  23
ENDBRANCH   1  20
TORSDOF 5
ENDMDL
MODEL 2
REMARK VINA RESULT:      -7.3      1.768      3.066
REMARK  Name = 
REMARK  10 active torsions:
REMARK  status: ('A' for Active; 'I' for Inactive)
REMARK    1  A    between atoms: C_1  and  C_2
REMARK    2  A    between atoms: C_2  and  N_3
REMARK    3  A    between atoms: N_3  and  C_4
REMARK    4  A    between atoms: N_3  and  C_6
REMARK    5  A    between atoms: C_4  and  C_5
REMARK    6  A    between atoms: C_9  and  N_10
REMARK    7  A    between atoms: C_11  and  C_13
REMARK    8  A    between atoms: C_19  and  C_20
REMARK    9  A    between atoms: C_21  and  C_22
REMARK   10  A    between atoms: N_23  and  C_24
REMARK                            x       y       z     vdW  Elec       q    Type
REMARK                         _______ _______ _______ _____ _____    ______ ____
ROOT
ATOM      1  N   UNL     1       1.357   8.824  19.445  0.00  0.00    +0.000 N 
ATOM      2  C   UNL     1       0.887   9.134  20.718  0.00  0.00    +0.000 C 
ATOM      3  O   UNL     1       1.129   8.526  21.754  0.00  0.00    +0.000 OA
ATOM      4  H   UNL     1       1.113   9.455  18.689  0.00  0.00    +0.000 HD
ENDROOT
BRANCH   2   5
ATOM      5  C   UNL     1       0.096  10.386  20.845  0.00  0.00    +0.000 A 
ATOM      6  C   UNL     1      -0.584  10.843  19.700  0.00  0.00    +0.000 A 
ATOM      7  C   UNL     1      -1.596  11.805  19.791  0.00  0.00    +0.000 A 
ATOM      8  C   UNL     1      -1.879  12.247  21.084  0.00  0.00    +0.000 A 
ATOM      9  C   UNL     1      -0.987  12.083  22.151  0.00  0.00    +0.000 A 
ATOM     10  C   UNL     1      -0.025  11.060  22.067  0.00  0.00    +0.000 A 
ATOM     11  C   UNL     1      -1.509  12.928  23.179  0.00  0.00    +0.000 A 
ATOM     12  C   UNL     1      -1.192  14.391  23.420  0.00  0.00    +0.000 C 
ATOM     13  C   UNL     1      -2.842  12.572  23.046  0.00  0.00    +0.000 A 
ATOM     14  C   UNL     1      -3.847  12.291  24.084  0.00  0.00    +0.000 C 
ATOM     15  N   UNL     1      -3.004  12.782  21.686  0.00  0.00    +0.000 N 
ATOM     16  C   UNL     1      -4.072  13.513  21.055  0.00  0.00    +0.000 C 
ENDBRANCH   2   5
BRANCH   1  20
ATOM     17  C   UNL     1       3.976   5.595  18.414  0.00  0.00    +0.000 A 
ATOM     18  C   UNL     1       3.847   6.732  17.608  0.00  0.00    +0.000 A 
ATOM     19  C   UNL     1       3.002   7.792  17.940  0.00  0.00    +0.000 A 
ATOM     20  C   UNL     1       2.233   7.763  19.095  0.00  0.00    +0.000 A 
ATOM     21  C   UNL     1       2.330   6.628  19.911  0.00  0.00    +0.000 A 
ATOM     22  C   UNL     1       3.193   5.558  19.576  0.00  0.00    +0.000 A 
BRANCH  17  23
ATOM     23  N   UNL     1       4.832   4.530  18.068  0.00  0.00    +0.000 N 
BRANCH  23  25
ATOM     24  C   UNL     1       6.818   4.488  16.536  0.00  0.00    +0.000 C 
ATOM     25  C   UNL     1       6.256   4.888  17.889  0.00  0.00    +0.000 C 
ENDBRANCH  23  25
BRANCH  23  26
ATOM     26  C   UNL     1       4.258   3.522  17.153  0.00  0.00    +0.000 C 
ATOM     27  C   UNL     1       3.562   2.367  17.866  0.00  0.00    +0.000 C 
ENDBRANCH  23  26
ENDBRANCH  17  23
ENDBRANCH   1  20
TORSDOF 5
ENDMDL
MODEL 3
REMARK VINA RESULT:      -7.3      1.821      3.197
REMARK  Name = 
REMARK  10 active torsions:
REMARK  status: ('A' for Active; 'I' for Inactive)
REMARK    1  A    between atoms: C_1  and  C_2
REMARK    2  A    between atoms: C_2  and  N_3
REMARK    3  A    between atoms: N_3  and  C_4
REMARK    4  A    between atoms: N_3  and  C_6
REMARK    5  A    between atoms: C_4  and  C_5
REMARK    6  A    between atoms: C_9  and  N_10
REMARK    7  A    between atoms: C_11  and  C_13
REMARK    8  A    between atoms: C_19  and  C_20
REMARK    9  A    between atoms: C_21  and  C_22
REMARK   10  A    between atoms: N_23  and  C_24
REMARK                            x       y       z     vdW  Elec       q    Type
REMARK                         _______ _______ _______ _____ _____    ______ ____
ROOT
ATOM      1  N   UNL     1       1.320   8.735  19.522  0.00  0.00    +0.000 N 
ATOM      2  C   UNL     1       0.948   9.140  20.801  0.00  0.00    +0.000 C 
ATOM      3  O   UNL     1       1.287   8.622  21.858  0.00  0.00    +0.000 OA
ATOM      4  H   UNL     1       1.001   9.299  18.741  0.00  0.00    +0.000 HD
ENDROOT
BRANCH   2   5
ATOM      5  C   UNL     1       0.141  10.385  20.892  0.00  0.00    +0.000 A 
ATOM      6  C   UNL     1      -0.536  10.806  19.732  0.00  0.00    +0.000 A 
ATOM      7  C   UNL     1      -1.561  11.758  19.793  0.00  0.00    +0.000 A 
ATOM      8  C   UNL     1      -1.858  12.227  21.073  0.00  0.00    +0.000 A 
ATOM      9  C   UNL     1      -0.972  12.100  22.150  0.00  0.00    +0.000 A 
ATOM     10  C   UNL     1       0.003  11.086  22.097  0.00  0.00    +0.000 A 
ATOM     11  C   UNL     1      -1.511  12.962  23.153  0.00  0.00    +0.000 A 
ATOM     12  C   UNL     1      -1.214  14.434  23.361  0.00  0.00    +0.000 C 
ATOM     13  C   UNL     1      -2.839  12.587  23.020  0.00  0.00    +0.000 A 
ATOM     14  C   UNL     1      -3.848  12.318  24.058  0.00  0.00    +0.000 C 
ATOM     15  N   UNL     1      -2.993  12.762  21.654  0.00  0.00    +0.000 N 
ATOM     16  C   UNL     1      -4.065  13.465  20.999  0.00  0.00    +0.000 C 
ENDBRANCH   2   5
BRANCH   1  20
ATOM     17  C   UNL     1       3.918   5.475  18.535  0.00  0.00    +0.000 A 
ATOM     18  C   UNL     1       3.797   6.602  17.714  0.00  0.00    +0.000 A 
ATOM     19  C   UNL     1       2.959   7.673  18.032  0.00  0.00    +0.000 A 
ATOM     20  C   UNL     1       2.190   7.664  19.186  0.00  0.00    +0.000 A 
ATOM     21  C   UNL     1       2.278   6.539  20.017  0.00  0.00    +0.000 A 
ATOM     22  C   UNL     1       3.134   5.459  19.697  0.00  0.00    +0.000 A 
BRANCH  17  23
ATOM     23  N   UNL     1       4.767   4.400  18.204  0.00  0.00    +0.000 N 
BRANCH  23  25
ATOM     24  C   UNL     1       3.427   2.304  17.886  0.00  0.00    +0.000 C 
ATOM     25  C   UNL     1       4.385   3.087  18.767  0.00  0.00    +0.000 C 
ENDBRANCH  23  25
BRANCH  23  26
ATOM     26  C   UNL     1       6.208   4.724  18.135  0.00  0.00    +0.000 C 
ATOM     27  C   UNL     1       6.826   4.496  16.760  0.00  0.00    +0.000 C 
ENDBRANCH  23  26
ENDBRANCH  17  23
ENDBRANCH   1  20
TORSDOF 5
ENDMDL
MODEL 4
REMARK VINA RESULT:      -7.3      2.151      3.783
REMARK  Name = 
REMARK  10 active torsions:
REMARK  status: ('A' for Active; 'I' for Inactive)
REMARK    1  A    between atoms: C_1  and  C_2
REMARK    2  A    between atoms: C_2  and  N_3
REMARK    3  A    between atoms: N_3  and  C_4
REMARK    4  A    between atoms: N_3  and  C_6
REMARK    5  A    between atoms: C_4  and  C_5
REMARK    6  A    between atoms: C_9  and  N_10
REMARK    7  A    between atoms: C_11  and  C_13
REMARK    8  A    between atoms: C_19  and  C_20
REMARK    9  A    between atoms: C_21  and  C_22
REMARK   10  A    between atoms: N_23  and  C_24
REMARK                            x       y       z     vdW  Elec       q    Type
REMARK                         _______ _______ _______ _____ _____    ______ ____
ROOT
ATOM      1  N   UNL     1       0.430   9.674  19.870  0.00  0.00    +0.000 N 
ATOM      2  C   UNL     1       0.473  10.377  21.071  0.00  0.00    +0.000 C 
ATOM      3  O   UNL     1       1.333  10.288  21.938  0.00  0.00    +0.000 OA
ATOM      4  H   UNL     1      -0.321   9.896  19.224  0.00  0.00    +0.000 HD
ENDROOT
BRANCH   2   5
ATOM      5  C   UNL     1      -0.575  11.412  21.269  0.00  0.00    +0.000 A 
ATOM      6  C   UNL     1      -1.397  11.723  20.170  0.00  0.00    +0.000 A 
ATOM      7  C   UNL     1      -2.596  12.426  20.333  0.00  0.00    +0.000 A 
ATOM      8  C   UNL     1      -2.908  12.766  21.650  0.00  0.00    +0.000 A 
ATOM      9  C   UNL     1      -1.951  12.791  22.672  0.00  0.00    +0.000 A 
ATOM     10  C   UNL     1      -0.786  12.017  22.515  0.00  0.00    +0.000 A 
ATOM     11  C   UNL     1      -2.600  13.474  23.746  0.00  0.00    +0.000 A 
ATOM     12  C   UNL     1      -2.614  14.965  24.016  0.00  0.00    +0.000 C 
ATOM     13  C   UNL     1      -3.822  12.824  23.661  0.00  0.00    +0.000 A 
ATOM     14  C   UNL     1      -4.684  12.300  24.733  0.00  0.00    +0.000 C 
ATOM     15  N   UNL     1      -4.094  13.018  22.316  0.00  0.00    +0.000 N 
ATOM     16  C   UNL     1      -5.330  13.496  21.755  0.00  0.00    +0.000 C 
ENDBRANCH   2   5
BRANCH   1  20
ATOM     17  C   UNL     1       3.295   6.815  18.467  0.00  0.00    +0.000 A 
ATOM     18  C   UNL     1       2.936   7.938  17.712  0.00  0.00    +0.000 A 
ATOM     19  C   UNL     1       2.009   8.879  18.165  0.00  0.00    +0.000 A 
ATOM     20  C   UNL     1       1.386   8.737  19.396  0.00  0.00    +0.000 A 
ATOM     21  C   UNL     1       1.713   7.612  20.164  0.00  0.00    +0.000 A 
ATOM     22  C   UNL     1       2.659   6.665  19.707  0.00  0.00    +0.000 A 
BRANCH  17  23
ATOM     23  N   UNL     1       4.232   5.872  17.999  0.00  0.00    +0.000 N 
BRANCH  23  25
ATOM     24  C   UNL     1       4.590   3.585  18.964  0.00  0.00    +0.000 C 
ATOM     25  C   UNL     1       4.905   5.069  19.042  0.00  0.00    +0.000 C 
ENDBRANCH  23  25
BRANCH  23  26
ATOM     26  C   UNL     1       5.038   6.297  16.835  0.00  0.00    +0.000 C 
ATOM     27  C   UNL     1       6.467   6.696  17.187  0.00  0.00    +0.000 C 
ENDBRANCH  23  26
ENDBRANCH  17  23
ENDBRANCH   1  20
TORSDOF 5
ENDMDL
MODEL 5
REMARK VINA RESULT:      -7.3      2.060      3.296
REMARK  Name = 
REMARK  10 active torsions:
REMARK  status: ('A' for Active; 'I' for Inactive)
REMARK    1  A    between atoms: C_1  and  C_2
REMARK    2  A    between atoms: C_2  and  N_3
REMARK    3  A    between atoms: N_3  and  C_4
REMARK    4  A    between atoms: N_3  and  C_6
REMARK    5  A    between atoms: C_4  and  C_5
REMARK    6  A    between atoms: C_9  and  N_10
REMARK    7  A    between atoms: C_11  and  C_13
REMARK    8  A    between atoms: C_19  and  C_20
REMARK    9  A    between atoms: C_21  and  C_22
REMARK   10  A    between atoms: N_23  and  C_24
REMARK                            x       y       z     vdW  Elec       q    Type
REMARK                         _______ _______ _______ _____ _____    ______ ____
ROOT
ATOM      1  N   UNL     1       1.186   8.731  19.659  0.00  0.00    +0.000 N 
ATOM      2  C   UNL     1       0.931   9.206  20.943  0.00  0.00    +0.000 C 
ATOM      3  O   UNL     1       1.383   8.759  21.990  0.00  0.00    +0.000 OA
ATOM      4  H   UNL     1       0.780   9.241  18.882  0.00  0.00    +0.000 HD
ENDROOT
BRANCH   2   5
ATOM      5  C   UNL     1       0.111  10.442  21.040  0.00  0.00    +0.000 A 
ATOM      6  C   UNL     1      -0.548  10.877  19.875  0.00  0.00    +0.000 A 
ATOM      7  C   UNL     1      -1.583  11.818  19.931  0.00  0.00    +0.000 A 
ATOM      8  C   UNL     1      -1.910  12.261  21.214  0.00  0.00    +0.000 A 
ATOM      9  C   UNL     1      -1.044  12.123  22.306  0.00  0.00    +0.000 A 
ATOM     10  C   UNL     1      -0.058  11.120  22.254  0.00  0.00    +0.000 A 
ATOM     11  C   UNL     1      -1.611  12.963  23.313  0.00  0.00    +0.000 A 
ATOM     12  C   UNL     1      -1.332  14.433  23.552  0.00  0.00    +0.000 C 
ATOM     13  C   UNL     1      -2.932  12.577  23.147  0.00  0.00    +0.000 A 
ATOM     14  C   UNL     1      -3.958  12.281  24.160  0.00  0.00    +0.000 C 
ATOM     15  N   UNL     1      -3.061  12.776  21.782  0.00  0.00    +0.000 N 
ATOM     16  C   UNL     1      -4.127  13.479  21.118  0.00  0.00    +0.000 C 
ENDBRANCH   2   5
BRANCH   1  20
ATOM     17  C   UNL     1       3.793   5.514  18.561  0.00  0.00    +0.000 A 
ATOM     18  C   UNL     1       3.015   5.475  19.725  0.00  0.00    +0.000 A 
ATOM     19  C   UNL     1       2.157   6.515  20.086  0.00  0.00    +0.000 A 
ATOM     20  C   UNL     1       2.042   7.655  19.303  0.00  0.00    +0.000 A 
ATOM     21  C   UNL     1       2.823   7.728  18.143  0.00  0.00    +0.000 A 
ATOM     22  C   UNL     1       3.685   6.669  17.774  0.00  0.00    +0.000 A 
BRANCH  17  23
ATOM     23  N   UNL     1       4.656   4.457  18.207  0.00  0.00    +0.000 N 
BRANCH  23  25
ATOM     24  C   UNL     1       3.503   2.244  17.959  0.00  0.00    +0.000 C 
ATOM     25  C   UNL     1       4.355   3.151  18.830  0.00  0.00    +0.000 C 
ENDBRANCH  23  25
BRANCH  23  26
ATOM     26  C   UNL     1       6.077   4.825  18.036  0.00  0.00    +0.000 C 
ATOM     27  C   UNL     1       6.710   5.436  19.282  0.00  0.00    +0.000 C 
ENDBRANCH  23  26
ENDBRANCH  17  23
ENDBRANCH   1  20
TORSDOF 5
ENDMDL
MODEL 6
REMARK VINA RESULT:      -7.3      1.747      3.061
REMARK  Name = 
REMARK  10 active torsions:
REMARK  status: ('A' for Active; 'I' for Inactive)
REMARK    1  A    between atoms: C_1  and  C_2
REMARK    2  A    between atoms: C_2  and  N_3
REMARK    3  A    between atoms: N_3  and  C_4
REMARK    4  A    between atoms: N_3  and  C_6
REMARK    5  A    between atoms: C_4  and  C_5
REMARK    6  A    between atoms: C_9  and  N_10
REMARK    7  A    between atoms: C_11  and  C_13
REMARK    8  A    between atoms: C_19  and  C_20
REMARK    9  A    between atoms: C_21  and  C_22
REMARK   10  A    between atoms: N_23  and  C_24
REMARK                            x       y       z     vdW  Elec       q    Type
REMARK                         _______ _______ _______ _____ _____    ______ ____
ROOT
ATOM      1  N   UNL     1       1.290   8.780  19.528  0.00  0.00    +0.000 N 
ATOM      2  C   UNL     1       0.919   9.154  20.817  0.00  0.00    +0.000 C 
ATOM      3  O   UNL     1       1.237   8.596  21.860  0.00  0.00    +0.000 OA
ATOM      4  H   UNL     1       0.991   9.376  18.763  0.00  0.00    +0.000 HD
ENDROOT
BRANCH   2   5
ATOM      5  C   UNL     1       0.145  10.417  20.942  0.00  0.00    +0.000 A 
ATOM      6  C   UNL     1      -0.487  10.909  19.784  0.00  0.00    +0.000 A 
ATOM      7  C   UNL     1      -1.486  11.886  19.859  0.00  0.00    +0.000 A 
ATOM      8  C   UNL     1      -1.808  12.305  21.150  0.00  0.00    +0.000 A 
ATOM      9  C   UNL     1      -0.958  12.105  22.245  0.00  0.00    +0.000 A 
ATOM     10  C   UNL     1      -0.010  11.067  22.173  0.00  0.00    +0.000 A 
ATOM     11  C   UNL     1      -1.502  12.937  23.271  0.00  0.00    +0.000 A 
ATOM     12  C   UNL     1      -1.171  14.388  23.554  0.00  0.00    +0.000 C 
ATOM     13  C   UNL     1      -2.836  12.606  23.083  0.00  0.00    +0.000 A 
ATOM     14  C   UNL     1      -3.882  12.320  24.079  0.00  0.00    +0.000 C 
ATOM     15  N   UNL     1      -2.945  12.847  21.723  0.00  0.00    +0.000 N 
ATOM     16  C   UNL     1      -3.977  13.608  21.071  0.00  0.00    +0.000 C 
ENDBRANCH   2   5
BRANCH   1  20
ATOM     17  C   UNL     1       3.862   5.543  18.410  0.00  0.00    +0.000 A 
ATOM     18  C   UNL     1       3.036   5.479  19.538  0.00  0.00    +0.000 A 
ATOM     19  C   UNL     1       2.188   6.526  19.905  0.00  0.00    +0.000 A 
ATOM     20  C   UNL     1       2.133   7.698  19.165  0.00  0.00    +0.000 A 
ATOM     21  C   UNL     1       2.964   7.795  18.041  0.00  0.00    +0.000 A 
ATOM     22  C   UNL     1       3.815   6.730  17.666  0.00  0.00    +0.000 A 
BRANCH  17  23
ATOM     23  N   UNL     1       4.714   4.479  18.050  0.00  0.00    +0.000 N 
BRANCH  23  25
ATOM     24  C   UNL     1       6.593   4.445  16.389  0.00  0.00    +0.000 C 
ATOM     25  C   UNL     1       5.092   4.420  16.622  0.00  0.00    +0.000 C 
ENDBRANCH  23  25
BRANCH  23  26
ATOM     26  C   UNL     1       4.465   3.199  18.747  0.00  0.00    +0.000 C 
ATOM     27  C   UNL     1       3.584   2.232  17.964  0.00  0.00    +0.000 C 
ENDBRANCH  23  26
ENDBRANCH  17  23
ENDBRANCH   1  20
TORSDOF 5
ENDMDL
MODEL 7
REMARK VINA RESULT:      -7.3      2.112     10.124
REMARK  Name = 
REMARK  10 active torsions:
REMARK  status: ('A' for Active; 'I' for Inactive)
REMARK    1  A    between atoms: C_1  and  C_2
REMARK    2  A    between atoms: C_2  and  N_3
REMARK    3  A    between atoms: N_3  and  C_4
REMARK    4  A    between atoms: N_3  and  C_6
REMARK    5  A    between atoms: C_4  and  C_5
REMARK    6  A    between atoms: C_9  and  N_10
REMARK    7  A    between atoms: C_11  and  C_13
REMARK    8  A    between atoms: C_19  and  C_20
REMARK    9  A    between atoms: C_21  and  C_22
REMARK   10  A    between atoms: N_23  and  C_24
REMARK                            x       y       z     vdW  Elec       q    Type
REMARK                         _______ _______ _______ _____ _____    ______ ____
ROOT
ATOM      1  N   UNL     1       0.324   9.865  20.340  0.00  0.00    +0.000 N 
ATOM      2  C   UNL     1       1.168   8.848  20.778  0.00  0.00    +0.000 C 
ATOM      3  O   UNL     1       1.382   8.525  21.940  0.00  0.00    +0.000 OA
ATOM      4  H   UNL     1       0.208   9.979  19.338  0.00  0.00    +0.000 HD
ENDROOT
BRANCH   2   5
ATOM      5  C   UNL     1       1.791   8.006  19.723  0.00  0.00    +0.000 A 
ATOM      6  C   UNL     1       1.902   8.557  18.433  0.00  0.00    +0.000 A 
ATOM      7  C   UNL     1       2.747   7.993  17.470  0.00  0.00    +0.000 A 
ATOM      8  C   UNL     1       3.466   6.876  17.896  0.00  0.00    +0.000 A 
ATOM      9  C   UNL     1       3.097   6.120  19.016  0.00  0.00    +0.000 A 
ATOM     10  C   UNL     1       2.309   6.735  20.006  0.00  0.00    +0.000 A 
ATOM     11  C   UNL     1       3.881   4.930  18.911  0.00  0.00    +0.000 A 
ATOM     12  C   UNL     1       3.517   3.646  18.194  0.00  0.00    +0.000 C 
ATOM     13  C   UNL     1       5.084   5.535  18.579  0.00  0.00    +0.000 A 
ATOM     14  C   UNL     1       6.444   5.251  19.065  0.00  0.00    +0.000 C 
ATOM     15  N   UNL     1       4.666   6.308  17.507  0.00  0.00    +0.000 N 
ATOM     16  C   UNL     1       5.302   6.397  16.219  0.00  0.00    +0.000 C 
ENDBRANCH   2   5
BRANCH   1  20
ATOM     17  C   UNL     1      -2.126  12.431  22.741  0.00  0.00    +0.000 A 
ATOM     18  C   UNL     1      -1.491  11.302  23.271  0.00  0.00    +0.000 A 
ATOM     19  C   UNL     1      -0.684  10.465  22.498  0.00  0.00    +0.000 A 
ATOM     20  C   UNL     1      -0.480  10.711  21.148  0.00  0.00    +0.000 A 
ATOM     21  C   UNL     1      -1.119  11.825  20.587  0.00  0.00    +0.000 A 
ATOM     22  C   UNL     1      -1.929  12.677  21.374  0.00  0.00    +0.000 A 
BRANCH  17  23
ATOM     23  N   UNL     1      -2.938  13.269  23.531  0.00  0.00    +0.000 N 
BRANCH  23  25
ATOM     24  C   UNL     1      -4.876  12.288  24.785  0.00  0.00    +0.000 C 
ATOM     25  C   UNL     1      -4.383  12.959  23.514  0.00  0.00    +0.000 C 
ENDBRANCH  23  25
BRANCH  23  26
ATOM     26  C   UNL     1      -2.542  14.693  23.565  0.00  0.00    +0.000 C 
ATOM     27  C   UNL     1      -1.398  14.993  24.527  0.00  0.00    +0.000 C 
ENDBRANCH  23  26
ENDBRANCH  17  23
ENDBRANCH   1  20
TORSDOF 5
ENDMDL
MODEL 8
REMARK VINA RESULT:      -7.3      2.178      3.957
REMARK  Name = 
REMARK  10 active torsions:
REMARK  status: ('A' for Active; 'I' for Inactive)
REMARK    1  A    between atoms: C_1  and  C_2
REMARK    2  A    between atoms: C_2  and  N_3
REMARK    3  A    between atoms: N_3  and  C_4
REMARK    4  A    between atoms: N_3  and  C_6
REMARK    5  A    between atoms: C_4  and  C_5
REMARK    6  A    between atoms: C_9  and  N_10
REMARK    7  A    between atoms: C_11  and  C_13
REMARK    8  A    between atoms: C_19  and  C_20
REMARK    9  A    between atoms: C_21  and  C_22
REMARK   10  A    between atoms: N_23  and  C_24
REMARK                            x       y       z     vdW  Elec       q    Type
REMARK                         _______ _______ _______ _____ _____    ______ ____
ROOT
ATOM      1  N   UNL     1       0.407   9.958  20.360  0.00  0.00    +0.000 N 
ATOM      2  C   UNL     1       0.540  10.368  21.684  0.00  0.00    +0.000 C 
ATOM      3  O   UNL     1       1.369   9.968  22.493  0.00  0.00    +0.000 OA
ATOM      4  H   UNL     1      -0.297  10.421  19.795  0.00  0.00    +0.000 HD
ENDROOT
BRANCH   2   5
ATOM      5  C   UNL     1      -0.348  11.474  22.127  0.00  0.00    +0.000 A 
ATOM      6  C   UNL     1       0.003  12.782  21.742  0.00  0.00    +0.000 A 
ATOM      7  C   UNL     1      -0.914  13.836  21.821  0.00  0.00    +0.000 A 
ATOM      8  C   UNL     1      -2.182  13.483  22.286  0.00  0.00    +0.000 A 
ATOM      9  C   UNL     1      -2.424  12.303  23.001  0.00  0.00    +0.000 A 
ATOM     10  C   UNL     1      -1.526  11.231  22.845  0.00  0.00    +0.000 A 
ATOM     11  C   UNL     1      -3.735  12.482  23.541  0.00  0.00    +0.000 A 
ATOM     12  C   UNL     1      -4.107  13.108  24.870  0.00  0.00    +0.000 C 
ATOM     13  C   UNL     1      -4.333  12.992  22.399  0.00  0.00    +0.000 A 
ATOM     14  C   UNL     1      -5.649  12.688  21.813  0.00  0.00    +0.000 C 
ATOM     15  N   UNL     1      -3.446  14.016  22.111  0.00  0.00    +0.000 N 
ATOM     16  C   UNL     1      -3.787  15.381  21.807  0.00  0.00    +0.000 C 
ENDBRANCH   2   5
BRANCH   1  20
ATOM     17  C   UNL     1       2.848   7.094  18.314  0.00  0.00    +0.000 A 
ATOM     18  C   UNL     1       2.437   8.287  17.708  0.00  0.00    +0.000 A 
ATOM     19  C   UNL     1       1.649   9.229  18.370  0.00  0.00    +0.000 A 
ATOM     20  C   UNL     1       1.222   9.019  19.673  0.00  0.00    +0.000 A 
ATOM     21  C   UNL     1       1.603   7.824  20.297  0.00  0.00    +0.000 A 
ATOM     22  C   UNL     1       2.410   6.875  19.627  0.00  0.00    +0.000 A 
BRANCH  17  23
ATOM     23  N   UNL     1       3.645   6.150  17.635  0.00  0.00    +0.000 N 
BRANCH  23  25
ATOM     24  C   UNL     1       2.679   3.837  17.529  0.00  0.00    +0.000 C 
ATOM     25  C   UNL     1       3.650   4.787  18.209  0.00  0.00    +0.000 C 
ENDBRANCH  23  25
BRANCH  23  26
ATOM     26  C   UNL     1       4.915   6.666  17.084  0.00  0.00    +0.000 C 
ATOM     27  C   UNL     1       5.405   5.912  15.852  0.00  0.00    +0.000 C 
ENDBRANCH  23  26
ENDBRANCH  17  23
ENDBRANCH   1  20
TORSDOF 5
ENDMDL
MODEL 9
REMARK VINA RESULT:      -7.2      2.175      4.091
REMARK  Name = 
REMARK  10 active torsions:
REMARK  status: ('A' for Active; 'I' for Inactive)
REMARK    1  A    between atoms: C_1  and  C_2
REMARK    2  A    between atoms: C_2  and  N_3
REMARK    3  A    between atoms: N_3  and  C_4
REMARK    4  A    between atoms: N_3  and  C_6
REMARK    5  A    between atoms: C_4  and  C_5
REMARK    6  A    between atoms: C_9  and  N_10
REMARK    7  A    between atoms: C_11  and  C_13
REMARK    8  A    between atoms: C_19  and  C_20
REMARK    9  A    between atoms: C_21  and  C_22
REMARK   10  A    between atoms: N_23  and  C_24
REMARK                            x       y       z     vdW  Elec       q    Type
REMARK                         _______ _______ _______ _____ _____    ______ ____
ROOT
ATOM      1  N   UNL     1       0.034   9.894  20.290  0.00  0.00    +0.000 N 
ATOM      2  C   UNL     1       0.328  11.084  20.949  0.00  0.00    +0.000 C 
ATOM      3  O   UNL     1       1.443  11.504  21.235  0.00  0.00    +0.000 OA
ATOM      4  H   UNL     1      -0.940   9.706  20.073  0.00  0.00    +0.000 HD
ENDROOT
BRANCH   2   5
ATOM      5  C   UNL     1      -0.821  11.980  21.241  0.00  0.00    +0.000 A 
ATOM      6  C   UNL     1      -1.734  12.225  20.198  0.00  0.00    +0.000 A 
ATOM      7  C   UNL     1      -2.997  12.774  20.450  0.00  0.00    +0.000 A 
ATOM      8  C   UNL     1      -3.273  13.033  21.793  0.00  0.00    +0.000 A 
ATOM      9  C   UNL     1      -2.269  13.139  22.764  0.00  0.00    +0.000 A 
ATOM     10  C   UNL     1      -1.032  12.515  22.518  0.00  0.00    +0.000 A 
ATOM     11  C   UNL     1      -2.933  13.706  23.896  0.00  0.00    +0.000 A 
ATOM     12  C   UNL     1      -3.106  15.175  24.223  0.00  0.00    +0.000 C 
ATOM     13  C   UNL     1      -4.073  12.918  23.850  0.00  0.00    +0.000 A 
ATOM     14  C   UNL     1      -4.805  12.261  24.945  0.00  0.00    +0.000 C 
ATOM     15  N   UNL     1      -4.440  13.120  22.529  0.00  0.00    +0.000 N 
ATOM     16  C   UNL     1      -5.754  13.465  22.051  0.00  0.00    +0.000 C 
ENDBRANCH   2   5
BRANCH   1  20
ATOM     17  C   UNL     1       2.855   7.058  18.756  0.00  0.00    +0.000 A 
ATOM     18  C   UNL     1       2.335   6.961  20.052  0.00  0.00    +0.000 A 
ATOM     19  C   UNL     1       1.409   7.876  20.557  0.00  0.00    +0.000 A 
ATOM     20  C   UNL     1       0.964   8.944  19.791  0.00  0.00    +0.000 A 
ATOM     21  C   UNL     1       1.483   9.075  18.496  0.00  0.00    +0.000 A 
ATOM     22  C   UNL     1       2.414   8.142  17.983  0.00  0.00    +0.000 A 
BRANCH  17  23
ATOM     23  N   UNL     1       3.789   6.128  18.256  0.00  0.00    +0.000 N 
BRANCH  23  25
ATOM     24  C   UNL     1       5.948   6.638  17.086  0.00  0.00    +0.000 C 
ATOM     25  C   UNL     1       4.439   6.498  16.981  0.00  0.00    +0.000 C 
ENDBRANCH  23  25
BRANCH  23  26
ATOM     26  C   UNL     1       3.446   4.706  18.464  0.00  0.00    +0.000 C 
ATOM     27  C   UNL     1       2.248   4.235  17.647  0.00  0.00    +0.000 C 
ENDBRANCH  23  26
ENDBRANCH  17  23
ENDBRANCH   1  20
TORSDOF 5
ENDMDL
