MODEL 1
REMARK VINA RESULT:      -6.7      0.000      0.000
REMARK  Name = 
REMARK  9 active torsions:
REMARK  status: ('A' for Active; 'I' for Inactive)
REMARK    1  A    between atoms: C_1  and  C_2
REMARK    2  A    between atoms: C_2  and  C_3
REMARK    3  A    between atoms: C_3  and  N_4
REMARK    4  A    between atoms: C_3  and  C_17
REMARK    5  A    between atoms: C_5  and  C_7
REMARK    6  A    between atoms: N_10  and  S_11
REMARK    7  A    between atoms: S_11  and  C_12
REMARK    8  A    between atoms: C_20  and  C_21
REMARK    9  A    between atoms: C_23  and  C_24
REMARK                            x       y       z     vdW  Elec       q    Type
REMARK                         _______ _______ _______ _____ _____    ______ ____
ROOT
ATOM      1  N   UNL     1       2.389   6.709  19.203  0.00  0.00    +0.000 N 
ATOM      2  C   UNL     1       2.271   5.454  18.629  0.00  0.00    +0.000 C 
ATOM      3  O   UNL     1       1.501   5.207  17.704  0.00  0.00    +0.000 OA
ATOM      4  H   UNL     1       2.943   6.825  20.042  0.00  0.00    +0.000 HD
ENDROOT
BRANCH   2   5
ATOM      5  C   UNL     1       3.238   4.402  19.183  0.00  0.00    +0.000 C 
ATOM      6  C   UNL     1       4.523   5.079  19.665  0.00  0.00    +0.000 C 
ATOM      7  C   UNL     1       5.312   5.626  18.480  0.00  0.00    +0.000 C 
ATOM      8  N   UNL     1       5.729   4.501  17.622  0.00  0.00    +0.000 NA
ATOM      9  C   UNL     1       4.581   3.733  17.067  0.00  0.00    +0.000 C 
ATOM     10  C   UNL     1       3.600   3.302  18.164  0.00  0.00    +0.000 C 
BRANCH   8  11
ATOM     11  S   UNL     1       7.014   4.823  16.547  0.00  0.00    +0.000 S 
ATOM     12  C   UNL     1       6.523   3.976  15.053  0.00  0.00    +0.000 C 
ATOM     13  O   UNL     1       7.022   6.246  16.270  0.00  0.00    +0.000 OA
ATOM     14  O   UNL     1       8.192   4.156  17.057  0.00  0.00    +0.000 OA
ENDBRANCH   8  11
ENDBRANCH   2   5
BRANCH   1  15
ATOM     15  C   UNL     1       1.660   7.874  18.700  0.00  0.00    +0.000 C 
BRANCH  15  16
ATOM     16  C   UNL     1       0.927   8.621  19.820  0.00  0.00    +0.000 A 
ATOM     17  C   UNL     1       1.223   8.339  21.171  0.00  0.00    +0.000 A 
ATOM     18  C   UNL     1       0.680   9.100  22.214  0.00  0.00    +0.000 A 
ATOM     19  C   UNL     1      -0.193  10.151  21.940  0.00  0.00    +0.000 A 
ATOM     20  C   UNL     1      -0.767  10.998  23.038  0.00  0.00    +0.000 C 
ATOM     21  C   UNL     1      -0.525  10.418  20.608  0.00  0.00    +0.000 A 
ATOM     22  C   UNL     1       0.019   9.669  19.546  0.00  0.00    +0.000 A 
ATOM     23  C   UNL     1      -0.354  10.057  18.140  0.00  0.00    +0.000 C 
ENDBRANCH  15  16
BRANCH  15  25
ATOM     24  C   UNL     1       3.753   8.246  17.227  0.00  0.00    +0.000 C 
ATOM     25  C   UNL     1       2.563   8.870  17.934  0.00  0.00    +0.000 C 
ENDBRANCH  15  25
ENDBRANCH   1  15
TORSDOF 5
ENDMDL
MODEL 2
REMARK VINA RESULT:      -6.7      6.298      9.036
REMARK  Name = 
REMARK  9 active torsions:
REMARK  status: ('A' for Active; 'I' for Inactive)
REMARK    1  A    between atoms: C_1  and  C_2
REMARK    2  A    between atoms: C_2  and  C_3
REMARK    3  A    between atoms: C_3  and  N_4
REMARK    4  A    between atoms: C_3  and  C_17
REMARK    5  A    between atoms: C_5  and  C_7
REMARK    6  A    between atoms: N_10  and  S_11
REMARK    7  A    between atoms: S_11  and  C_12
REMARK    8  A    between atoms: C_20  and  C_21
REMARK    9  A    between atoms: C_23  and  C_24
REMARK                            x       y       z     vdW  Elec       q    Type
REMARK                         _______ _______ _______ _____ _____    ______ ____
ROOT
ATOM      1  N   UNL     1      -3.900  12.326  19.030  0.00  0.00    +0.000 N 
ATOM      2  C   UNL     1      -3.167  11.578  18.124  0.00  0.00    +0.000 C 
ATOM      3  O   UNL     1      -3.677  10.772  17.349  0.00  0.00    +0.000 OA
ATOM      4  H   UNL     1      -3.418  12.878  19.728  0.00  0.00    +0.000 HD
ENDROOT
BRANCH   2   5
ATOM      5  C   UNL     1      -1.667  11.888  18.101  0.00  0.00    +0.000 C 
ATOM      6  C   UNL     1      -0.867  10.584  18.062  0.00  0.00    +0.000 C 
ATOM      7  C   UNL     1      -1.004   9.837  19.385  0.00  0.00    +0.000 C 
ATOM      8  N   UNL     1      -0.417  10.657  20.461  0.00  0.00    +0.000 NA
ATOM      9  C   UNL     1      -1.092  11.972  20.629  0.00  0.00    +0.000 C 
ATOM     10  C   UNL     1      -1.194  12.734  19.302  0.00  0.00    +0.000 C 
BRANCH   8  11
ATOM     11  S   UNL     1      -0.017   9.824  21.895  0.00  0.00    +0.000 S 
ATOM     12  C   UNL     1      -1.027  10.625  23.132  0.00  0.00    +0.000 C 
ATOM     13  O   UNL     1      -0.477   8.456  21.763  0.00  0.00    +0.000 OA
ATOM     14  O   UNL     1       1.365  10.119  22.206  0.00  0.00    +0.000 OA
ENDBRANCH   8  11
ENDBRANCH   2   5
BRANCH   1  15
ATOM     15  C   UNL     1      -5.361  12.279  19.087  0.00  0.00    +0.000 C 
BRANCH  15  16
ATOM     16  C   UNL     1      -5.890  12.533  20.503  0.00  0.00    +0.000 A 
ATOM     17  C   UNL     1      -5.412  13.630  21.251  0.00  0.00    +0.000 A 
ATOM     18  C   UNL     1      -5.974  13.976  22.486  0.00  0.00    +0.000 A 
ATOM     19  C   UNL     1      -7.017  13.222  23.022  0.00  0.00    +0.000 A 
ATOM     20  C   UNL     1      -7.655  13.587  24.330  0.00  0.00    +0.000 C 
ATOM     21  C   UNL     1      -7.477  12.109  22.309  0.00  0.00    +0.000 A 
ATOM     22  C   UNL     1      -6.929  11.753  21.061  0.00  0.00    +0.000 A 
ATOM     23  C   UNL     1      -7.517  10.570  20.339  0.00  0.00    +0.000 C 
ENDBRANCH  15  16
BRANCH  15  25
ATOM     24  C   UNL     1      -7.174  12.686  17.286  0.00  0.00    +0.000 C 
ATOM     25  C   UNL     1      -6.038  13.269  18.108  0.00  0.00    +0.000 C 
ENDBRANCH  15  25
ENDBRANCH   1  15
TORSDOF 5
ENDMDL
MODEL 3
REMARK VINA RESULT:      -6.7      0.829      1.323
REMARK  Name = 
REMARK  9 active torsions:
REMARK  status: ('A' for Active; 'I' for Inactive)
REMARK    1  A    between atoms: C_1  and  C_2
REMARK    2  A    between atoms: C_2  and  C_3
REMARK    3  A    between atoms: C_3  and  N_4
REMARK    4  A    between atoms: C_3  and  C_17
REMARK    5  A    between atoms: C_5  and  C_7
REMARK    6  A    between atoms: N_10  and  S_11
REMARK    7  A    between atoms: S_11  and  C_12
REMARK    8  A    between atoms: C_20  and  C_21
REMARK    9  A    between atoms: C_23  and  C_24
REMARK                            x       y       z     vdW  Elec       q    Type
REMARK                         _______ _______ _______ _____ _____    ______ ____
ROOT
ATOM      1  N   UNL     1       2.646   6.244  18.820  0.00  0.00    +0.000 N 
ATOM      2  C   UNL     1       2.259   5.013  18.317  0.00  0.00    +0.000 C 
ATOM      3  O   UNL     1       1.333   4.872  17.523  0.00  0.00    +0.000 OA
ATOM      4  H   UNL     1       3.329   6.288  19.565  0.00  0.00    +0.000 HD
ENDROOT
BRANCH   2   5
ATOM      5  C   UNL     1       3.130   3.835  18.766  0.00  0.00    +0.000 C 
ATOM      6  C   UNL     1       4.191   4.320  19.757  0.00  0.00    +0.000 C 
ATOM      7  C   UNL     1       5.213   5.205  19.051  0.00  0.00    +0.000 C 
ATOM      8  N   UNL     1       5.924   4.401  18.038  0.00  0.00    +0.000 NA
ATOM      9  C   UNL     1       5.022   3.853  16.990  0.00  0.00    +0.000 C 
ATOM     10  C   UNL     1       3.828   3.106  17.599  0.00  0.00    +0.000 C 
BRANCH   8  11
ATOM     11  S   UNL     1       7.412   5.035  17.498  0.00  0.00    +0.000 S 
ATOM     12  C   UNL     1       7.718   6.387  18.625  0.00  0.00    +0.000 C 
ATOM     13  O   UNL     1       8.435   4.032  17.720  0.00  0.00    +0.000 OA
ATOM     14  O   UNL     1       7.199   5.604  16.185  0.00  0.00    +0.000 OA
ENDBRANCH   8  11
ENDBRANCH   2   5
BRANCH   1  15
ATOM     15  C   UNL     1       2.032   7.499  18.383  0.00  0.00    +0.000 C 
BRANCH  15  16
ATOM     16  C   UNL     1       1.312   8.217  19.531  0.00  0.00    +0.000 A 
ATOM     17  C   UNL     1       1.580   7.858  20.869  0.00  0.00    +0.000 A 
ATOM     18  C   UNL     1       1.052   8.586  21.943  0.00  0.00    +0.000 A 
ATOM     19  C   UNL     1       0.223   9.682  21.711  0.00  0.00    +0.000 A 
ATOM     20  C   UNL     1      -0.333  10.495  22.844  0.00  0.00    +0.000 C 
ATOM     21  C   UNL     1      -0.082  10.027  20.390  0.00  0.00    +0.000 A 
ATOM     22  C   UNL     1       0.448   9.311  19.298  0.00  0.00    +0.000 A 
ATOM     23  C   UNL     1       0.108   9.781  17.910  0.00  0.00    +0.000 C 
ENDBRANCH  15  16
BRANCH  15  25
ATOM     24  C   UNL     1       4.175   7.809  16.969  0.00  0.00    +0.000 C 
ATOM     25  C   UNL     1       3.041   8.473  17.730  0.00  0.00    +0.000 C 
ENDBRANCH  15  25
ENDBRANCH   1  15
TORSDOF 5
ENDMDL
MODEL 4
REMARK VINA RESULT:      -6.6      3.794      7.976
REMARK  Name = 
REMARK  9 active torsions:
REMARK  status: ('A' for Active; 'I' for Inactive)
REMARK    1  A    between atoms: C_1  and  C_2
REMARK    2  A    between atoms: C_2  and  C_3
REMARK    3  A    between atoms: C_3  and  N_4
REMARK    4  A    between atoms: C_3  and  C_17
REMARK    5  A    between atoms: C_5  and  C_7
REMARK    6  A    between atoms: N_10  and  S_11
REMARK    7  A    between atoms: S_11  and  C_12
REMARK    8  A    between atoms: C_20  and  C_21
REMARK    9  A    between atoms: C_23  and  C_24
REMARK                            x       y       z     vdW  Elec       q    Type
REMARK                         _______ _______ _______ _____ _____    ______ ____
ROOT
ATOM      1  N   UNL     1       2.195   7.506  19.018  0.00  0.00    +0.000 N 
ATOM      2  C   UNL     1       1.500   8.172  20.013  0.00  0.00    +0.000 C 
ATOM      3  O   UNL     1       0.970   7.600  20.961  0.00  0.00    +0.000 OA
ATOM      4  H   UNL     1       2.501   8.012  18.197  0.00  0.00    +0.000 HD
ENDROOT
BRANCH   2   5
ATOM      5  C   UNL     1       1.507   9.699  19.887  0.00  0.00    +0.000 C 
ATOM      6  C   UNL     1       0.308  10.288  20.634  0.00  0.00    +0.000 C 
ATOM      7  C   UNL     1      -0.991   9.929  19.920  0.00  0.00    +0.000 C 
ATOM      8  N   UNL     1      -0.988  10.546  18.580  0.00  0.00    +0.000 NA
ATOM      9  C   UNL     1       0.129  10.071  17.721  0.00  0.00    +0.000 C 
ATOM     10  C   UNL     1       1.485  10.197  18.427  0.00  0.00    +0.000 C 
BRANCH   8  11
ATOM     11  S   UNL     1      -2.511  10.693  17.827  0.00  0.00    +0.000 S 
ATOM     12  C   UNL     1      -3.392  11.823  18.894  0.00  0.00    +0.000 C 
ATOM     13  O   UNL     1      -2.319  11.347  16.548  0.00  0.00    +0.000 OA
ATOM     14  O   UNL     1      -3.172   9.408  17.915  0.00  0.00    +0.000 OA
ENDBRANCH   8  11
ENDBRANCH   2   5
BRANCH   1  15
ATOM     15  C   UNL     1       2.427   6.061  19.055  0.00  0.00    +0.000 C 
BRANCH  15  16
ATOM     16  C   UNL     1       3.381   5.603  17.945  0.00  0.00    +0.000 A 
ATOM     17  C   UNL     1       4.460   6.425  17.555  0.00  0.00    +0.000 A 
ATOM     18  C   UNL     1       5.431   5.977  16.649  0.00  0.00    +0.000 A 
ATOM     19  C   UNL     1       5.339   4.705  16.089  0.00  0.00    +0.000 A 
ATOM     20  C   UNL     1       6.381   4.193  15.137  0.00  0.00    +0.000 C 
ATOM     21  C   UNL     1       4.254   3.893  16.438  0.00  0.00    +0.000 A 
ATOM     22  C   UNL     1       3.274   4.323  17.354  0.00  0.00    +0.000 A 
ATOM     23  C   UNL     1       2.167   3.367  17.710  0.00  0.00    +0.000 C 
ENDBRANCH  15  16
BRANCH  15  25
ATOM     24  C   UNL     1       2.157   4.461  21.070  0.00  0.00    +0.000 C 
ATOM     25  C   UNL     1       2.966   5.569  20.420  0.00  0.00    +0.000 C 
ENDBRANCH  15  25
ENDBRANCH   1  15
TORSDOF 5
ENDMDL
MODEL 5
REMARK VINA RESULT:      -6.5      3.078      4.531
REMARK  Name = 
REMARK  9 active torsions:
REMARK  status: ('A' for Active; 'I' for Inactive)
REMARK    1  A    between atoms: C_1  and  C_2
REMARK    2  A    between atoms: C_2  and  C_3
REMARK    3  A    between atoms: C_3  and  N_4
REMARK    4  A    between atoms: C_3  and  C_17
REMARK    5  A    between atoms: C_5  and  C_7
REMARK    6  A    between atoms: N_10  and  S_11
REMARK    7  A    between atoms: S_11  and  C_12
REMARK    8  A    between atoms: C_20  and  C_21
REMARK    9  A    between atoms: C_23  and  C_24
REMARK                            x       y       z     vdW  Elec       q    Type
REMARK                         _______ _______ _______ _____ _____    ______ ____
ROOT
ATOM      1  N   UNL     1       1.958   8.702  18.490  0.00  0.00    +0.000 N 
ATOM      2  C   UNL     1       2.334   7.604  19.246  0.00  0.00    +0.000 C 
ATOM      3  O   UNL     1       1.851   7.346  20.344  0.00  0.00    +0.000 OA
ATOM      4  H   UNL     1       2.477   8.935  17.654  0.00  0.00    +0.000 HD
ENDROOT
BRANCH   2   5
ATOM      5  C   UNL     1       3.352   6.679  18.569  0.00  0.00    +0.000 C 
ATOM      6  C   UNL     1       2.667   5.871  17.465  0.00  0.00    +0.000 C 
ATOM      7  C   UNL     1       1.693   4.864  18.069  0.00  0.00    +0.000 C 
ATOM      8  N   UNL     1       2.450   3.898  18.887  0.00  0.00    +0.000 NA
ATOM      9  C   UNL     1       3.180   4.534  20.018  0.00  0.00    +0.000 C 
ATOM     10  C   UNL     1       4.047   5.708  19.547  0.00  0.00    +0.000 C 
BRANCH   8  11
ATOM     11  S   UNL     1       1.651   2.431  19.234  0.00  0.00    +0.000 S 
ATOM     12  C   UNL     1       1.374   2.519  20.996  0.00  0.00    +0.000 C 
ATOM     13  O   UNL     1       0.358   2.459  18.579  0.00  0.00    +0.000 OA
ATOM     14  O   UNL     1       2.585   1.352  18.994  0.00  0.00    +0.000 OA
ENDBRANCH   8  11
ENDBRANCH   2   5
BRANCH   1  15
ATOM     15  C   UNL     1       0.887   9.609  18.904  0.00  0.00    +0.000 C 
BRANCH  15  16
ATOM     16  C   UNL     1       1.413  11.015  19.215  0.00  0.00    +0.000 A 
ATOM     17  C   UNL     1       2.165  11.720  18.251  0.00  0.00    +0.000 A 
ATOM     18  C   UNL     1       2.537  13.056  18.445  0.00  0.00    +0.000 A 
ATOM     19  C   UNL     1       2.188  13.721  19.619  0.00  0.00    +0.000 A 
ATOM     20  C   UNL     1       2.552  15.161  19.840  0.00  0.00    +0.000 C 
ATOM     21  C   UNL     1       1.475  13.024  20.601  0.00  0.00    +0.000 A 
ATOM     22  C   UNL     1       1.085  11.683  20.417  0.00  0.00    +0.000 A 
ATOM     23  C   UNL     1       0.277  11.025  21.504  0.00  0.00    +0.000 C 
ENDBRANCH  15  16
BRANCH  15  25
ATOM     24  C   UNL     1      -1.565  10.260  18.399  0.00  0.00    +0.000 C 
ATOM     25  C   UNL     1      -0.254   9.715  17.863  0.00  0.00    +0.000 C 
ENDBRANCH  15  25
ENDBRANCH   1  15
TORSDOF 5
ENDMDL
MODEL 6
REMARK VINA RESULT:      -6.4      3.490      7.364
REMARK  Name = 
REMARK  9 active torsions:
REMARK  status: ('A' for Active; 'I' for Inactive)
REMARK    1  A    between atoms: C_1  and  C_2
REMARK    2  A    between atoms: C_2  and  C_3
REMARK    3  A    between atoms: C_3  and  N_4
REMARK    4  A    between atoms: C_3  and  C_17
REMARK    5  A    between atoms: C_5  and  C_7
REMARK    6  A    between atoms: N_10  and  S_11
REMARK    7  A    between atoms: S_11  and  C_12
REMARK    8  A    between atoms: C_20  and  C_21
REMARK    9  A    between atoms: C_23  and  C_24
REMARK                            x       y       z     vdW  Elec       q    Type
REMARK                         _______ _______ _______ _____ _____    ______ ____
ROOT
ATOM      1  N   UNL     1       5.075   5.653  18.449  0.00  0.00    +0.000 N 
ATOM      2  C   UNL     1       4.293   6.577  17.777  0.00  0.00    +0.000 C 
ATOM      3  O   UNL     1       4.633   7.107  16.723  0.00  0.00    +0.000 OA
ATOM      4  H   UNL     1       4.803   5.346  19.374  0.00  0.00    +0.000 HD
ENDROOT
BRANCH   2   5
ATOM      5  C   UNL     1       2.921   6.836  18.409  0.00  0.00    +0.000 C 
ATOM      6  C   UNL     1       2.920   6.360  19.864  0.00  0.00    +0.000 C 
ATOM      7  C   UNL     1       3.004   4.838  19.925  0.00  0.00    +0.000 C 
ATOM      8  N   UNL     1       1.797   4.267  19.298  0.00  0.00    +0.000 NA
ATOM      9  C   UNL     1       1.651   4.640  17.865  0.00  0.00    +0.000 C 
ATOM     10  C   UNL     1       1.758   6.156  17.657  0.00  0.00    +0.000 C 
BRANCH   8  11
ATOM     11  S   UNL     1       1.450   2.645  19.695  0.00  0.00    +0.000 S 
ATOM     12  C   UNL     1       1.304   2.679  21.475  0.00  0.00    +0.000 C 
ATOM     13  O   UNL     1       0.148   2.316  19.148  0.00  0.00    +0.000 OA
ATOM     14  O   UNL     1       2.616   1.852  19.370  0.00  0.00    +0.000 OA
ENDBRANCH   8  11
ENDBRANCH   2   5
BRANCH   1  15
ATOM     15  C   UNL     1       6.347   5.166  17.914  0.00  0.00    +0.000 C 
BRANCH  15  16
ATOM     16  C   UNL     1       6.245   4.805  16.427  0.00  0.00    +0.000 A 
ATOM     17  C   UNL     1       7.094   5.429  15.488  0.00  0.00    +0.000 A 
ATOM     18  C   UNL     1       7.128   5.022  14.148  0.00  0.00    +0.000 A 
ATOM     19  C   UNL     1       6.299   3.994  13.702  0.00  0.00    +0.000 A 
ATOM     20  C   UNL     1       6.336   3.522  12.278  0.00  0.00    +0.000 C 
ATOM     21  C   UNL     1       5.425   3.392  14.614  0.00  0.00    +0.000 A 
ATOM     22  C   UNL     1       5.385   3.783  15.967  0.00  0.00    +0.000 A 
ATOM     23  C   UNL     1       4.450   3.048  16.890  0.00  0.00    +0.000 C 
ENDBRANCH  15  16
BRANCH  15  25
ATOM     24  C   UNL     1       8.188   6.102  19.472  0.00  0.00    +0.000 C 
ATOM     25  C   UNL     1       7.511   6.165  18.114  0.00  0.00    +0.000 C 
ENDBRANCH  15  25
ENDBRANCH   1  15
TORSDOF 5
ENDMDL
MODEL 7
REMARK VINA RESULT:      -6.4      3.927      7.682
REMARK  Name = 
REMARK  9 active torsions:
REMARK  status: ('A' for Active; 'I' for Inactive)
REMARK    1  A    between atoms: C_1  and  C_2
REMARK    2  A    between atoms: C_2  and  C_3
REMARK    3  A    between atoms: C_3  and  N_4
REMARK    4  A    between atoms: C_3  and  C_17
REMARK    5  A    between atoms: C_5  and  C_7
REMARK    6  A    between atoms: N_10  and  S_11
REMARK    7  A    between atoms: S_11  and  C_12
REMARK    8  A    between atoms: C_20  and  C_21
REMARK    9  A    between atoms: C_23  and  C_24
REMARK                            x       y       z     vdW  Elec       q    Type
REMARK                         _______ _______ _______ _____ _____    ______ ____
ROOT
ATOM      1  N   UNL     1       2.770   8.052  17.531  0.00  0.00    +0.000 N 
ATOM      2  C   UNL     1       1.959   8.634  18.491  0.00  0.00    +0.000 C 
ATOM      3  O   UNL     1       1.980   8.311  19.675  0.00  0.00    +0.000 OA
ATOM      4  H   UNL     1       2.621   8.267  16.554  0.00  0.00    +0.000 HD
ENDROOT
BRANCH   2   5
ATOM      5  C   UNL     1       1.078   9.778  17.978  0.00  0.00    +0.000 C 
ATOM      6  C   UNL     1       1.659  11.122  18.423  0.00  0.00    +0.000 C 
ATOM      7  C   UNL     1       1.525  11.286  19.933  0.00  0.00    +0.000 C 
ATOM      8  N   UNL     1       0.092  11.313  20.286  0.00  0.00    +0.000 NA
ATOM      9  C   UNL     1      -0.624  10.062  19.915  0.00  0.00    +0.000 C 
ATOM     10  C   UNL     1      -0.389   9.684  18.448  0.00  0.00    +0.000 C 
BRANCH   8  11
ATOM     11  S   UNL     1      -0.285  11.976  21.811  0.00  0.00    +0.000 S 
ATOM     12  C   UNL     1      -2.023  12.363  21.675  0.00  0.00    +0.000 C 
ATOM     13  O   UNL     1      -0.138  10.930  22.805  0.00  0.00    +0.000 OA
ATOM     14  O   UNL     1       0.430  13.228  21.936  0.00  0.00    +0.000 OA
ENDBRANCH   8  11
ENDBRANCH   2   5
BRANCH   1  15
ATOM     15  C   UNL     1       3.786   7.053  17.864  0.00  0.00    +0.000 C 
BRANCH  15  16
ATOM     16  C   UNL     1       3.163   5.709  18.259  0.00  0.00    +0.000 A 
ATOM     17  C   UNL     1       1.887   5.350  17.772  0.00  0.00    +0.000 A 
ATOM     18  C   UNL     1       1.351   4.075  17.994  0.00  0.00    +0.000 A 
ATOM     19  C   UNL     1       2.064   3.128  18.728  0.00  0.00    +0.000 A 
ATOM     20  C   UNL     1       1.523   1.747  18.957  0.00  0.00    +0.000 C 
ATOM     21  C   UNL     1       3.313   3.483  19.249  0.00  0.00    +0.000 A 
ATOM     22  C   UNL     1       3.871   4.757  19.027  0.00  0.00    +0.000 A 
ATOM     23  C   UNL     1       5.242   5.037  19.582  0.00  0.00    +0.000 C 
ENDBRANCH  15  16
BRANCH  15  25
ATOM     24  C   UNL     1       6.239   7.197  17.055  0.00  0.00    +0.000 C 
ATOM     25  C   UNL     1       4.805   6.822  16.722  0.00  0.00    +0.000 C 
ENDBRANCH  15  25
ENDBRANCH   1  15
TORSDOF 5
ENDMDL
MODEL 8
REMARK VINA RESULT:      -6.3      2.625      4.192
REMARK  Name = 
REMARK  9 active torsions:
REMARK  status: ('A' for Active; 'I' for Inactive)
REMARK    1  A    between atoms: C_1  and  C_2
REMARK    2  A    between atoms: C_2  and  C_3
REMARK    3  A    between atoms: C_3  and  N_4
REMARK    4  A    between atoms: C_3  and  C_17
REMARK    5  A    between atoms: C_5  and  C_7
REMARK    6  A    between atoms: N_10  and  S_11
REMARK    7  A    between atoms: S_11  and  C_12
REMARK    8  A    between atoms: C_20  and  C_21
REMARK    9  A    between atoms: C_23  and  C_24
REMARK                            x       y       z     vdW  Elec       q    Type
REMARK                         _______ _______ _______ _____ _____    ______ ____
ROOT
ATOM      1  N   UNL     1       1.713   8.799  18.906  0.00  0.00    +0.000 N 
ATOM      2  C   UNL     1       2.211   7.552  19.244  0.00  0.00    +0.000 C 
ATOM      3  O   UNL     1       2.054   7.042  20.350  0.00  0.00    +0.000 OA
ATOM      4  H   UNL     1       1.980   9.222  18.027  0.00  0.00    +0.000 HD
ENDROOT
BRANCH   2   5
ATOM      5  C   UNL     1       2.911   6.810  18.100  0.00  0.00    +0.000 C 
ATOM      6  C   UNL     1       2.075   5.600  17.677  0.00  0.00    +0.000 C 
ATOM      7  C   UNL     1       2.077   4.541  18.775  0.00  0.00    +0.000 C 
ATOM      8  N   UNL     1       3.456   4.051  18.964  0.00  0.00    +0.000 NA
ATOM      9  C   UNL     1       4.403   5.120  19.384  0.00  0.00    +0.000 C 
ATOM     10  C   UNL     1       4.337   6.338  18.454  0.00  0.00    +0.000 C 
BRANCH   8  11
ATOM     11  S   UNL     1       3.608   2.551  19.761  0.00  0.00    +0.000 S 
ATOM     12  C   UNL     1       2.605   2.758  21.225  0.00  0.00    +0.000 C 
ATOM     13  O   UNL     1       2.985   1.537  18.934  0.00  0.00    +0.000 OA
ATOM     14  O   UNL     1       4.983   2.418  20.193  0.00  0.00    +0.000 OA
ENDBRANCH   8  11
ENDBRANCH   2   5
BRANCH   1  15
ATOM     15  C   UNL     1       0.884   9.586  19.820  0.00  0.00    +0.000 C 
BRANCH  15  16
ATOM     16  C   UNL     1      -0.328  10.202  19.110  0.00  0.00    +0.000 A 
ATOM     17  C   UNL     1      -0.838   9.608  17.936  0.00  0.00    +0.000 A 
ATOM     18  C   UNL     1      -2.025  10.057  17.344  0.00  0.00    +0.000 A 
ATOM     19  C   UNL     1      -2.726  11.128  17.895  0.00  0.00    +0.000 A 
ATOM     20  C   UNL     1      -4.014  11.611  17.295  0.00  0.00    +0.000 C 
ATOM     21  C   UNL     1      -2.212  11.752  19.037  0.00  0.00    +0.000 A 
ATOM     22  C   UNL     1      -1.024  11.307  19.651  0.00  0.00    +0.000 A 
ATOM     23  C   UNL     1      -0.570  12.004  20.905  0.00  0.00    +0.000 C 
ENDBRANCH  15  16
BRANCH  15  25
ATOM     24  C   UNL     1       0.962   9.225  22.380  0.00  0.00    +0.000 C 
ATOM     25  C   UNL     1       0.395   8.777  21.045  0.00  0.00    +0.000 C 
ENDBRANCH  15  25
ENDBRANCH   1  15
TORSDOF 5
ENDMDL
MODEL 9
REMARK VINA RESULT:      -6.3      1.965      3.072
REMARK  Name = 
REMARK  9 active torsions:
REMARK  status: ('A' for Active; 'I' for Inactive)
REMARK    1  A    between atoms: C_1  and  C_2
REMARK    2  A    between atoms: C_2  and  C_3
REMARK    3  A    between atoms: C_3  and  N_4
REMARK    4  A    between atoms: C_3  and  C_17
REMARK    5  A    between atoms: C_5  and  C_7
REMARK    6  A    between atoms: N_10  and  S_11
REMARK    7  A    between atoms: S_11  and  C_12
REMARK    8  A    between atoms: C_20  and  C_21
REMARK    9  A    between atoms: C_23  and  C_24
REMARK                            x       y       z     vdW  Elec       q    Type
REMARK                         _______ _______ _______ _____ _____    ______ ____
ROOT
ATOM      1  N   UNL     1       4.454   6.162  19.307  0.00  0.00    +0.000 N 
ATOM      2  C   UNL     1       5.488   5.240  19.311  0.00  0.00    +0.000 C 
ATOM      3  O   UNL     1       5.331   4.056  19.599  0.00  0.00    +0.000 OA
ATOM      4  H   UNL     1       4.662   7.145  19.187  0.00  0.00    +0.000 HD
ENDROOT
BRANCH   2   5
ATOM      5  C   UNL     1       6.841   5.791  18.849  0.00  0.00    +0.000 C 
ATOM      6  C   UNL     1       6.626   6.887  17.803  0.00  0.00    +0.000 C 
ATOM      7  C   UNL     1       6.081   6.289  16.510  0.00  0.00    +0.000 C 
ATOM      8  N   UNL     1       7.087   5.366  15.949  0.00  0.00    +0.000 NA
ATOM      9  C   UNL     1       7.408   4.231  16.855  0.00  0.00    +0.000 C 
ATOM     10  C   UNL     1       7.777   4.713  18.264  0.00  0.00    +0.000 C 
BRANCH   8  11
ATOM     11  S   UNL     1       6.904   4.986  14.296  0.00  0.00    +0.000 S 
ATOM     12  C   UNL     1       5.347   5.747  13.867  0.00  0.00    +0.000 C 
ATOM     13  O   UNL     1       7.951   5.667  13.560  0.00  0.00    +0.000 OA
ATOM     14  O   UNL     1       6.731   3.553  14.190  0.00  0.00    +0.000 OA
ENDBRANCH   8  11
ENDBRANCH   2   5
BRANCH   1  15
ATOM     15  C   UNL     1       3.065   5.785  19.569  0.00  0.00    +0.000 C 
BRANCH  15  16
ATOM     16  C   UNL     1       2.169   7.009  19.793  0.00  0.00    +0.000 A 
ATOM     17  C   UNL     1       1.447   7.147  20.997  0.00  0.00    +0.000 A 
ATOM     18  C   UNL     1       0.735   8.316  21.294  0.00  0.00    +0.000 A 
ATOM     19  C   UNL     1       0.706   9.374  20.387  0.00  0.00    +0.000 A 
ATOM     20  C   UNL     1      -0.027  10.647  20.694  0.00  0.00    +0.000 C 
ATOM     21  C   UNL     1       1.386   9.237  19.172  0.00  0.00    +0.000 A 
ATOM     22  C   UNL     1       2.115   8.071  18.862  0.00  0.00    +0.000 A 
ATOM     23  C   UNL     1       2.858   8.028  17.553  0.00  0.00    +0.000 C 
ENDBRANCH  15  16
BRANCH  15  25
ATOM     24  C   UNL     1       1.514   3.817  18.928  0.00  0.00    +0.000 C 
ATOM     25  C   UNL     1       2.454   4.909  18.449  0.00  0.00    +0.000 C 
ENDBRANCH  15  25
ENDBRANCH   1  15
TORSDOF 5
ENDMDL
