MODEL 1
REMARK VINA RESULT:      -8.2      0.000      0.000
REMARK  Name = 
REMARK  3 active torsions:
REMARK  status: ('A' for Active; 'I' for Inactive)
REMARK    1  A    between atoms: C_7  and  C_8
REMARK    2  A    between atoms: C_8  and  N_9
REMARK    3  A    between atoms: C_13  and  C_14
REMARK                            x       y       z     vdW  Elec       q    Type
REMARK                         _______ _______ _______ _____ _____    ______ ____
ROOT
ATOM      1  N   UNL     1       6.569   5.227  18.323  0.00  0.00    +0.000 NA
ATOM      2  C   UNL     1       7.849   5.571  18.954  0.00  0.00    +0.000 C 
ATOM      3  C   UNL     1       8.068   7.049  18.716  0.00  0.00    +0.000 C 
ATOM      4  C   UNL     1       7.380   7.321  17.395  0.00  0.00    +0.000 C 
ATOM      5  C   UNL     1       6.360   6.191  17.217  0.00  0.00    +0.000 C 
ENDROOT
BRANCH   5   6
ATOM      6  C   UNL     1       6.525   5.493  15.905  0.00  0.00    +0.000 A 
ATOM      7  C   UNL     1       5.738   4.597  15.213  0.00  0.00    +0.000 A 
ATOM      8  C   UNL     1       6.460   4.315  14.038  0.00  0.00    +0.000 A 
ATOM      9  N   UNL     1       7.620   4.969  13.983  0.00  0.00    +0.000 NA
ATOM     10  N   UNL     1       7.634   5.673  15.129  0.00  0.00    +0.000 N 
ATOM     11  H   UNL     1       8.426   6.274  15.336  0.00  0.00    +0.000 HD
ENDBRANCH   5   6
BRANCH   1  12
ATOM     12  C   UNL     1       5.432   5.223  19.255  0.00  0.00    +0.000 C 
BRANCH  12  19
ATOM     13  F   UNL     1       3.386   0.800  18.549  0.00  0.00    +0.000 F 
ATOM     14  C   UNL     1       3.295   2.133  18.462  0.00  0.00    +0.000 A 
ATOM     15  C   UNL     1       2.158   2.703  17.911  0.00  0.00    +0.000 A 
ATOM     16  C   UNL     1       2.086   4.085  17.826  0.00  0.00    +0.000 A 
ATOM     17  F   UNL     1       1.000   4.656  17.287  0.00  0.00    +0.000 F 
ATOM     18  C   UNL     1       3.125   4.894  18.283  0.00  0.00    +0.000 A 
ATOM     19  C   UNL     1       4.279   4.323  18.847  0.00  0.00    +0.000 A 
ATOM     20  C   UNL     1       4.351   2.923  18.920  0.00  0.00    +0.000 A 
ENDBRANCH  12  19
ENDBRANCH   1  12
TORSDOF 3
ENDMDL
MODEL 2
REMARK VINA RESULT:      -8.1      0.122      1.884
REMARK  Name = 
REMARK  3 active torsions:
REMARK  status: ('A' for Active; 'I' for Inactive)
REMARK    1  A    between atoms: C_7  and  C_8
REMARK    2  A    between atoms: C_8  and  N_9
REMARK    3  A    between atoms: C_13  and  C_14
REMARK                            x       y       z     vdW  Elec       q    Type
REMARK                         _______ _______ _______ _____ _____    ______ ____
ROOT
ATOM      1  N   UNL     1       6.586   5.162  18.267  0.00  0.00    +0.000 NA
ATOM      2  C   UNL     1       7.855   5.530  18.906  0.00  0.00    +0.000 C 
ATOM      3  C   UNL     1       8.042   7.014  18.678  0.00  0.00    +0.000 C 
ATOM      4  C   UNL     1       7.355   7.278  17.355  0.00  0.00    +0.000 C 
ATOM      5  C   UNL     1       6.361   6.127  17.165  0.00  0.00    +0.000 C 
ENDROOT
BRANCH   5   6
ATOM      6  C   UNL     1       6.548   5.441  15.850  0.00  0.00    +0.000 A 
ATOM      7  C   UNL     1       5.790   4.522  15.154  0.00  0.00    +0.000 A 
ATOM      8  C   UNL     1       6.521   4.269  13.978  0.00  0.00    +0.000 A 
ATOM      9  N   UNL     1       7.659   4.961  13.926  0.00  0.00    +0.000 NA
ATOM     10  N   UNL     1       7.650   5.660  15.074  0.00  0.00    +0.000 N 
ATOM     11  H   UNL     1       8.422   6.286  15.284  0.00  0.00    +0.000 HD
ENDBRANCH   5   6
BRANCH   1  12
ATOM     12  C   UNL     1       5.444   5.128  19.192  0.00  0.00    +0.000 C 
BRANCH  12  19
ATOM     13  F   UNL     1       0.923   4.734  17.281  0.00  0.00    +0.000 F 
ATOM     14  C   UNL     1       2.004   4.139  17.800  0.00  0.00    +0.000 A 
ATOM     15  C   UNL     1       2.008   2.764  17.975  0.00  0.00    +0.000 A 
ATOM     16  C   UNL     1       3.136   2.169  18.519  0.00  0.00    +0.000 A 
ATOM     17  F   UNL     1       3.156   0.843  18.705  0.00  0.00    +0.000 F 
ATOM     18  C   UNL     1       4.249   2.926  18.884  0.00  0.00    +0.000 A 
ATOM     19  C   UNL     1       4.254   4.320  18.705  0.00  0.00    +0.000 A 
ATOM     20  C   UNL     1       3.105   4.918  18.164  0.00  0.00    +0.000 A 
ENDBRANCH  12  19
ENDBRANCH   1  12
TORSDOF 3
ENDMDL
MODEL 3
REMARK VINA RESULT:      -8.0      1.056      1.921
REMARK  Name = 
REMARK  3 active torsions:
REMARK  status: ('A' for Active; 'I' for Inactive)
REMARK    1  A    between atoms: C_7  and  C_8
REMARK    2  A    between atoms: C_8  and  N_9
REMARK    3  A    between atoms: C_13  and  C_14
REMARK                            x       y       z     vdW  Elec       q    Type
REMARK                         _______ _______ _______ _____ _____    ______ ____
ROOT
ATOM      1  N   UNL     1       6.231   5.271  18.381  0.00  0.00    +0.000 NA
ATOM      2  C   UNL     1       7.555   5.429  18.995  0.00  0.00    +0.000 C 
ATOM      3  C   UNL     1       8.020   6.833  18.674  0.00  0.00    +0.000 C 
ATOM      4  C   UNL     1       7.379   7.142  17.337  0.00  0.00    +0.000 C 
ATOM      5  C   UNL     1       6.181   6.192  17.221  0.00  0.00    +0.000 C 
ENDROOT
BRANCH   5   6
ATOM      6  C   UNL     1       6.217   5.404  15.952  0.00  0.00    +0.000 A 
ATOM      7  C   UNL     1       5.361   4.473  15.400  0.00  0.00    +0.000 A 
ATOM      8  C   UNL     1       5.967   4.100  14.185  0.00  0.00    +0.000 A 
ATOM      9  N   UNL     1       7.122   4.733  13.977  0.00  0.00    +0.000 NA
ATOM     10  N   UNL     1       7.248   5.514  15.065  0.00  0.00    +0.000 N 
ATOM     11  H   UNL     1       8.061   6.116  15.155  0.00  0.00    +0.000 HD
ENDBRANCH   5   6
BRANCH   1  12
ATOM     12  C   UNL     1       5.116   5.514  19.308  0.00  0.00    +0.000 C 
BRANCH  12  19
ATOM     13  F   UNL     1       0.579   3.902  20.340  0.00  0.00    +0.000 F 
ATOM     14  C   UNL     1       1.791   3.663  19.824  0.00  0.00    +0.000 A 
ATOM     15  C   UNL     1       2.082   2.404  19.322  0.00  0.00    +0.000 A 
ATOM     16  C   UNL     1       3.345   2.177  18.798  0.00  0.00    +0.000 A 
ATOM     17  F   UNL     1       3.649   0.964  18.316  0.00  0.00    +0.000 F 
ATOM     18  C   UNL     1       4.309   3.183  18.769  0.00  0.00    +0.000 A 
ATOM     19  C   UNL     1       4.020   4.463  19.272  0.00  0.00    +0.000 A 
ATOM     20  C   UNL     1       2.743   4.685  19.812  0.00  0.00    +0.000 A 
ENDBRANCH  12  19
ENDBRANCH   1  12
TORSDOF 3
ENDMDL
MODEL 4
REMARK VINA RESULT:      -8.0      1.080      1.080
REMARK  Name = 
REMARK  3 active torsions:
REMARK  status: ('A' for Active; 'I' for Inactive)
REMARK    1  A    between atoms: C_7  and  C_8
REMARK    2  A    between atoms: C_8  and  N_9
REMARK    3  A    between atoms: C_13  and  C_14
REMARK                            x       y       z     vdW  Elec       q    Type
REMARK                         _______ _______ _______ _____ _____    ______ ____
ROOT
ATOM      1  N   UNL     1       6.227   5.298  18.386  0.00  0.00    +0.000 NA
ATOM      2  C   UNL     1       7.548   5.462  19.004  0.00  0.00    +0.000 C 
ATOM      3  C   UNL     1       8.014   6.862  18.669  0.00  0.00    +0.000 C 
ATOM      4  C   UNL     1       7.380   7.155  17.326  0.00  0.00    +0.000 C 
ATOM      5  C   UNL     1       6.182   6.205  17.216  0.00  0.00    +0.000 C 
ENDROOT
BRANCH   5   6
ATOM      6  C   UNL     1       6.223   5.401  15.956  0.00  0.00    +0.000 A 
ATOM      7  C   UNL     1       5.378   4.452  15.420  0.00  0.00    +0.000 A 
ATOM      8  C   UNL     1       5.985   4.073  14.207  0.00  0.00    +0.000 A 
ATOM      9  N   UNL     1       7.129   4.719  13.986  0.00  0.00    +0.000 NA
ATOM     10  N   UNL     1       7.250   5.515  15.063  0.00  0.00    +0.000 N 
ATOM     11  H   UNL     1       8.054   6.130  15.141  0.00  0.00    +0.000 HD
ENDBRANCH   5   6
BRANCH   1  12
ATOM     12  C   UNL     1       5.107   5.551  19.305  0.00  0.00    +0.000 C 
BRANCH  12  19
ATOM     13  F   UNL     1       3.530   0.993  18.312  0.00  0.00    +0.000 F 
ATOM     14  C   UNL     1       3.289   2.202  18.836  0.00  0.00    +0.000 A 
ATOM     15  C   UNL     1       2.041   2.475  19.372  0.00  0.00    +0.000 A 
ATOM     16  C   UNL     1       1.810   3.734  19.905  0.00  0.00    +0.000 A 
ATOM     17  F   UNL     1       0.607   4.021  20.420  0.00  0.00    +0.000 F 
ATOM     18  C   UNL     1       2.804   4.712  19.907  0.00  0.00    +0.000 A 
ATOM     19  C   UNL     1       4.073   4.440  19.369  0.00  0.00    +0.000 A 
ATOM     20  C   UNL     1       4.297   3.167  18.822  0.00  0.00    +0.000 A 
ENDBRANCH  12  19
ENDBRANCH   1  12
TORSDOF 3
ENDMDL
MODEL 5
REMARK VINA RESULT:      -7.9      1.879      2.188
REMARK  Name = 
REMARK  3 active torsions:
REMARK  status: ('A' for Active; 'I' for Inactive)
REMARK    1  A    between atoms: C_7  and  C_8
REMARK    2  A    between atoms: C_8  and  N_9
REMARK    3  A    between atoms: C_13  and  C_14
REMARK                            x       y       z     vdW  Elec       q    Type
REMARK                         _______ _______ _______ _____ _____    ______ ____
ROOT
ATOM      1  N   UNL     1       4.874   4.946  17.654  0.00  0.00    +0.000 NA
ATOM      2  C   UNL     1       5.615   4.402  18.799  0.00  0.00    +0.000 C 
ATOM      3  C   UNL     1       6.593   5.471  19.232  0.00  0.00    +0.000 C 
ATOM      4  C   UNL     1       6.924   6.214  17.955  0.00  0.00    +0.000 C 
ATOM      5  C   UNL     1       5.759   5.936  16.998  0.00  0.00    +0.000 C 
ENDROOT
BRANCH   5   6
ATOM      6  C   UNL     1       6.232   5.396  15.687  0.00  0.00    +0.000 A 
ATOM      7  C   UNL     1       5.653   4.565  14.750  0.00  0.00    +0.000 A 
ATOM      8  C   UNL     1       6.621   4.436  13.736  0.00  0.00    +0.000 A 
ATOM      9  N   UNL     1       7.734   5.120  14.003  0.00  0.00    +0.000 NA
ATOM     10  N   UNL     1       7.470   5.690  15.192  0.00  0.00    +0.000 N 
ATOM     11  H   UNL     1       8.171   6.282  15.628  0.00  0.00    +0.000 HD
ENDBRANCH   5   6
BRANCH   1  12
ATOM     12  C   UNL     1       3.578   5.540  18.016  0.00  0.00    +0.000 C 
BRANCH  12  19
ATOM     13  F   UNL     1       2.185   3.725  22.376  0.00  0.00    +0.000 F 
ATOM     14  C   UNL     1       2.048   3.742  21.044  0.00  0.00    +0.000 A 
ATOM     15  C   UNL     1       1.144   2.882  20.441  0.00  0.00    +0.000 A 
ATOM     16  C   UNL     1       1.022   2.913  19.060  0.00  0.00    +0.000 A 
ATOM     17  F   UNL     1       0.160   2.082  18.457  0.00  0.00    +0.000 F 
ATOM     18  C   UNL     1       1.784   3.786  18.285  0.00  0.00    +0.000 A 
ATOM     19  C   UNL     1       2.699   4.664  18.890  0.00  0.00    +0.000 A 
ATOM     20  C   UNL     1       2.826   4.621  20.288  0.00  0.00    +0.000 A 
ENDBRANCH  12  19
ENDBRANCH   1  12
TORSDOF 3
ENDMDL
MODEL 6
REMARK VINA RESULT:      -7.8      1.873      2.275
REMARK  Name = 
REMARK  3 active torsions:
REMARK  status: ('A' for Active; 'I' for Inactive)
REMARK    1  A    between atoms: C_7  and  C_8
REMARK    2  A    between atoms: C_8  and  N_9
REMARK    3  A    between atoms: C_13  and  C_14
REMARK                            x       y       z     vdW  Elec       q    Type
REMARK                         _______ _______ _______ _____ _____    ______ ____
ROOT
ATOM      1  N   UNL     1       4.961   4.909  17.617  0.00  0.00    +0.000 NA
ATOM      2  C   UNL     1       5.755   4.422  18.751  0.00  0.00    +0.000 C 
ATOM      3  C   UNL     1       6.687   5.547  19.145  0.00  0.00    +0.000 C 
ATOM      4  C   UNL     1       6.950   6.284  17.848  0.00  0.00    +0.000 C 
ATOM      5  C   UNL     1       5.779   5.932  16.925  0.00  0.00    +0.000 C 
ENDROOT
BRANCH   5   6
ATOM      6  C   UNL     1       6.248   5.395  15.611  0.00  0.00    +0.000 A 
ATOM      7  C   UNL     1       5.657   4.588  14.661  0.00  0.00    +0.000 A 
ATOM      8  C   UNL     1       6.628   4.447  13.652  0.00  0.00    +0.000 A 
ATOM      9  N   UNL     1       7.755   5.102  13.934  0.00  0.00    +0.000 NA
ATOM     10  N   UNL     1       7.496   5.665  15.128  0.00  0.00    +0.000 N 
ATOM     11  H   UNL     1       8.207   6.236  15.575  0.00  0.00    +0.000 HD
ENDBRANCH   5   6
BRANCH   1  12
ATOM     12  C   UNL     1       3.645   5.442  18.000  0.00  0.00    +0.000 C 
BRANCH  12  19
ATOM     13  F   UNL     1       0.096   2.060  18.475  0.00  0.00    +0.000 F 
ATOM     14  C   UNL     1       1.007   2.856  19.050  0.00  0.00    +0.000 A 
ATOM     15  C   UNL     1       1.116   2.879  20.431  0.00  0.00    +0.000 A 
ATOM     16  C   UNL     1       2.062   3.713  21.007  0.00  0.00    +0.000 A 
ATOM     17  F   UNL     1       2.177   3.756  22.341  0.00  0.00    +0.000 F 
ATOM     18  C   UNL     1       2.892   4.515  20.225  0.00  0.00    +0.000 A 
ATOM     19  C   UNL     1       2.790   4.493  18.823  0.00  0.00    +0.000 A 
ATOM     20  C   UNL     1       1.823   3.655  18.246  0.00  0.00    +0.000 A 
ENDBRANCH  12  19
ENDBRANCH   1  12
TORSDOF 3
ENDMDL
MODEL 7
REMARK VINA RESULT:      -7.6      1.910      3.479
REMARK  Name = 
REMARK  3 active torsions:
REMARK  status: ('A' for Active; 'I' for Inactive)
REMARK    1  A    between atoms: C_7  and  C_8
REMARK    2  A    between atoms: C_8  and  N_9
REMARK    3  A    between atoms: C_13  and  C_14
REMARK                            x       y       z     vdW  Elec       q    Type
REMARK                         _______ _______ _______ _____ _____    ______ ____
ROOT
ATOM      1  N   UNL     1       5.289   4.634  17.174  0.00  0.00    +0.000 NA
ATOM      2  C   UNL     1       4.733   4.703  15.817  0.00  0.00    +0.000 C 
ATOM      3  C   UNL     1       5.752   4.068  14.896  0.00  0.00    +0.000 C 
ATOM      4  C   UNL     1       7.083   4.352  15.560  0.00  0.00    +0.000 C 
ATOM      5  C   UNL     1       6.764   4.617  17.035  0.00  0.00    +0.000 C 
ENDROOT
BRANCH   5   6
ATOM      6  C   UNL     1       7.327   5.920  17.501  0.00  0.00    +0.000 A 
ATOM      7  C   UNL     1       7.839   6.344  18.711  0.00  0.00    +0.000 A 
ATOM      8  C   UNL     1       8.201   7.688  18.499  0.00  0.00    +0.000 A 
ATOM      9  N   UNL     1       7.936   8.097  17.259  0.00  0.00    +0.000 NA
ATOM     10  N   UNL     1       7.406   7.007  16.678  0.00  0.00    +0.000 N 
ATOM     11  H   UNL     1       7.115   7.050  15.706  0.00  0.00    +0.000 HD
ENDBRANCH   5   6
BRANCH   1  12
ATOM     12  C   UNL     1       4.809   3.483  17.953  0.00  0.00    +0.000 C 
BRANCH  12  19
ATOM     13  F   UNL     1       1.810   5.683  21.180  0.00  0.00    +0.000 F 
ATOM     14  C   UNL     1       1.996   4.747  20.241  0.00  0.00    +0.000 A 
ATOM     15  C   UNL     1       0.958   3.885  19.924  0.00  0.00    +0.000 A 
ATOM     16  C   UNL     1       1.174   2.919  18.952  0.00  0.00    +0.000 A 
ATOM     17  F   UNL     1       0.186   2.070  18.637  0.00  0.00    +0.000 F 
ATOM     18  C   UNL     1       2.401   2.809  18.301  0.00  0.00    +0.000 A 
ATOM     19  C   UNL     1       3.456   3.682  18.614  0.00  0.00    +0.000 A 
ATOM     20  C   UNL     1       3.236   4.651  19.606  0.00  0.00    +0.000 A 
ENDBRANCH  12  19
ENDBRANCH   1  12
TORSDOF 3
ENDMDL
MODEL 8
REMARK VINA RESULT:      -7.3      2.055      3.384
REMARK  Name = 
REMARK  3 active torsions:
REMARK  status: ('A' for Active; 'I' for Inactive)
REMARK    1  A    between atoms: C_7  and  C_8
REMARK    2  A    between atoms: C_8  and  N_9
REMARK    3  A    between atoms: C_13  and  C_14
REMARK                            x       y       z     vdW  Elec       q    Type
REMARK                         _______ _______ _______ _____ _____    ______ ____
ROOT
ATOM      1  N   UNL     1       5.391   4.866  17.844  0.00  0.00    +0.000 NA
ATOM      2  C   UNL     1       4.783   4.631  16.528  0.00  0.00    +0.000 C 
ATOM      3  C   UNL     1       5.807   3.882  15.703  0.00  0.00    +0.000 C 
ATOM      4  C   UNL     1       7.140   4.366  16.234  0.00  0.00    +0.000 C 
ATOM      5  C   UNL     1       6.858   4.902  17.642  0.00  0.00    +0.000 C 
ENDROOT
BRANCH   5   6
ATOM      6  C   UNL     1       7.354   6.302  17.814  0.00  0.00    +0.000 A 
ATOM      7  C   UNL     1       7.161   7.462  17.093  0.00  0.00    +0.000 A 
ATOM      8  C   UNL     1       7.906   8.441  17.778  0.00  0.00    +0.000 A 
ATOM      9  N   UNL     1       8.533   7.949  18.847  0.00  0.00    +0.000 NA
ATOM     10  N   UNL     1       8.182   6.651  18.842  0.00  0.00    +0.000 N 
ATOM     11  H   UNL     1       8.531   6.037  19.572  0.00  0.00    +0.000 HD
ENDBRANCH   5   6
BRANCH   1  12
ATOM     12  C   UNL     1       5.013   3.869  18.857  0.00  0.00    +0.000 C 
BRANCH  12  19
ATOM     13  F   UNL     1       0.372   2.260  19.213  0.00  0.00    +0.000 F 
ATOM     14  C   UNL     1       1.285   3.199  19.490  0.00  0.00    +0.000 A 
ATOM     15  C   UNL     1       0.901   4.341  20.176  0.00  0.00    +0.000 A 
ATOM     16  C   UNL     1       1.860   5.303  20.449  0.00  0.00    +0.000 A 
ATOM     17  F   UNL     1       1.507   6.418  21.104  0.00  0.00    +0.000 F 
ATOM     18  C   UNL     1       3.186   5.138  20.049  0.00  0.00    +0.000 A 
ATOM     19  C   UNL     1       3.583   3.982  19.357  0.00  0.00    +0.000 A 
ATOM     20  C   UNL     1       2.605   3.015  19.074  0.00  0.00    +0.000 A 
ENDBRANCH  12  19
ENDBRANCH   1  12
TORSDOF 3
ENDMDL
MODEL 9
REMARK VINA RESULT:      -7.3      3.121      5.007
REMARK  Name = 
REMARK  3 active torsions:
REMARK  status: ('A' for Active; 'I' for Inactive)
REMARK    1  A    between atoms: C_7  and  C_8
REMARK    2  A    between atoms: C_8  and  N_9
REMARK    3  A    between atoms: C_13  and  C_14
REMARK                            x       y       z     vdW  Elec       q    Type
REMARK                         _______ _______ _______ _____ _____    ______ ____
ROOT
ATOM      1  N   UNL     1       3.250   4.887  18.400  0.00  0.00    +0.000 NA
ATOM      2  C   UNL     1       2.123   4.267  17.692  0.00  0.00    +0.000 C 
ATOM      3  C   UNL     1       2.201   2.782  17.966  0.00  0.00    +0.000 C 
ATOM      4  C   UNL     1       3.681   2.510  18.137  0.00  0.00    +0.000 C 
ATOM      5  C   UNL     1       4.310   3.857  18.507  0.00  0.00    +0.000 C 
ENDROOT
BRANCH   5   6
ATOM      6  C   UNL     1       5.446   4.209  17.601  0.00  0.00    +0.000 A 
ATOM      7  C   UNL     1       5.508   4.569  16.270  0.00  0.00    +0.000 A 
ATOM      8  C   UNL     1       6.878   4.767  16.014  0.00  0.00    +0.000 A 
ATOM      9  N   UNL     1       7.635   4.546  17.089  0.00  0.00    +0.000 NA
ATOM     10  N   UNL     1       6.740   4.207  18.034  0.00  0.00    +0.000 N 
ATOM     11  H   UNL     1       7.063   3.987  18.971  0.00  0.00    +0.000 HD
ENDBRANCH   5   6
BRANCH   1  12
ATOM     12  C   UNL     1       2.895   5.432  19.718  0.00  0.00    +0.000 C 
BRANCH  12  19
ATOM     13  F   UNL     1       0.361   9.156  21.709  0.00  0.00    +0.000 F 
ATOM     14  C   UNL     1       1.040   8.657  20.668  0.00  0.00    +0.000 A 
ATOM     15  C   UNL     1       1.159   9.409  19.509  0.00  0.00    +0.000 A 
ATOM     16  C   UNL     1       1.861   8.872  18.441  0.00  0.00    +0.000 A 
ATOM     17  F   UNL     1       1.980   9.578  17.309  0.00  0.00    +0.000 F 
ATOM     18  C   UNL     1       2.442   7.606  18.519  0.00  0.00    +0.000 A 
ATOM     19  C   UNL     1       2.329   6.841  19.692  0.00  0.00    +0.000 A 
ATOM     20  C   UNL     1       1.607   7.385  20.766  0.00  0.00    +0.000 A 
ENDBRANCH  12  19
ENDBRANCH   1  12
TORSDOF 3
ENDMDL
