MODEL 1
REMARK VINA RESULT:      -6.8      0.000      0.000
REMARK  Name = 
REMARK  9 active torsions:
REMARK  status: ('A' for Active; 'I' for Inactive)
REMARK    1  A    between atoms: C_1  and  C_2
REMARK    2  A    between atoms: C_2  and  C_3
REMARK    3  A    between atoms: C_2  and  C_4
REMARK    4  A    between atoms: C_2  and  C_5
REMARK    5  A    between atoms: C_5  and  C_6
REMARK    6  A    between atoms: C_6  and  C_7
REMARK    7  A    between atoms: C_6  and  C_8
REMARK    8  A    between atoms: C_6  and  N_9
REMARK    9  A    between atoms: N_12  and  C_13
REMARK                            x       y       z     vdW  Elec       q    Type
REMARK                         _______ _______ _______ _____ _____    ______ ____
ROOT
ATOM      1  N   UNL     1       2.420   6.831  18.752  0.00  0.00    +0.000 N 
ATOM      2  C   UNL     1       3.273   7.274  17.763  0.00  0.00    +0.000 C 
ATOM      3  O   UNL     1       3.120   8.389  17.261  0.00  0.00    +0.000 OA
ATOM      4  N   UNL     1       4.298   6.428  17.441  0.00  0.00    +0.000 N 
ATOM      5  H   UNL     1       1.700   7.507  18.973  0.00  0.00    +0.000 HD
ATOM      6  H   UNL     1       4.264   5.490  17.792  0.00  0.00    +0.000 HD
ENDROOT
BRANCH   4   7
ATOM      7  C   UNL     1       5.329   6.680  16.446  0.00  0.00    +0.000 C 
ATOM      8  C   UNL     1       6.667   6.997  17.136  0.00  0.00    +0.000 C 
ATOM      9  C   UNL     1       7.332   5.780  17.784  0.00  0.00    +0.000 C 
ATOM     10  C   UNL     1       7.445   4.591  16.838  0.00  0.00    +0.000 C 
ATOM     11  C   UNL     1       6.136   4.270  16.122  0.00  0.00    +0.000 C 
ATOM     12  C   UNL     1       5.478   5.496  15.485  0.00  0.00    +0.000 C 
ENDBRANCH   4   7
BRANCH   1  13
ATOM     13  C   UNL     1       2.441   5.537  19.498  0.00  0.00    +0.000 C 
ATOM     14  C   UNL     1       1.556   5.722  20.752  0.00  0.00    +0.000 C 
ATOM     15  C   UNL     1       3.925   5.218  19.788  0.00  0.00    +0.000 C 
BRANCH  13  16
ATOM     16  C   UNL     1       1.838   4.358  18.625  0.00  0.00    +0.000 C 
BRANCH  16  18
ATOM     17  C   UNL     1       2.118   2.691  20.622  0.00  0.00    +0.000 C 
ATOM     18  C   UNL     1       1.924   2.844  19.102  0.00  0.00    +0.000 C 
ATOM     19  C   UNL     1       3.019   2.030  18.391  0.00  0.00    +0.000 C 
ATOM     20  C   UNL     1       0.582   2.148  18.767  0.00  0.00    +0.000 C 
ENDBRANCH  16  18
ENDBRANCH  13  16
ENDBRANCH   1  13
TORSDOF 4
ENDMDL
MODEL 2
REMARK VINA RESULT:      -6.7      1.631      2.468
REMARK  Name = 
REMARK  9 active torsions:
REMARK  status: ('A' for Active; 'I' for Inactive)
REMARK    1  A    between atoms: C_1  and  C_2
REMARK    2  A    between atoms: C_2  and  C_3
REMARK    3  A    between atoms: C_2  and  C_4
REMARK    4  A    between atoms: C_2  and  C_5
REMARK    5  A    between atoms: C_5  and  C_6
REMARK    6  A    between atoms: C_6  and  C_7
REMARK    7  A    between atoms: C_6  and  C_8
REMARK    8  A    between atoms: C_6  and  N_9
REMARK    9  A    between atoms: N_12  and  C_13
REMARK                            x       y       z     vdW  Elec       q    Type
REMARK                         _______ _______ _______ _____ _____    ______ ____
ROOT
ATOM      1  N   UNL     1       4.084   5.371  19.941  0.00  0.00    +0.000 N 
ATOM      2  C   UNL     1       5.305   5.418  19.302  0.00  0.00    +0.000 C 
ATOM      3  O   UNL     1       6.343   5.171  19.919  0.00  0.00    +0.000 OA
ATOM      4  N   UNL     1       5.264   5.694  17.963  0.00  0.00    +0.000 N 
ATOM      5  H   UNL     1       4.170   5.132  20.921  0.00  0.00    +0.000 HD
ATOM      6  H   UNL     1       4.399   6.020  17.575  0.00  0.00    +0.000 HD
ENDROOT
BRANCH   4   7
ATOM      7  C   UNL     1       6.414   5.781  17.076  0.00  0.00    +0.000 C 
ATOM      8  C   UNL     1       6.918   4.371  16.720  0.00  0.00    +0.000 C 
ATOM      9  C   UNL     1       6.002   3.611  15.757  0.00  0.00    +0.000 C 
ATOM     10  C   UNL     1       5.642   4.420  14.517  0.00  0.00    +0.000 C 
ATOM     11  C   UNL     1       5.162   5.831  14.841  0.00  0.00    +0.000 C 
ATOM     12  C   UNL     1       6.082   6.576  15.809  0.00  0.00    +0.000 C 
ENDBRANCH   4   7
BRANCH   1  13
ATOM     13  C   UNL     1       2.722   5.613  19.379  0.00  0.00    +0.000 C 
ATOM     14  C   UNL     1       2.760   6.989  18.676  0.00  0.00    +0.000 C 
ATOM     15  C   UNL     1       1.731   5.509  20.560  0.00  0.00    +0.000 C 
BRANCH  13  16
ATOM     16  C   UNL     1       2.337   4.509  18.306  0.00  0.00    +0.000 C 
BRANCH  16  18
ATOM     17  C   UNL     1       0.749   2.488  18.797  0.00  0.00    +0.000 C 
ATOM     18  C   UNL     1       2.207   2.976  18.703  0.00  0.00    +0.000 C 
ATOM     19  C   UNL     1       2.924   2.611  20.014  0.00  0.00    +0.000 C 
ATOM     20  C   UNL     1       2.876   2.125  17.595  0.00  0.00    +0.000 C 
ENDBRANCH  16  18
ENDBRANCH  13  16
ENDBRANCH   1  13
TORSDOF 4
ENDMDL
MODEL 3
REMARK VINA RESULT:      -6.7      0.890      1.550
REMARK  Name = 
REMARK  9 active torsions:
REMARK  status: ('A' for Active; 'I' for Inactive)
REMARK    1  A    between atoms: C_1  and  C_2
REMARK    2  A    between atoms: C_2  and  C_3
REMARK    3  A    between atoms: C_2  and  C_4
REMARK    4  A    between atoms: C_2  and  C_5
REMARK    5  A    between atoms: C_5  and  C_6
REMARK    6  A    between atoms: C_6  and  C_7
REMARK    7  A    between atoms: C_6  and  C_8
REMARK    8  A    between atoms: C_6  and  N_9
REMARK    9  A    between atoms: N_12  and  C_13
REMARK                            x       y       z     vdW  Elec       q    Type
REMARK                         _______ _______ _______ _____ _____    ______ ____
ROOT
ATOM      1  N   UNL     1       2.302   6.435  18.743  0.00  0.00    +0.000 N 
ATOM      2  C   UNL     1       3.262   7.019  17.945  0.00  0.00    +0.000 C 
ATOM      3  O   UNL     1       3.331   8.246  17.847  0.00  0.00    +0.000 OA
ATOM      4  N   UNL     1       4.136   6.158  17.339  0.00  0.00    +0.000 N 
ATOM      5  H   UNL     1       1.704   7.117  19.191  0.00  0.00    +0.000 HD
ATOM      6  H   UNL     1       3.921   5.179  17.357  0.00  0.00    +0.000 HD
ENDROOT
BRANCH   4   7
ATOM      7  C   UNL     1       5.237   6.536  16.468  0.00  0.00    +0.000 C 
ATOM      8  C   UNL     1       6.488   6.861  17.304  0.00  0.00    +0.000 C 
ATOM      9  C   UNL     1       7.157   5.631  17.921  0.00  0.00    +0.000 C 
ATOM     10  C   UNL     1       7.420   4.526  16.905  0.00  0.00    +0.000 C 
ATOM     11  C   UNL     1       6.202   4.200  16.046  0.00  0.00    +0.000 C 
ATOM     12  C   UNL     1       5.539   5.439  15.442  0.00  0.00    +0.000 C 
ENDBRANCH   4   7
BRANCH   1  13
ATOM     13  C   UNL     1       2.062   4.985  19.012  0.00  0.00    +0.000 C 
ATOM     14  C   UNL     1       1.357   4.404  17.766  0.00  0.00    +0.000 C 
ATOM     15  C   UNL     1       1.244   4.908  20.321  0.00  0.00    +0.000 C 
BRANCH  13  16
ATOM     16  C   UNL     1       3.427   4.206  19.230  0.00  0.00    +0.000 C 
BRANCH  16  18
ATOM     17  C   UNL     1       2.139   1.987  19.748  0.00  0.00    +0.000 C 
ATOM     18  C   UNL     1       3.473   2.619  19.306  0.00  0.00    +0.000 C 
ATOM     19  C   UNL     1       4.590   2.072  20.211  0.00  0.00    +0.000 C 
ATOM     20  C   UNL     1       3.759   2.069  17.886  0.00  0.00    +0.000 C 
ENDBRANCH  16  18
ENDBRANCH  13  16
ENDBRANCH   1  13
TORSDOF 4
ENDMDL
MODEL 4
REMARK VINA RESULT:      -6.7      1.744      2.546
REMARK  Name = 
REMARK  9 active torsions:
REMARK  status: ('A' for Active; 'I' for Inactive)
REMARK    1  A    between atoms: C_1  and  C_2
REMARK    2  A    between atoms: C_2  and  C_3
REMARK    3  A    between atoms: C_2  and  C_4
REMARK    4  A    between atoms: C_2  and  C_5
REMARK    5  A    between atoms: C_5  and  C_6
REMARK    6  A    between atoms: C_6  and  C_7
REMARK    7  A    between atoms: C_6  and  C_8
REMARK    8  A    between atoms: C_6  and  N_9
REMARK    9  A    between atoms: N_12  and  C_13
REMARK                            x       y       z     vdW  Elec       q    Type
REMARK                         _______ _______ _______ _____ _____    ______ ____
ROOT
ATOM      1  N   UNL     1       4.151   5.331  19.903  0.00  0.00    +0.000 N 
ATOM      2  C   UNL     1       5.366   5.427  19.257  0.00  0.00    +0.000 C 
ATOM      3  O   UNL     1       6.414   5.195  19.864  0.00  0.00    +0.000 OA
ATOM      4  N   UNL     1       5.309   5.731  17.926  0.00  0.00    +0.000 N 
ATOM      5  H   UNL     1       4.249   5.074  20.876  0.00  0.00    +0.000 HD
ATOM      6  H   UNL     1       4.433   6.042  17.550  0.00  0.00    +0.000 HD
ENDROOT
BRANCH   4   7
ATOM      7  C   UNL     1       6.450   5.870  17.034  0.00  0.00    +0.000 C 
ATOM      8  C   UNL     1       7.025   4.485  16.687  0.00  0.00    +0.000 C 
ATOM      9  C   UNL     1       6.146   3.672  15.734  0.00  0.00    +0.000 C 
ATOM     10  C   UNL     1       5.742   4.452  14.488  0.00  0.00    +0.000 C 
ATOM     11  C   UNL     1       5.191   5.839  14.803  0.00  0.00    +0.000 C 
ATOM     12  C   UNL     1       6.075   6.638  15.763  0.00  0.00    +0.000 C 
ENDBRANCH   4   7
BRANCH   1  13
ATOM     13  C   UNL     1       2.778   5.548  19.353  0.00  0.00    +0.000 C 
ATOM     14  C   UNL     1       2.790   5.042  17.893  0.00  0.00    +0.000 C 
ATOM     15  C   UNL     1       2.467   7.052  19.521  0.00  0.00    +0.000 C 
BRANCH  13  16
ATOM     16  C   UNL     1       1.695   4.720  20.165  0.00  0.00    +0.000 C 
BRANCH  16  18
ATOM     17  C   UNL     1       3.094   2.525  19.892  0.00  0.00    +0.000 C 
ATOM     18  C   UNL     1       1.707   3.131  20.182  0.00  0.00    +0.000 C 
ATOM     19  C   UNL     1       0.690   2.492  19.221  0.00  0.00    +0.000 C 
ATOM     20  C   UNL     1       1.318   2.653  21.603  0.00  0.00    +0.000 C 
ENDBRANCH  16  18
ENDBRANCH  13  16
ENDBRANCH   1  13
TORSDOF 4
ENDMDL
MODEL 5
REMARK VINA RESULT:      -6.6      1.799      2.574
REMARK  Name = 
REMARK  9 active torsions:
REMARK  status: ('A' for Active; 'I' for Inactive)
REMARK    1  A    between atoms: C_1  and  C_2
REMARK    2  A    between atoms: C_2  and  C_3
REMARK    3  A    between atoms: C_2  and  C_4
REMARK    4  A    between atoms: C_2  and  C_5
REMARK    5  A    between atoms: C_5  and  C_6
REMARK    6  A    between atoms: C_6  and  C_7
REMARK    7  A    between atoms: C_6  and  C_8
REMARK    8  A    between atoms: C_6  and  N_9
REMARK    9  A    between atoms: N_12  and  C_13
REMARK                            x       y       z     vdW  Elec       q    Type
REMARK                         _______ _______ _______ _____ _____    ______ ____
ROOT
ATOM      1  N   UNL     1       3.188   4.571  17.546  0.00  0.00    +0.000 N 
ATOM      2  C   UNL     1       4.416   4.414  16.937  0.00  0.00    +0.000 C 
ATOM      3  O   UNL     1       4.534   3.688  15.948  0.00  0.00    +0.000 OA
ATOM      4  N   UNL     1       5.440   5.149  17.467  0.00  0.00    +0.000 N 
ATOM      5  H   UNL     1       2.462   4.030  17.095  0.00  0.00    +0.000 HD
ATOM      6  H   UNL     1       5.289   5.598  18.351  0.00  0.00    +0.000 HD
ENDROOT
BRANCH   4   7
ATOM      7  C   UNL     1       6.814   5.164  16.990  0.00  0.00    +0.000 C 
ATOM      8  C   UNL     1       7.172   6.559  16.447  0.00  0.00    +0.000 C 
ATOM      9  C   UNL     1       7.345   7.621  17.535  0.00  0.00    +0.000 C 
ATOM     10  C   UNL     1       8.288   7.181  18.649  0.00  0.00    +0.000 C 
ATOM     11  C   UNL     1       7.970   5.791  19.189  0.00  0.00    +0.000 C 
ATOM     12  C   UNL     1       7.791   4.741  18.091  0.00  0.00    +0.000 C 
ENDBRANCH   4   7
BRANCH   1  13
ATOM     13  C   UNL     1       2.828   5.410  18.728  0.00  0.00    +0.000 C 
ATOM     14  C   UNL     1       2.273   6.745  18.184  0.00  0.00    +0.000 C 
ATOM     15  C   UNL     1       4.107   5.535  19.586  0.00  0.00    +0.000 C 
BRANCH  13  16
ATOM     16  C   UNL     1       1.704   4.716  19.606  0.00  0.00    +0.000 C 
BRANCH  16  18
ATOM     17  C   UNL     1       3.099   2.508  19.775  0.00  0.00    +0.000 C 
ATOM     18  C   UNL     1       1.699   3.147  19.860  0.00  0.00    +0.000 C 
ATOM     19  C   UNL     1       0.756   2.369  18.926  0.00  0.00    +0.000 C 
ATOM     20  C   UNL     1       1.194   2.885  21.300  0.00  0.00    +0.000 C 
ENDBRANCH  16  18
ENDBRANCH  13  16
ENDBRANCH   1  13
TORSDOF 4
ENDMDL
MODEL 6
REMARK VINA RESULT:      -6.6      1.792      2.447
REMARK  Name = 
REMARK  9 active torsions:
REMARK  status: ('A' for Active; 'I' for Inactive)
REMARK    1  A    between atoms: C_1  and  C_2
REMARK    2  A    between atoms: C_2  and  C_3
REMARK    3  A    between atoms: C_2  and  C_4
REMARK    4  A    between atoms: C_2  and  C_5
REMARK    5  A    between atoms: C_5  and  C_6
REMARK    6  A    between atoms: C_6  and  C_7
REMARK    7  A    between atoms: C_6  and  C_8
REMARK    8  A    between atoms: C_6  and  N_9
REMARK    9  A    between atoms: N_12  and  C_13
REMARK                            x       y       z     vdW  Elec       q    Type
REMARK                         _______ _______ _______ _____ _____    ______ ____
ROOT
ATOM      1  N   UNL     1       3.178   4.564  17.536  0.00  0.00    +0.000 N 
ATOM      2  C   UNL     1       4.404   4.415  16.924  0.00  0.00    +0.000 C 
ATOM      3  O   UNL     1       4.512   3.740  15.898  0.00  0.00    +0.000 OA
ATOM      4  N   UNL     1       5.440   5.101  17.495  0.00  0.00    +0.000 N 
ATOM      5  H   UNL     1       2.442   4.062  17.055  0.00  0.00    +0.000 HD
ATOM      6  H   UNL     1       5.295   5.505  18.400  0.00  0.00    +0.000 HD
ENDROOT
BRANCH   4   7
ATOM      7  C   UNL     1       6.816   5.114  17.023  0.00  0.00    +0.000 C 
ATOM      8  C   UNL     1       7.163   6.493  16.434  0.00  0.00    +0.000 C 
ATOM      9  C   UNL     1       7.321   7.593  17.487  0.00  0.00    +0.000 C 
ATOM     10  C   UNL     1       8.263   7.200  18.618  0.00  0.00    +0.000 C 
ATOM     11  C   UNL     1       7.956   5.826  19.204  0.00  0.00    +0.000 C 
ATOM     12  C   UNL     1       7.793   4.738  18.141  0.00  0.00    +0.000 C 
ENDBRANCH   4   7
BRANCH   1  13
ATOM     13  C   UNL     1       2.830   5.346  18.760  0.00  0.00    +0.000 C 
ATOM     14  C   UNL     1       2.324   6.727  18.287  0.00  0.00    +0.000 C 
ATOM     15  C   UNL     1       4.101   5.381  19.638  0.00  0.00    +0.000 C 
BRANCH  13  16
ATOM     16  C   UNL     1       1.673   4.641  19.586  0.00  0.00    +0.000 C 
BRANCH  16  18
ATOM     17  C   UNL     1       1.252   2.766  21.363  0.00  0.00    +0.000 C 
ATOM     18  C   UNL     1       1.729   3.091  19.935  0.00  0.00    +0.000 C 
ATOM     19  C   UNL     1       3.117   2.458  19.733  0.00  0.00    +0.000 C 
ATOM     20  C   UNL     1       0.769   2.339  18.979  0.00  0.00    +0.000 C 
ENDBRANCH  16  18
ENDBRANCH  13  16
ENDBRANCH   1  13
TORSDOF 4
ENDMDL
MODEL 7
REMARK VINA RESULT:      -6.6      0.881      1.427
REMARK  Name = 
REMARK  9 active torsions:
REMARK  status: ('A' for Active; 'I' for Inactive)
REMARK    1  A    between atoms: C_1  and  C_2
REMARK    2  A    between atoms: C_2  and  C_3
REMARK    3  A    between atoms: C_2  and  C_4
REMARK    4  A    between atoms: C_2  and  C_5
REMARK    5  A    between atoms: C_5  and  C_6
REMARK    6  A    between atoms: C_6  and  C_7
REMARK    7  A    between atoms: C_6  and  C_8
REMARK    8  A    between atoms: C_6  and  N_9
REMARK    9  A    between atoms: N_12  and  C_13
REMARK                            x       y       z     vdW  Elec       q    Type
REMARK                         _______ _______ _______ _____ _____    ______ ____
ROOT
ATOM      1  N   UNL     1       2.300   6.406  18.754  0.00  0.00    +0.000 N 
ATOM      2  C   UNL     1       3.251   6.988  17.942  0.00  0.00    +0.000 C 
ATOM      3  O   UNL     1       3.312   8.214  17.834  0.00  0.00    +0.000 OA
ATOM      4  N   UNL     1       4.123   6.127  17.336  0.00  0.00    +0.000 N 
ATOM      5  H   UNL     1       1.703   7.089  19.201  0.00  0.00    +0.000 HD
ATOM      6  H   UNL     1       3.914   5.147  17.364  0.00  0.00    +0.000 HD
ENDROOT
BRANCH   4   7
ATOM      7  C   UNL     1       5.215   6.503  16.452  0.00  0.00    +0.000 C 
ATOM      8  C   UNL     1       6.466   6.860  17.275  0.00  0.00    +0.000 C 
ATOM      9  C   UNL     1       7.154   5.651  17.911  0.00  0.00    +0.000 C 
ATOM     10  C   UNL     1       7.427   4.530  16.914  0.00  0.00    +0.000 C 
ATOM     11  C   UNL     1       6.209   4.172  16.069  0.00  0.00    +0.000 C 
ATOM     12  C   UNL     1       5.526   5.391  15.445  0.00  0.00    +0.000 C 
ENDBRANCH   4   7
BRANCH   1  13
ATOM     13  C   UNL     1       2.071   4.957  19.037  0.00  0.00    +0.000 C 
ATOM     14  C   UNL     1       1.367   4.359  17.798  0.00  0.00    +0.000 C 
ATOM     15  C   UNL     1       1.256   4.887  20.348  0.00  0.00    +0.000 C 
BRANCH  13  16
ATOM     16  C   UNL     1       3.441   4.189  19.259  0.00  0.00    +0.000 C 
BRANCH  16  18
ATOM     17  C   UNL     1       4.605   2.048  20.213  0.00  0.00    +0.000 C 
ATOM     18  C   UNL     1       3.507   2.601  19.286  0.00  0.00    +0.000 C 
ATOM     19  C   UNL     1       3.681   1.963  17.897  0.00  0.00    +0.000 C 
ATOM     20  C   UNL     1       2.164   2.065  19.842  0.00  0.00    +0.000 C 
ENDBRANCH  16  18
ENDBRANCH  13  16
ENDBRANCH   1  13
TORSDOF 4
ENDMDL
MODEL 8
REMARK VINA RESULT:      -6.6      1.746      2.422
REMARK  Name = 
REMARK  9 active torsions:
REMARK  status: ('A' for Active; 'I' for Inactive)
REMARK    1  A    between atoms: C_1  and  C_2
REMARK    2  A    between atoms: C_2  and  C_3
REMARK    3  A    between atoms: C_2  and  C_4
REMARK    4  A    between atoms: C_2  and  C_5
REMARK    5  A    between atoms: C_5  and  C_6
REMARK    6  A    between atoms: C_6  and  C_7
REMARK    7  A    between atoms: C_6  and  C_8
REMARK    8  A    between atoms: C_6  and  N_9
REMARK    9  A    between atoms: N_12  and  C_13
REMARK                            x       y       z     vdW  Elec       q    Type
REMARK                         _______ _______ _______ _____ _____    ______ ____
ROOT
ATOM      1  N   UNL     1       4.139   5.315  19.900  0.00  0.00    +0.000 N 
ATOM      2  C   UNL     1       5.361   5.409  19.268  0.00  0.00    +0.000 C 
ATOM      3  O   UNL     1       6.403   5.184  19.887  0.00  0.00    +0.000 OA
ATOM      4  N   UNL     1       5.319   5.705  17.934  0.00  0.00    +0.000 N 
ATOM      5  H   UNL     1       4.227   5.064  20.876  0.00  0.00    +0.000 HD
ATOM      6  H   UNL     1       4.447   6.011  17.546  0.00  0.00    +0.000 HD
ENDROOT
BRANCH   4   7
ATOM      7  C   UNL     1       6.470   5.840  17.054  0.00  0.00    +0.000 C 
ATOM      8  C   UNL     1       7.026   4.452  16.690  0.00  0.00    +0.000 C 
ATOM      9  C   UNL     1       6.143   3.668  15.715  0.00  0.00    +0.000 C 
ATOM     10  C   UNL     1       5.763   4.475  14.479  0.00  0.00    +0.000 C 
ATOM     11  C   UNL     1       5.230   5.865  14.812  0.00  0.00    +0.000 C 
ATOM     12  C   UNL     1       6.118   6.634  15.793  0.00  0.00    +0.000 C 
ENDBRANCH   4   7
BRANCH   1  13
ATOM     13  C   UNL     1       2.773   5.526  19.333  0.00  0.00    +0.000 C 
ATOM     14  C   UNL     1       2.794   4.982  17.887  0.00  0.00    +0.000 C 
ATOM     15  C   UNL     1       2.469   7.035  19.460  0.00  0.00    +0.000 C 
BRANCH  13  16
ATOM     16  C   UNL     1       1.678   4.725  20.157  0.00  0.00    +0.000 C 
BRANCH  16  18
ATOM     17  C   UNL     1       1.362   2.620  21.679  0.00  0.00    +0.000 C 
ATOM     18  C   UNL     1       1.723   3.141  20.275  0.00  0.00    +0.000 C 
ATOM     19  C   UNL     1       3.071   2.525  19.863  0.00  0.00    +0.000 C 
ATOM     20  C   UNL     1       0.666   2.548  19.311  0.00  0.00    +0.000 C 
ENDBRANCH  16  18
ENDBRANCH  13  16
ENDBRANCH   1  13
TORSDOF 4
ENDMDL
MODEL 9
REMARK VINA RESULT:      -6.6      0.989      1.862
REMARK  Name = 
REMARK  9 active torsions:
REMARK  status: ('A' for Active; 'I' for Inactive)
REMARK    1  A    between atoms: C_1  and  C_2
REMARK    2  A    between atoms: C_2  and  C_3
REMARK    3  A    between atoms: C_2  and  C_4
REMARK    4  A    between atoms: C_2  and  C_5
REMARK    5  A    between atoms: C_5  and  C_6
REMARK    6  A    between atoms: C_6  and  C_7
REMARK    7  A    between atoms: C_6  and  C_8
REMARK    8  A    between atoms: C_6  and  N_9
REMARK    9  A    between atoms: N_12  and  C_13
REMARK                            x       y       z     vdW  Elec       q    Type
REMARK                         _______ _______ _______ _____ _____    ______ ____
ROOT
ATOM      1  N   UNL     1       2.224   6.431  18.765  0.00  0.00    +0.000 N 
ATOM      2  C   UNL     1       3.224   7.048  18.043  0.00  0.00    +0.000 C 
ATOM      3  O   UNL     1       3.259   8.276  17.949  0.00  0.00    +0.000 OA
ATOM      4  N   UNL     1       4.170   6.217  17.510  0.00  0.00    +0.000 N 
ATOM      5  H   UNL     1       1.570   7.093  19.163  0.00  0.00    +0.000 HD
ATOM      6  H   UNL     1       3.988   5.232  17.513  0.00  0.00    +0.000 HD
ENDROOT
BRANCH   4   7
ATOM      7  C   UNL     1       5.324   6.632  16.727  0.00  0.00    +0.000 C 
ATOM      8  C   UNL     1       6.625   6.258  17.459  0.00  0.00    +0.000 C 
ATOM      9  C   UNL     1       6.930   4.759  17.453  0.00  0.00    +0.000 C 
ATOM     10  C   UNL     1       6.862   4.145  16.059  0.00  0.00    +0.000 C 
ATOM     11  C   UNL     1       5.592   4.519  15.302  0.00  0.00    +0.000 C 
ATOM     12  C   UNL     1       5.294   6.020  15.323  0.00  0.00    +0.000 C 
ENDBRANCH   4   7
BRANCH   1  13
ATOM     13  C   UNL     1       2.013   4.974  19.018  0.00  0.00    +0.000 C 
ATOM     14  C   UNL     1       1.361   4.384  17.746  0.00  0.00    +0.000 C 
ATOM     15  C   UNL     1       1.157   4.867  20.300  0.00  0.00    +0.000 C 
BRANCH  13  16
ATOM     16  C   UNL     1       3.389   4.227  19.273  0.00  0.00    +0.000 C 
BRANCH  16  18
ATOM     17  C   UNL     1       3.963   2.187  17.738  0.00  0.00    +0.000 C 
ATOM     18  C   UNL     1       3.514   2.649  19.137  0.00  0.00    +0.000 C 
ATOM     19  C   UNL     1       2.228   1.890  19.507  0.00  0.00    +0.000 C 
ATOM     20  C   UNL     1       4.603   2.157  20.123  0.00  0.00    +0.000 C 
ENDBRANCH  16  18
ENDBRANCH  13  16
ENDBRANCH   1  13
TORSDOF 4
ENDMDL
