MODEL 1
REMARK VINA RESULT:      -6.9      0.000      0.000
REMARK  Name = 
REMARK  16 active torsions:
REMARK  status: ('A' for Active; 'I' for Inactive)
REMARK    1  A    between atoms: C_1  and  O_2
REMARK    2  A    between atoms: O_2  and  C_3
REMARK    3  A    between atoms: C_6  and  C_7
REMARK    4  A    between atoms: C_7  and  C_8
REMARK    5  A    between atoms: C_8  and  N_9
REMARK    6  A    between atoms: N_9  and  C_10
REMARK    7  A    between atoms: N_9  and  C_11
REMARK    8  A    between atoms: C_11  and  C_12
REMARK    9  A    between atoms: C_12  and  O_13
REMARK   10  A    between atoms: O_13  and  C_14
REMARK   11  A    between atoms: C_17  and  N_18
REMARK   12  A    between atoms: N_18  and  S_19
REMARK   13  A    between atoms: S_19  and  C_20
REMARK   14  A    between atoms: C_24  and  N_25
REMARK   15  A    between atoms: C_27  and  O_28
REMARK   16  A    between atoms: O_28  and  C_29
REMARK                            x       y       z     vdW  Elec       q    Type
REMARK                         _______ _______ _______ _____ _____    ______ ____
ROOT
ATOM      1  C   UNL     1       2.002   5.398  20.637  0.00  0.00    +0.000 C 
ENDROOT
BRANCH   1   2
ATOM      2  C   UNL     1       2.292   3.997  20.074  0.00  0.00    +0.000 C 
BRANCH   2   3
ATOM      3  N   UNL     1       1.534   3.739  18.819  0.00  0.00    +0.000 NA
ATOM      4  C   UNL     1       0.650   2.585  19.007  0.00  0.00    +0.000 C 
BRANCH   3   5
ATOM      5  C   UNL     1       2.438   3.556  17.664  0.00  0.00    +0.000 C 
BRANCH   5   6
ATOM      6  C   UNL     1       3.875   3.152  18.022  0.00  0.00    +0.000 C 
BRANCH   6  10
ATOM      7  C   UNL     1       6.816   6.189  17.106  0.00  0.00    +0.000 A 
ATOM      8  C   UNL     1       6.436   5.931  18.433  0.00  0.00    +0.000 A 
ATOM      9  C   UNL     1       5.477   4.963  18.730  0.00  0.00    +0.000 A 
ATOM     10  C   UNL     1       4.853   4.258  17.703  0.00  0.00    +0.000 A 
ATOM     11  C   UNL     1       5.143   4.603  16.376  0.00  0.00    +0.000 A 
ATOM     12  C   UNL     1       6.115   5.567  16.061  0.00  0.00    +0.000 A 
BRANCH   7  14
ATOM     13  C   UNL     1       7.879   8.230  17.627  0.00  0.00    +0.000 C 
ATOM     14  O   UNL     1       7.849   7.045  16.829  0.00  0.00    +0.000 OA
ENDBRANCH   7  14
BRANCH  12  15
ATOM     15  O   UNL     1       6.251   5.732  14.708  0.00  0.00    +0.000 OA
ATOM     16  C   UNL     1       6.909   4.728  13.953  0.00  0.00    +0.000 C 
ENDBRANCH  12  15
ENDBRANCH   6  10
ENDBRANCH   5   6
ENDBRANCH   3   5
ENDBRANCH   2   3
ENDBRANCH   1   2
BRANCH   1  17
ATOM     17  O   UNL     1       2.526   6.453  19.845  0.00  0.00    +0.000 OA
BRANCH  17  18
ATOM     18  C   UNL     1       1.824   7.644  19.863  0.00  0.00    +0.000 A 
ATOM     19  C   UNL     1       1.114   7.805  21.074  0.00  0.00    +0.000 A 
ATOM     20  C   UNL     1       0.326   8.934  21.316  0.00  0.00    +0.000 A 
ATOM     21  C   UNL     1       0.230   9.914  20.343  0.00  0.00    +0.000 A 
ATOM     22  C   UNL     1       0.889   9.753  19.128  0.00  0.00    +0.000 A 
ATOM     23  C   UNL     1       1.736   8.656  18.878  0.00  0.00    +0.000 A 
BRANCH  23  24
ATOM     24  N   UNL     1       2.255   8.600  17.567  0.00  0.00    +0.000 N 
ATOM     25  H   UNL     1       3.068   9.191  17.422  0.00  0.00    +0.000 HD
ATOM     26  H   UNL     1       2.441   7.684  17.197  0.00  0.00    +0.000 HD
ENDBRANCH  23  24
BRANCH  21  27
ATOM     27  N   UNL     1      -0.508  11.113  20.555  0.00  0.00    +0.000 N 
ATOM     28  H   UNL     1      -1.176  11.357  19.825  0.00  0.00    +0.000 HD
BRANCH  27  29
ATOM     29  S   UNL     1       0.300  12.488  21.100  0.00  0.00    +0.000 S 
ATOM     30  C   UNL     1       0.287  13.508  19.640  0.00  0.00    +0.000 C 
ATOM     31  O   UNL     1      -0.457  13.135  22.146  0.00  0.00    +0.000 OA
ATOM     32  O   UNL     1       1.667  12.061  21.315  0.00  0.00    +0.000 OA
ENDBRANCH  27  29
ENDBRANCH  21  27
ENDBRANCH  17  18
ENDBRANCH   1  17
TORSDOF 12
ENDMDL
MODEL 2
REMARK VINA RESULT:      -6.8      3.193      7.422
REMARK  Name = 
REMARK  16 active torsions:
REMARK  status: ('A' for Active; 'I' for Inactive)
REMARK    1  A    between atoms: C_1  and  O_2
REMARK    2  A    between atoms: O_2  and  C_3
REMARK    3  A    between atoms: C_6  and  C_7
REMARK    4  A    between atoms: C_7  and  C_8
REMARK    5  A    between atoms: C_8  and  N_9
REMARK    6  A    between atoms: N_9  and  C_10
REMARK    7  A    between atoms: N_9  and  C_11
REMARK    8  A    between atoms: C_11  and  C_12
REMARK    9  A    between atoms: C_12  and  O_13
REMARK   10  A    between atoms: O_13  and  C_14
REMARK   11  A    between atoms: C_17  and  N_18
REMARK   12  A    between atoms: N_18  and  S_19
REMARK   13  A    between atoms: S_19  and  C_20
REMARK   14  A    between atoms: C_24  and  N_25
REMARK   15  A    between atoms: C_27  and  O_28
REMARK   16  A    between atoms: O_28  and  C_29
REMARK                            x       y       z     vdW  Elec       q    Type
REMARK                         _______ _______ _______ _____ _____    ______ ____
ROOT
ATOM      1  C   UNL     1       0.926   2.037  19.063  0.00  0.00    +0.000 C 
ENDROOT
BRANCH   1   2
ATOM      2  C   UNL     1       0.566   2.958  20.239  0.00  0.00    +0.000 C 
BRANCH   2   3
ATOM      3  N   UNL     1       1.710   3.828  20.629  0.00  0.00    +0.000 NA
ATOM      4  C   UNL     1       2.240   3.391  21.923  0.00  0.00    +0.000 C 
BRANCH   3   5
ATOM      5  C   UNL     1       1.328   5.256  20.645  0.00  0.00    +0.000 C 
BRANCH   5   6
ATOM      6  C   UNL     1       2.480   6.238  20.391  0.00  0.00    +0.000 C 
BRANCH   6  10
ATOM      7  C   UNL     1       0.830  10.051  19.187  0.00  0.00    +0.000 A 
ATOM      8  C   UNL     1       1.553   9.260  18.280  0.00  0.00    +0.000 A 
ATOM      9  C   UNL     1       2.099   8.038  18.669  0.00  0.00    +0.000 A 
ATOM     10  C   UNL     1       1.964   7.599  19.985  0.00  0.00    +0.000 A 
ATOM     11  C   UNL     1       1.351   8.445  20.918  0.00  0.00    +0.000 A 
ATOM     12  C   UNL     1       0.785   9.674  20.538  0.00  0.00    +0.000 A 
BRANCH   7  14
ATOM     13  C   UNL     1       0.947  12.389  18.886  0.00  0.00    +0.000 C 
ATOM     14  O   UNL     1       0.187  11.186  18.767  0.00  0.00    +0.000 OA
ENDBRANCH   7  14
BRANCH  12  15
ATOM     15  O   UNL     1       0.222  10.327  21.602  0.00  0.00    +0.000 OA
ATOM     16  C   UNL     1      -0.402   9.570  22.626  0.00  0.00    +0.000 C 
ENDBRANCH  12  15
ENDBRANCH   6  10
ENDBRANCH   5   6
ENDBRANCH   3   5
ENDBRANCH   2   3
ENDBRANCH   1   2
BRANCH   1  17
ATOM     17  O   UNL     1       1.218   2.730  17.859  0.00  0.00    +0.000 OA
BRANCH  17  18
ATOM     18  C   UNL     1       2.523   3.152  17.694  0.00  0.00    +0.000 A 
ATOM     19  C   UNL     1       2.583   4.521  17.350  0.00  0.00    +0.000 A 
ATOM     20  C   UNL     1       3.802   5.168  17.126  0.00  0.00    +0.000 A 
ATOM     21  C   UNL     1       4.980   4.448  17.234  0.00  0.00    +0.000 A 
ATOM     22  C   UNL     1       4.939   3.089  17.533  0.00  0.00    +0.000 A 
ATOM     23  C   UNL     1       3.731   2.424  17.820  0.00  0.00    +0.000 A 
BRANCH  23  24
ATOM     24  N   UNL     1       3.857   1.033  18.014  0.00  0.00    +0.000 N 
ATOM     25  H   UNL     1       3.815   0.749  18.988  0.00  0.00    +0.000 HD
ATOM     26  H   UNL     1       3.245   0.447  17.473  0.00  0.00    +0.000 HD
ENDBRANCH  23  24
BRANCH  21  27
ATOM     27  N   UNL     1       6.254   5.065  17.078  0.00  0.00    +0.000 N 
ATOM     28  H   UNL     1       6.804   4.748  16.280  0.00  0.00    +0.000 HD
BRANCH  27  29
ATOM     29  S   UNL     1       7.238   5.270  18.430  0.00  0.00    +0.000 S 
ATOM     30  C   UNL     1       7.814   6.940  18.199  0.00  0.00    +0.000 C 
ATOM     31  O   UNL     1       6.453   5.196  19.640  0.00  0.00    +0.000 OA
ATOM     32  O   UNL     1       8.368   4.391  18.211  0.00  0.00    +0.000 OA
ENDBRANCH  27  29
ENDBRANCH  21  27
ENDBRANCH  17  18
ENDBRANCH   1  17
TORSDOF 12
ENDMDL
MODEL 3
REMARK VINA RESULT:      -6.8      1.403      1.780
REMARK  Name = 
REMARK  16 active torsions:
REMARK  status: ('A' for Active; 'I' for Inactive)
REMARK    1  A    between atoms: C_1  and  O_2
REMARK    2  A    between atoms: O_2  and  C_3
REMARK    3  A    between atoms: C_6  and  C_7
REMARK    4  A    between atoms: C_7  and  C_8
REMARK    5  A    between atoms: C_8  and  N_9
REMARK    6  A    between atoms: N_9  and  C_10
REMARK    7  A    between atoms: N_9  and  C_11
REMARK    8  A    between atoms: C_11  and  C_12
REMARK    9  A    between atoms: C_12  and  O_13
REMARK   10  A    between atoms: O_13  and  C_14
REMARK   11  A    between atoms: C_17  and  N_18
REMARK   12  A    between atoms: N_18  and  S_19
REMARK   13  A    between atoms: S_19  and  C_20
REMARK   14  A    between atoms: C_24  and  N_25
REMARK   15  A    between atoms: C_27  and  O_28
REMARK   16  A    between atoms: O_28  and  C_29
REMARK                            x       y       z     vdW  Elec       q    Type
REMARK                         _______ _______ _______ _____ _____    ______ ____
ROOT
ATOM      1  C   UNL     1       1.920   5.571  18.192  0.00  0.00    +0.000 C 
ENDROOT
BRANCH   1   2
ATOM      2  C   UNL     1       1.825   4.363  19.137  0.00  0.00    +0.000 C 
BRANCH   2   3
ATOM      3  N   UNL     1       1.922   3.074  18.399  0.00  0.00    +0.000 NA
ATOM      4  C   UNL     1       2.245   1.994  19.334  0.00  0.00    +0.000 C 
BRANCH   3   5
ATOM      5  C   UNL     1       2.899   3.152  17.292  0.00  0.00    +0.000 C 
BRANCH   5   6
ATOM      6  C   UNL     1       4.354   2.867  17.689  0.00  0.00    +0.000 C 
BRANCH   6  10
ATOM      7  C   UNL     1       7.045   6.178  16.977  0.00  0.00    +0.000 A 
ATOM      8  C   UNL     1       6.335   6.074  18.183  0.00  0.00    +0.000 A 
ATOM      9  C   UNL     1       5.455   5.016  18.410  0.00  0.00    +0.000 A 
ATOM     10  C   UNL     1       5.241   4.060  17.419  0.00  0.00    +0.000 A 
ATOM     11  C   UNL     1       5.855   4.233  16.172  0.00  0.00    +0.000 A 
ATOM     12  C   UNL     1       6.754   5.287  15.933  0.00  0.00    +0.000 A 
BRANCH   7  14
ATOM     13  C   UNL     1       7.914   8.242  17.720  0.00  0.00    +0.000 C 
ATOM     14  O   UNL     1       8.003   7.143  16.812  0.00  0.00    +0.000 OA
ENDBRANCH   7  14
BRANCH  12  15
ATOM     15  O   UNL     1       7.251   5.254  14.657  0.00  0.00    +0.000 OA
ATOM     16  C   UNL     1       6.710   4.330  13.728  0.00  0.00    +0.000 C 
ENDBRANCH  12  15
ENDBRANCH   6  10
ENDBRANCH   5   6
ENDBRANCH   3   5
ENDBRANCH   2   3
ENDBRANCH   1   2
BRANCH   1  17
ATOM     17  O   UNL     1       2.732   6.625  18.687  0.00  0.00    +0.000 OA
BRANCH  17  18
ATOM     18  C   UNL     1       2.095   7.825  18.941  0.00  0.00    +0.000 A 
ATOM     19  C   UNL     1       2.069   8.647  17.792  0.00  0.00    +0.000 A 
ATOM     20  C   UNL     1       1.480   9.915  17.812  0.00  0.00    +0.000 A 
ATOM     21  C   UNL     1       0.917  10.382  18.989  0.00  0.00    +0.000 A 
ATOM     22  C   UNL     1       0.970   9.602  20.141  0.00  0.00    +0.000 A 
ATOM     23  C   UNL     1       1.504   8.299  20.136  0.00  0.00    +0.000 A 
BRANCH  23  24
ATOM     24  N   UNL     1       1.561   7.682  21.404  0.00  0.00    +0.000 N 
ATOM     25  H   UNL     1       2.362   7.071  21.526  0.00  0.00    +0.000 HD
ATOM     26  H   UNL     1       1.483   8.288  22.202  0.00  0.00    +0.000 HD
ENDBRANCH  23  24
BRANCH  21  27
ATOM     27  N   UNL     1       0.250  11.638  19.055  0.00  0.00    +0.000 N 
ATOM     28  H   UNL     1      -0.419  11.823  18.307  0.00  0.00    +0.000 HD
BRANCH  27  29
ATOM     29  S   UNL     1       1.141  13.022  19.409  0.00  0.00    +0.000 S 
ATOM     30  C   UNL     1      -0.139  14.259  19.482  0.00  0.00    +0.000 C 
ATOM     31  O   UNL     1       1.765  12.901  20.706  0.00  0.00    +0.000 OA
ATOM     32  O   UNL     1       1.924  13.282  18.219  0.00  0.00    +0.000 OA
ENDBRANCH  27  29
ENDBRANCH  21  27
ENDBRANCH  17  18
ENDBRANCH   1  17
TORSDOF 12
ENDMDL
MODEL 4
REMARK VINA RESULT:      -6.8      1.922      2.742
REMARK  Name = 
REMARK  16 active torsions:
REMARK  status: ('A' for Active; 'I' for Inactive)
REMARK    1  A    between atoms: C_1  and  O_2
REMARK    2  A    between atoms: O_2  and  C_3
REMARK    3  A    between atoms: C_6  and  C_7
REMARK    4  A    between atoms: C_7  and  C_8
REMARK    5  A    between atoms: C_8  and  N_9
REMARK    6  A    between atoms: N_9  and  C_10
REMARK    7  A    between atoms: N_9  and  C_11
REMARK    8  A    between atoms: C_11  and  C_12
REMARK    9  A    between atoms: C_12  and  O_13
REMARK   10  A    between atoms: O_13  and  C_14
REMARK   11  A    between atoms: C_17  and  N_18
REMARK   12  A    between atoms: N_18  and  S_19
REMARK   13  A    between atoms: S_19  and  C_20
REMARK   14  A    between atoms: C_24  and  N_25
REMARK   15  A    between atoms: C_27  and  O_28
REMARK   16  A    between atoms: O_28  and  C_29
REMARK                            x       y       z     vdW  Elec       q    Type
REMARK                         _______ _______ _______ _____ _____    ______ ____
ROOT
ATOM      1  C   UNL     1       2.000   5.340  20.735  0.00  0.00    +0.000 C 
ENDROOT
BRANCH   1   2
ATOM      2  C   UNL     1       2.335   3.842  20.652  0.00  0.00    +0.000 C 
BRANCH   2   3
ATOM      3  N   UNL     1       2.022   3.280  19.309  0.00  0.00    +0.000 NA
ATOM      4  C   UNL     1       0.614   2.877  19.261  0.00  0.00    +0.000 C 
BRANCH   3   5
ATOM      5  C   UNL     1       2.926   2.163  18.961  0.00  0.00    +0.000 C 
BRANCH   5   6
ATOM      6  C   UNL     1       3.691   2.334  17.642  0.00  0.00    +0.000 C 
BRANCH   6  10
ATOM      7  C   UNL     1       5.696   6.167  17.633  0.00  0.00    +0.000 A 
ATOM      8  C   UNL     1       4.969   5.731  16.513  0.00  0.00    +0.000 A 
ATOM      9  C   UNL     1       4.334   4.490  16.507  0.00  0.00    +0.000 A 
ATOM     10  C   UNL     1       4.444   3.643  17.609  0.00  0.00    +0.000 A 
ATOM     11  C   UNL     1       5.271   4.026  18.673  0.00  0.00    +0.000 A 
ATOM     12  C   UNL     1       5.906   5.279  18.699  0.00  0.00    +0.000 A 
BRANCH   7  14
ATOM     13  C   UNL     1       7.527   7.577  17.158  0.00  0.00    +0.000 C 
ATOM     14  O   UNL     1       6.206   7.437  17.683  0.00  0.00    +0.000 OA
ENDBRANCH   7  14
BRANCH  12  15
ATOM     15  O   UNL     1       6.646   5.452  19.838  0.00  0.00    +0.000 OA
ATOM     16  C   UNL     1       8.062   5.453  19.750  0.00  0.00    +0.000 C 
ENDBRANCH  12  15
ENDBRANCH   6  10
ENDBRANCH   5   6
ENDBRANCH   3   5
ENDBRANCH   2   3
ENDBRANCH   1   2
BRANCH   1  17
ATOM     17  O   UNL     1       2.653   6.129  19.752  0.00  0.00    +0.000 OA
BRANCH  17  18
ATOM     18  C   UNL     1       2.139   7.394  19.537  0.00  0.00    +0.000 A 
ATOM     19  C   UNL     1       2.227   7.762  18.176  0.00  0.00    +0.000 A 
ATOM     20  C   UNL     1       1.774   9.004  17.722  0.00  0.00    +0.000 A 
ATOM     21  C   UNL     1       1.233   9.900  18.629  0.00  0.00    +0.000 A 
ATOM     22  C   UNL     1       1.174   9.570  19.981  0.00  0.00    +0.000 A 
ATOM     23  C   UNL     1       1.569   8.306  20.458  0.00  0.00    +0.000 A 
BRANCH  23  24
ATOM     24  N   UNL     1       1.530   8.168  21.861  0.00  0.00    +0.000 N 
ATOM     25  H   UNL     1       0.736   7.634  22.199  0.00  0.00    +0.000 HD
ATOM     26  H   UNL     1       2.367   7.830  22.303  0.00  0.00    +0.000 HD
ENDBRANCH  23  24
BRANCH  21  27
ATOM     27  N   UNL     1       0.699  11.154  18.218  0.00  0.00    +0.000 N 
ATOM     28  H   UNL     1       1.257  11.973  18.458  0.00  0.00    +0.000 HD
BRANCH  27  29
ATOM     29  S   UNL     1      -0.939  11.466  18.455  0.00  0.00    +0.000 S 
ATOM     30  C   UNL     1      -1.689  10.115  17.569  0.00  0.00    +0.000 C 
ATOM     31  O   UNL     1      -1.274  11.365  19.856  0.00  0.00    +0.000 OA
ATOM     32  O   UNL     1      -1.206  12.674  17.703  0.00  0.00    +0.000 OA
ENDBRANCH  27  29
ENDBRANCH  21  27
ENDBRANCH  17  18
ENDBRANCH   1  17
TORSDOF 12
ENDMDL
MODEL 5
REMARK VINA RESULT:      -6.7      1.459      1.885
REMARK  Name = 
REMARK  16 active torsions:
REMARK  status: ('A' for Active; 'I' for Inactive)
REMARK    1  A    between atoms: C_1  and  O_2
REMARK    2  A    between atoms: O_2  and  C_3
REMARK    3  A    between atoms: C_6  and  C_7
REMARK    4  A    between atoms: C_7  and  C_8
REMARK    5  A    between atoms: C_8  and  N_9
REMARK    6  A    between atoms: N_9  and  C_10
REMARK    7  A    between atoms: N_9  and  C_11
REMARK    8  A    between atoms: C_11  and  C_12
REMARK    9  A    between atoms: C_12  and  O_13
REMARK   10  A    between atoms: O_13  and  C_14
REMARK   11  A    between atoms: C_17  and  N_18
REMARK   12  A    between atoms: N_18  and  S_19
REMARK   13  A    between atoms: S_19  and  C_20
REMARK   14  A    between atoms: C_24  and  N_25
REMARK   15  A    between atoms: C_27  and  O_28
REMARK   16  A    between atoms: O_28  and  C_29
REMARK                            x       y       z     vdW  Elec       q    Type
REMARK                         _______ _______ _______ _____ _____    ______ ____
ROOT
ATOM      1  C   UNL     1       1.572   5.300  20.579  0.00  0.00    +0.000 C 
ENDROOT
BRANCH   1   2
ATOM      2  C   UNL     1       1.290   4.147  19.603  0.00  0.00    +0.000 C 
BRANCH   2   3
ATOM      3  N   UNL     1       1.704   2.833  20.168  0.00  0.00    +0.000 NA
ATOM      4  C   UNL     1       1.894   2.957  21.615  0.00  0.00    +0.000 C 
BRANCH   3   5
ATOM      5  C   UNL     1       2.913   2.307  19.498  0.00  0.00    +0.000 C 
BRANCH   5   6
ATOM      6  C   UNL     1       3.090   2.750  18.039  0.00  0.00    +0.000 C 
BRANCH   6  10
ATOM      7  C   UNL     1       6.675   5.136  17.625  0.00  0.00    +0.000 A 
ATOM      8  C   UNL     1       5.946   5.133  18.824  0.00  0.00    +0.000 A 
ATOM      9  C   UNL     1       4.782   4.377  18.956  0.00  0.00    +0.000 A 
ATOM     10  C   UNL     1       4.304   3.636  17.877  0.00  0.00    +0.000 A 
ATOM     11  C   UNL     1       4.963   3.738  16.645  0.00  0.00    +0.000 A 
ATOM     12  C   UNL     1       6.143   4.485  16.500  0.00  0.00    +0.000 A 
BRANCH   7  14
ATOM     13  C   UNL     1       7.989   6.967  18.322  0.00  0.00    +0.000 C 
ATOM     14  O   UNL     1       7.884   5.775  17.543  0.00  0.00    +0.000 OA
ENDBRANCH   7  14
BRANCH  12  15
ATOM     15  O   UNL     1       6.629   4.430  15.221  0.00  0.00    +0.000 OA
ATOM     16  C   UNL     1       5.725   4.226  14.147  0.00  0.00    +0.000 C 
ENDBRANCH  12  15
ENDBRANCH   6  10
ENDBRANCH   5   6
ENDBRANCH   3   5
ENDBRANCH   2   3
ENDBRANCH   1   2
BRANCH   1  17
ATOM     17  O   UNL     1       2.476   6.271  20.074  0.00  0.00    +0.000 OA
BRANCH  17  18
ATOM     18  C   UNL     1       1.953   7.526  19.821  0.00  0.00    +0.000 A 
ATOM     19  C   UNL     1       2.051   7.859  18.451  0.00  0.00    +0.000 A 
ATOM     20  C   UNL     1       1.591   9.084  17.961  0.00  0.00    +0.000 A 
ATOM     21  C   UNL     1       1.035  10.000  18.839  0.00  0.00    +0.000 A 
ATOM     22  C   UNL     1       0.968   9.706  20.198  0.00  0.00    +0.000 A 
ATOM     23  C   UNL     1       1.369   8.457  20.712  0.00  0.00    +0.000 A 
BRANCH  23  24
ATOM     24  N   UNL     1       1.319   8.357  22.119  0.00  0.00    +0.000 N 
ATOM     25  H   UNL     1       0.428   8.634  22.518  0.00  0.00    +0.000 HD
ATOM     26  H   UNL     1       1.600   7.477  22.515  0.00  0.00    +0.000 HD
ENDBRANCH  23  24
BRANCH  21  27
ATOM     27  N   UNL     1       0.494  11.238  18.390  0.00  0.00    +0.000 N 
ATOM     28  H   UNL     1       0.582  11.422  17.391  0.00  0.00    +0.000 HD
BRANCH  27  29
ATOM     29  S   UNL     1       0.798  12.636  19.278  0.00  0.00    +0.000 S 
ATOM     30  C   UNL     1      -0.053  13.864  18.310  0.00  0.00    +0.000 C 
ATOM     31  O   UNL     1       0.188  12.546  20.584  0.00  0.00    +0.000 OA
ATOM     32  O   UNL     1       2.219  12.878  19.127  0.00  0.00    +0.000 OA
ENDBRANCH  27  29
ENDBRANCH  21  27
ENDBRANCH  17  18
ENDBRANCH   1  17
TORSDOF 12
ENDMDL
MODEL 6
REMARK VINA RESULT:      -6.5      2.360      3.362
REMARK  Name = 
REMARK  16 active torsions:
REMARK  status: ('A' for Active; 'I' for Inactive)
REMARK    1  A    between atoms: C_1  and  O_2
REMARK    2  A    between atoms: O_2  and  C_3
REMARK    3  A    between atoms: C_6  and  C_7
REMARK    4  A    between atoms: C_7  and  C_8
REMARK    5  A    between atoms: C_8  and  N_9
REMARK    6  A    between atoms: N_9  and  C_10
REMARK    7  A    between atoms: N_9  and  C_11
REMARK    8  A    between atoms: C_11  and  C_12
REMARK    9  A    between atoms: C_12  and  O_13
REMARK   10  A    between atoms: O_13  and  C_14
REMARK   11  A    between atoms: C_17  and  N_18
REMARK   12  A    between atoms: N_18  and  S_19
REMARK   13  A    between atoms: S_19  and  C_20
REMARK   14  A    between atoms: C_24  and  N_25
REMARK   15  A    between atoms: C_27  and  O_28
REMARK   16  A    between atoms: O_28  and  C_29
REMARK                            x       y       z     vdW  Elec       q    Type
REMARK                         _______ _______ _______ _____ _____    ______ ____
ROOT
ATOM      1  C   UNL     1       2.141   7.103  20.071  0.00  0.00    +0.000 C 
ENDROOT
BRANCH   1   2
ATOM      2  C   UNL     1       1.707   5.753  20.663  0.00  0.00    +0.000 C 
BRANCH   2   3
ATOM      3  N   UNL     1       1.635   4.691  19.622  0.00  0.00    +0.000 NA
ATOM      4  C   UNL     1       1.000   3.495  20.182  0.00  0.00    +0.000 C 
BRANCH   3   5
ATOM      5  C   UNL     1       2.967   4.392  19.055  0.00  0.00    +0.000 C 
BRANCH   5   6
ATOM      6  C   UNL     1       2.966   3.984  17.575  0.00  0.00    +0.000 C 
BRANCH   6  10
ATOM      7  C   UNL     1       6.605   5.074  15.506  0.00  0.00    +0.000 A 
ATOM      8  C   UNL     1       6.086   3.773  15.414  0.00  0.00    +0.000 A 
ATOM      9  C   UNL     1       4.921   3.414  16.092  0.00  0.00    +0.000 A 
ATOM     10  C   UNL     1       4.272   4.341  16.905  0.00  0.00    +0.000 A 
ATOM     11  C   UNL     1       4.858   5.599  17.094  0.00  0.00    +0.000 A 
ATOM     12  C   UNL     1       6.024   5.980  16.408  0.00  0.00    +0.000 A 
BRANCH   7  14
ATOM     13  C   UNL     1       7.607   5.048  13.370  0.00  0.00    +0.000 C 
ATOM     14  O   UNL     1       7.672   5.457  14.737  0.00  0.00    +0.000 OA
ENDBRANCH   7  14
BRANCH  12  15
ATOM     15  O   UNL     1       6.411   7.254  16.726  0.00  0.00    +0.000 OA
ATOM     16  C   UNL     1       7.524   7.446  17.583  0.00  0.00    +0.000 C 
ENDBRANCH  12  15
ENDBRANCH   6  10
ENDBRANCH   5   6
ENDBRANCH   3   5
ENDBRANCH   2   3
ENDBRANCH   1   2
BRANCH   1  17
ATOM     17  O   UNL     1       1.703   8.226  20.822  0.00  0.00    +0.000 OA
BRANCH  17  18
ATOM     18  C   UNL     1       0.845   9.099  20.180  0.00  0.00    +0.000 A 
ATOM     19  C   UNL     1       1.075   9.117  18.786  0.00  0.00    +0.000 A 
ATOM     20  C   UNL     1       0.329   9.933  17.930  0.00  0.00    +0.000 A 
ATOM     21  C   UNL     1      -0.654  10.750  18.462  0.00  0.00    +0.000 A 
ATOM     22  C   UNL     1      -0.869  10.776  19.837  0.00  0.00    +0.000 A 
ATOM     23  C   UNL     1      -0.173   9.924  20.716  0.00  0.00    +0.000 A 
BRANCH  23  24
ATOM     24  N   UNL     1      -0.446  10.140  22.084  0.00  0.00    +0.000 N 
ATOM     25  H   UNL     1      -1.416   9.984  22.338  0.00  0.00    +0.000 HD
ATOM     26  H   UNL     1       0.149   9.665  22.740  0.00  0.00    +0.000 HD
ENDBRANCH  23  24
BRANCH  21  27
ATOM     27  N   UNL     1      -1.487  11.557  17.635  0.00  0.00    +0.000 N 
ATOM     28  H   UNL     1      -1.290  12.557  17.650  0.00  0.00    +0.000 HD
BRANCH  27  29
ATOM     29  S   UNL     1      -3.149  11.282  17.628  0.00  0.00    +0.000 S 
ATOM     30  C   UNL     1      -3.216   9.506  17.747  0.00  0.00    +0.000 C 
ATOM     31  O   UNL     1      -3.761  11.865  18.799  0.00  0.00    +0.000 OA
ATOM     32  O   UNL     1      -3.585  11.640  16.294  0.00  0.00    +0.000 OA
ENDBRANCH  27  29
ENDBRANCH  21  27
ENDBRANCH  17  18
ENDBRANCH   1  17
TORSDOF 12
ENDMDL
MODEL 7
REMARK VINA RESULT:      -6.5      1.454      1.845
REMARK  Name = 
REMARK  16 active torsions:
REMARK  status: ('A' for Active; 'I' for Inactive)
REMARK    1  A    between atoms: C_1  and  O_2
REMARK    2  A    between atoms: O_2  and  C_3
REMARK    3  A    between atoms: C_6  and  C_7
REMARK    4  A    between atoms: C_7  and  C_8
REMARK    5  A    between atoms: C_8  and  N_9
REMARK    6  A    between atoms: N_9  and  C_10
REMARK    7  A    between atoms: N_9  and  C_11
REMARK    8  A    between atoms: C_11  and  C_12
REMARK    9  A    between atoms: C_12  and  O_13
REMARK   10  A    between atoms: O_13  and  C_14
REMARK   11  A    between atoms: C_17  and  N_18
REMARK   12  A    between atoms: N_18  and  S_19
REMARK   13  A    between atoms: S_19  and  C_20
REMARK   14  A    between atoms: C_24  and  N_25
REMARK   15  A    between atoms: C_27  and  O_28
REMARK   16  A    between atoms: O_28  and  C_29
REMARK                            x       y       z     vdW  Elec       q    Type
REMARK                         _______ _______ _______ _____ _____    ______ ____
ROOT
ATOM      1  C   UNL     1       2.145   5.805  19.824  0.00  0.00    +0.000 C 
ENDROOT
BRANCH   1   2
ATOM      2  C   UNL     1       1.785   4.943  18.603  0.00  0.00    +0.000 C 
BRANCH   2   3
ATOM      3  N   UNL     1       1.966   3.492  18.879  0.00  0.00    +0.000 NA
ATOM      4  C   UNL     1       0.901   3.024  19.770  0.00  0.00    +0.000 C 
BRANCH   3   5
ATOM      5  C   UNL     1       3.308   3.205  19.429  0.00  0.00    +0.000 C 
BRANCH   5   6
ATOM      6  C   UNL     1       4.359   2.784  18.392  0.00  0.00    +0.000 C 
BRANCH   6  10
ATOM      7  C   UNL     1       6.841   6.072  17.073  0.00  0.00    +0.000 A 
ATOM      8  C   UNL     1       6.388   5.998  18.400  0.00  0.00    +0.000 A 
ATOM      9  C   UNL     1       5.576   4.948  18.825  0.00  0.00    +0.000 A 
ATOM     10  C   UNL     1       5.170   3.969  17.920  0.00  0.00    +0.000 A 
ATOM     11  C   UNL     1       5.519   4.111  16.571  0.00  0.00    +0.000 A 
ATOM     12  C   UNL     1       6.348   5.157  16.131  0.00  0.00    +0.000 A 
BRANCH   7  14
ATOM     13  C   UNL     1       7.880   8.122  17.608  0.00  0.00    +0.000 C 
ATOM     14  O   UNL     1       7.743   7.032  16.695  0.00  0.00    +0.000 OA
ENDBRANCH   7  14
BRANCH  12  15
ATOM     15  O   UNL     1       6.578   5.093  14.782  0.00  0.00    +0.000 OA
ATOM     16  C   UNL     1       5.831   4.178  13.996  0.00  0.00    +0.000 C 
ENDBRANCH  12  15
ENDBRANCH   6  10
ENDBRANCH   5   6
ENDBRANCH   3   5
ENDBRANCH   2   3
ENDBRANCH   1   2
BRANCH   1  17
ATOM     17  O   UNL     1       2.709   7.065  19.491  0.00  0.00    +0.000 OA
BRANCH  17  18
ATOM     18  C   UNL     1       1.868   8.158  19.580  0.00  0.00    +0.000 A 
ATOM     19  C   UNL     1       1.538   8.661  18.302  0.00  0.00    +0.000 A 
ATOM     20  C   UNL     1       0.703   9.772  18.145  0.00  0.00    +0.000 A 
ATOM     21  C   UNL     1       0.194  10.400  19.269  0.00  0.00    +0.000 A 
ATOM     22  C   UNL     1       0.540   9.943  20.537  0.00  0.00    +0.000 A 
ATOM     23  C   UNL     1       1.331   8.793  20.726  0.00  0.00    +0.000 A 
BRANCH  23  24
ATOM     24  N   UNL     1       1.661   8.520  22.070  0.00  0.00    +0.000 N 
ATOM     25  H   UNL     1       1.059   8.986  22.743  0.00  0.00    +0.000 HD
ATOM     26  H   UNL     1       1.751   7.551  22.322  0.00  0.00    +0.000 HD
ENDBRANCH  23  24
BRANCH  21  27
ATOM     27  N   UNL     1      -0.710  11.496  19.171  0.00  0.00    +0.000 N 
ATOM     28  H   UNL     1      -1.470  11.384  18.500  0.00  0.00    +0.000 HD
BRANCH  27  29
ATOM     29  S   UNL     1      -0.096  13.063  19.113  0.00  0.00    +0.000 S 
ATOM     30  C   UNL     1      -1.134  13.895  20.296  0.00  0.00    +0.000 C 
ATOM     31  O   UNL     1       1.273  13.085  19.575  0.00  0.00    +0.000 OA
ATOM     32  O   UNL     1      -0.454  13.561  17.800  0.00  0.00    +0.000 OA
ENDBRANCH  27  29
ENDBRANCH  21  27
ENDBRANCH  17  18
ENDBRANCH   1  17
TORSDOF 12
ENDMDL
MODEL 8
REMARK VINA RESULT:      -6.5      1.653      2.113
REMARK  Name = 
REMARK  16 active torsions:
REMARK  status: ('A' for Active; 'I' for Inactive)
REMARK    1  A    between atoms: C_1  and  O_2
REMARK    2  A    between atoms: O_2  and  C_3
REMARK    3  A    between atoms: C_6  and  C_7
REMARK    4  A    between atoms: C_7  and  C_8
REMARK    5  A    between atoms: C_8  and  N_9
REMARK    6  A    between atoms: N_9  and  C_10
REMARK    7  A    between atoms: N_9  and  C_11
REMARK    8  A    between atoms: C_11  and  C_12
REMARK    9  A    between atoms: C_12  and  O_13
REMARK   10  A    between atoms: O_13  and  C_14
REMARK   11  A    between atoms: C_17  and  N_18
REMARK   12  A    between atoms: N_18  and  S_19
REMARK   13  A    between atoms: S_19  and  C_20
REMARK   14  A    between atoms: C_24  and  N_25
REMARK   15  A    between atoms: C_27  and  O_28
REMARK   16  A    between atoms: O_28  and  C_29
REMARK                            x       y       z     vdW  Elec       q    Type
REMARK                         _______ _______ _______ _____ _____    ______ ____
ROOT
ATOM      1  C   UNL     1       1.803   4.770  18.068  0.00  0.00    +0.000 C 
ENDROOT
BRANCH   1   2
ATOM      2  C   UNL     1       2.182   3.651  17.084  0.00  0.00    +0.000 C 
BRANCH   2   3
ATOM      3  N   UNL     1       2.552   2.395  17.793  0.00  0.00    +0.000 NA
ATOM      4  C   UNL     1       1.930   2.378  19.120  0.00  0.00    +0.000 C 
BRANCH   3   5
ATOM      5  C   UNL     1       4.018   2.225  17.871  0.00  0.00    +0.000 C 
BRANCH   5   6
ATOM      6  C   UNL     1       4.708   3.037  18.977  0.00  0.00    +0.000 C 
BRANCH   6  10
ATOM      7  C   UNL     1       7.054   6.286  17.349  0.00  0.00    +0.000 A 
ATOM      8  C   UNL     1       6.774   6.217  18.723  0.00  0.00    +0.000 A 
ATOM      9  C   UNL     1       6.005   5.180  19.249  0.00  0.00    +0.000 A 
ATOM     10  C   UNL     1       5.471   4.208  18.404  0.00  0.00    +0.000 A 
ATOM     11  C   UNL     1       5.647   4.347  17.022  0.00  0.00    +0.000 A 
ATOM     12  C   UNL     1       6.429   5.380  16.478  0.00  0.00    +0.000 A 
BRANCH   7  14
ATOM     13  C   UNL     1       7.956   8.452  17.598  0.00  0.00    +0.000 C 
ATOM     14  O   UNL     1       7.915   7.231  16.858  0.00  0.00    +0.000 OA
ENDBRANCH   7  14
BRANCH  12  15
ATOM     15  O   UNL     1       6.483   5.314  15.111  0.00  0.00    +0.000 OA
ATOM     16  C   UNL     1       6.021   4.144  14.457  0.00  0.00    +0.000 C 
ENDBRANCH  12  15
ENDBRANCH   6  10
ENDBRANCH   5   6
ENDBRANCH   3   5
ENDBRANCH   2   3
ENDBRANCH   1   2
BRANCH   1  17
ATOM     17  O   UNL     1       2.601   5.937  17.943  0.00  0.00    +0.000 OA
BRANCH  17  18
ATOM     18  C   UNL     1       2.177   7.050  18.645  0.00  0.00    +0.000 A 
ATOM     19  C   UNL     1       2.046   8.174  17.799  0.00  0.00    +0.000 A 
ATOM     20  C   UNL     1       1.634   9.417  18.291  0.00  0.00    +0.000 A 
ATOM     21  C   UNL     1       1.358   9.553  19.641  0.00  0.00    +0.000 A 
ATOM     22  C   UNL     1       1.520   8.467  20.496  0.00  0.00    +0.000 A 
ATOM     23  C   UNL     1       1.876   7.190  20.022  0.00  0.00    +0.000 A 
BRANCH  23  24
ATOM     24  N   UNL     1       2.085   6.225  21.029  0.00  0.00    +0.000 N 
ATOM     25  H   UNL     1       3.064   6.068  21.250  0.00  0.00    +0.000 HD
ATOM     26  H   UNL     1       1.569   6.348  21.882  0.00  0.00    +0.000 HD
ENDBRANCH  23  24
BRANCH  21  27
ATOM     27  N   UNL     1       0.877  10.776  20.189  0.00  0.00    +0.000 N 
ATOM     28  H   UNL     1       0.744  10.786  21.200  0.00  0.00    +0.000 HD
BRANCH  27  29
ATOM     29  S   UNL     1      -0.388  11.579  19.419  0.00  0.00    +0.000 S 
ATOM     30  C   UNL     1      -1.073  12.529  20.760  0.00  0.00    +0.000 C 
ATOM     31  O   UNL     1       0.126  12.475  18.408  0.00  0.00    +0.000 OA
ATOM     32  O   UNL     1      -1.347  10.544  19.089  0.00  0.00    +0.000 OA
ENDBRANCH  27  29
ENDBRANCH  21  27
ENDBRANCH  17  18
ENDBRANCH   1  17
TORSDOF 12
ENDMDL
MODEL 9
REMARK VINA RESULT:      -6.4      3.586      5.777
REMARK  Name = 
REMARK  16 active torsions:
REMARK  status: ('A' for Active; 'I' for Inactive)
REMARK    1  A    between atoms: C_1  and  O_2
REMARK    2  A    between atoms: O_2  and  C_3
REMARK    3  A    between atoms: C_6  and  C_7
REMARK    4  A    between atoms: C_7  and  C_8
REMARK    5  A    between atoms: C_8  and  N_9
REMARK    6  A    between atoms: N_9  and  C_10
REMARK    7  A    between atoms: N_9  and  C_11
REMARK    8  A    between atoms: C_11  and  C_12
REMARK    9  A    between atoms: C_12  and  O_13
REMARK   10  A    between atoms: O_13  and  C_14
REMARK   11  A    between atoms: C_17  and  N_18
REMARK   12  A    between atoms: N_18  and  S_19
REMARK   13  A    between atoms: S_19  and  C_20
REMARK   14  A    between atoms: C_24  and  N_25
REMARK   15  A    between atoms: C_27  and  O_28
REMARK   16  A    between atoms: O_28  and  C_29
REMARK                            x       y       z     vdW  Elec       q    Type
REMARK                         _______ _______ _______ _____ _____    ______ ____
ROOT
ATOM      1  C   UNL     1       5.155   6.389  18.087  0.00  0.00    +0.000 C 
ENDROOT
BRANCH   1   2
ATOM      2  C   UNL     1       6.223   6.827  17.072  0.00  0.00    +0.000 C 
BRANCH   2   3
ATOM      3  N   UNL     1       7.601   6.574  17.576  0.00  0.00    +0.000 NA
ATOM      4  C   UNL     1       7.611   5.355  18.390  0.00  0.00    +0.000 C 
BRANCH   3   5
ATOM      5  C   UNL     1       8.131   7.736  18.321  0.00  0.00    +0.000 C 
BRANCH   5   6
ATOM      6  C   UNL     1       8.105   9.066  17.554  0.00  0.00    +0.000 C 
BRANCH   6  10
ATOM      7  C   UNL     1      10.144  12.173  19.766  0.00  0.00    +0.000 A 
ATOM      8  C   UNL     1       9.817  10.951  20.375  0.00  0.00    +0.000 A 
ATOM      9  C   UNL     1       9.146   9.954  19.670  0.00  0.00    +0.000 A 
ATOM     10  C   UNL     1       8.757  10.172  18.349  0.00  0.00    +0.000 A 
ATOM     11  C   UNL     1       8.974  11.435  17.783  0.00  0.00    +0.000 A 
ATOM     12  C   UNL     1       9.660  12.446  18.477  0.00  0.00    +0.000 A 
BRANCH   7  14
ATOM     13  C   UNL     1      10.189  14.026  21.227  0.00  0.00    +0.000 C 
ATOM     14  O   UNL     1      10.916  13.096  20.422  0.00  0.00    +0.000 OA
ENDBRANCH   7  14
BRANCH  12  15
ATOM     15  O   UNL     1       9.778  13.588  17.731  0.00  0.00    +0.000 OA
ATOM     16  C   UNL     1      10.982  13.828  17.021  0.00  0.00    +0.000 C 
ENDBRANCH  12  15
ENDBRANCH   6  10
ENDBRANCH   5   6
ENDBRANCH   3   5
ENDBRANCH   2   3
ENDBRANCH   1   2
BRANCH   1  17
ATOM     17  O   UNL     1       3.826   6.489  17.600  0.00  0.00    +0.000 OA
BRANCH  17  18
ATOM     18  C   UNL     1       2.929   7.175  18.398  0.00  0.00    +0.000 A 
ATOM     19  C   UNL     1       2.537   8.395  17.802  0.00  0.00    +0.000 A 
ATOM     20  C   UNL     1       1.638   9.262  18.430  0.00  0.00    +0.000 A 
ATOM     21  C   UNL     1       1.126   8.923  19.671  0.00  0.00    +0.000 A 
ATOM     22  C   UNL     1       1.531   7.745  20.292  0.00  0.00    +0.000 A 
ATOM     23  C   UNL     1       2.388   6.825  19.658  0.00  0.00    +0.000 A 
BRANCH  23  24
ATOM     24  N   UNL     1       2.769   5.728  20.460  0.00  0.00    +0.000 N 
ATOM     25  H   UNL     1       2.290   5.687  21.354  0.00  0.00    +0.000 HD
ATOM     26  H   UNL     1       2.736   4.822  20.025  0.00  0.00    +0.000 HD
ENDBRANCH  23  24
BRANCH  21  27
ATOM     27  N   UNL     1       0.161   9.735  20.332  0.00  0.00    +0.000 N 
ATOM     28  H   UNL     1      -0.453  10.277  19.723  0.00  0.00    +0.000 HD
BRANCH  27  29
ATOM     29  S   UNL     1       0.634  10.653  21.662  0.00  0.00    +0.000 S 
ATOM     30  C   UNL     1      -0.906  11.410  22.138  0.00  0.00    +0.000 C 
ATOM     31  O   UNL     1       1.097   9.795  22.728  0.00  0.00    +0.000 OA
ATOM     32  O   UNL     1       1.477  11.699  21.119  0.00  0.00    +0.000 OA
ENDBRANCH  27  29
ENDBRANCH  21  27
ENDBRANCH  17  18
ENDBRANCH   1  17
TORSDOF 12
ENDMDL
