MODEL 1
REMARK VINA RESULT:      -8.3      0.000      0.000
REMARK  Name = 
REMARK  5 active torsions:
REMARK  status: ('A' for Active; 'I' for Inactive)
REMARK    1  A    between atoms: C_1  and  C_2
REMARK    2  A    between atoms: N_6  and  C_7
REMARK    3  A    between atoms: C_9  and  S_10
REMARK    4  A    between atoms: S_10  and  C_11
REMARK    5  A    between atoms: C_11  and  C_12
REMARK                            x       y       z     vdW  Elec       q    Type
REMARK                         _______ _______ _______ _____ _____    ______ ____
ROOT
ATOM      1  C   UNL     1       3.486   4.923  18.011  0.00  0.00    +0.000 A 
ATOM      2  N   UNL     1       2.778   6.022  18.406  0.00  0.00    +0.000 NA
ATOM      3  C   UNL     1       3.128   7.247  17.969  0.00  0.00    +0.000 A 
ATOM      4  N   UNL     1       4.137   7.527  17.146  0.00  0.00    +0.000 NA
ATOM      5  C   UNL     1       4.817   6.456  16.706  0.00  0.00    +0.000 A 
ATOM      6  N   UNL     1       5.866   6.606  15.819  0.00  0.00    +0.000 NA
ATOM      7  C   UNL     1       6.358   5.438  15.515  0.00  0.00    +0.000 A 
ATOM      8  N   UNL     1       7.405   5.266  14.691  0.00  0.00    +0.000 N 
ATOM      9  S   UNL     1       5.570   4.097  16.217  0.00  0.00    +0.000 S 
ATOM     10  C   UNL     1       4.524   5.154  17.093  0.00  0.00    +0.000 A 
ATOM     11  H   UNL     1       7.641   6.053  14.094  0.00  0.00    +0.000 HD
ATOM     12  H   UNL     1       7.560   4.356  14.275  0.00  0.00    +0.000 HD
ENDROOT
BRANCH   1  18
ATOM     13  C   UNL     1       2.027   3.940  21.351  0.00  0.00    +0.000 C 
ATOM     14  C   UNL     1       2.676   2.702  20.720  0.00  0.00    +0.000 C 
ATOM     15  C   UNL     1       1.646   1.785  20.051  0.00  0.00    +0.000 C 
ATOM     16  C   UNL     1       1.075   2.391  18.767  0.00  0.00    +0.000 C 
ATOM     17  C   UNL     1       2.177   2.849  17.812  0.00  0.00    +0.000 C 
ATOM     18  N   UNL     1       3.142   3.685  18.519  0.00  0.00    +0.000 N 
ATOM     19  C   UNL     1       3.759   3.116  19.713  0.00  0.00    +0.000 C 
ENDBRANCH   1  18
BRANCH   3  20
ATOM     20  S   UNL     1       2.100   8.647  18.360  0.00  0.00    +0.000 S 
BRANCH  20  21
ATOM     21  C   UNL     1       1.558   8.259  20.053  0.00  0.00    +0.000 C 
BRANCH  21  22
ATOM     22  C   UNL     1       0.692   9.385  20.589  0.00  0.00    +0.000 A 
ATOM     23  C   UNL     1       0.474   9.521  21.971  0.00  0.00    +0.000 A 
ATOM     24  C   UNL     1      -0.380  10.510  22.466  0.00  0.00    +0.000 A 
ATOM     25  C   UNL     1      -1.030  11.378  21.592  0.00  0.00    +0.000 A 
ATOM     26  C   UNL     1      -0.823  11.258  20.219  0.00  0.00    +0.000 A 
ATOM     27  C   UNL     1       0.031  10.269  19.721  0.00  0.00    +0.000 A 
ENDBRANCH  21  22
ENDBRANCH  20  21
ENDBRANCH   3  20
TORSDOF 4
ENDMDL
MODEL 2
REMARK VINA RESULT:      -8.3      0.395      1.014
REMARK  Name = 
REMARK  5 active torsions:
REMARK  status: ('A' for Active; 'I' for Inactive)
REMARK    1  A    between atoms: C_1  and  C_2
REMARK    2  A    between atoms: N_6  and  C_7
REMARK    3  A    between atoms: C_9  and  S_10
REMARK    4  A    between atoms: S_10  and  C_11
REMARK    5  A    between atoms: C_11  and  C_12
REMARK                            x       y       z     vdW  Elec       q    Type
REMARK                         _______ _______ _______ _____ _____    ______ ____
ROOT
ATOM      1  C   UNL     1       3.419   5.031  17.975  0.00  0.00    +0.000 A 
ATOM      2  N   UNL     1       2.700   6.150  18.287  0.00  0.00    +0.000 NA
ATOM      3  C   UNL     1       3.085   7.355  17.824  0.00  0.00    +0.000 A 
ATOM      4  N   UNL     1       4.141   7.596  17.049  0.00  0.00    +0.000 NA
ATOM      5  C   UNL     1       4.835   6.503  16.689  0.00  0.00    +0.000 A 
ATOM      6  N   UNL     1       5.933   6.612  15.857  0.00  0.00    +0.000 NA
ATOM      7  C   UNL     1       6.430   5.429  15.626  0.00  0.00    +0.000 A 
ATOM      8  N   UNL     1       7.520   5.219  14.869  0.00  0.00    +0.000 N 
ATOM      9  S   UNL     1       5.593   4.122  16.333  0.00  0.00    +0.000 S 
ATOM     10  C   UNL     1       4.508   5.219  17.109  0.00  0.00    +0.000 A 
ATOM     11  H   UNL     1       7.796   5.980  14.257  0.00  0.00    +0.000 HD
ATOM     12  H   UNL     1       7.690   4.292  14.498  0.00  0.00    +0.000 HD
ENDROOT
BRANCH   1  18
ATOM     13  C   UNL     1       2.078   4.147  21.392  0.00  0.00    +0.000 C 
ATOM     14  C   UNL     1       2.630   2.873  20.740  0.00  0.00    +0.000 C 
ATOM     15  C   UNL     1       1.520   2.008  20.131  0.00  0.00    +0.000 C 
ATOM     16  C   UNL     1       0.919   2.636  18.871  0.00  0.00    +0.000 C 
ATOM     17  C   UNL     1       1.994   3.028  17.859  0.00  0.00    +0.000 C 
ATOM     18  N   UNL     1       3.036   3.816  18.510  0.00  0.00    +0.000 N 
ATOM     19  C   UNL     1       3.682   3.222  19.677  0.00  0.00    +0.000 C 
ENDBRANCH   1  18
BRANCH   3  20
ATOM     20  S   UNL     1       2.050   8.775  18.103  0.00  0.00    +0.000 S 
BRANCH  20  21
ATOM     21  C   UNL     1       1.491   8.509  19.814  0.00  0.00    +0.000 C 
BRANCH  21  22
ATOM     22  C   UNL     1       0.522   9.605  20.219  0.00  0.00    +0.000 A 
ATOM     23  C   UNL     1      -0.359  10.161  19.276  0.00  0.00    +0.000 A 
ATOM     24  C   UNL     1      -1.202  11.221  19.622  0.00  0.00    +0.000 A 
ATOM     25  C   UNL     1      -1.179  11.741  20.914  0.00  0.00    +0.000 A 
ATOM     26  C   UNL     1      -0.314  11.199  21.862  0.00  0.00    +0.000 A 
ATOM     27  C   UNL     1       0.531  10.140  21.517  0.00  0.00    +0.000 A 
ENDBRANCH  21  22
ENDBRANCH  20  21
ENDBRANCH   3  20
TORSDOF 4
ENDMDL
MODEL 3
REMARK VINA RESULT:      -8.1      4.088      5.628
REMARK  Name = 
REMARK  5 active torsions:
REMARK  status: ('A' for Active; 'I' for Inactive)
REMARK    1  A    between atoms: C_1  and  C_2
REMARK    2  A    between atoms: N_6  and  C_7
REMARK    3  A    between atoms: C_9  and  S_10
REMARK    4  A    between atoms: S_10  and  C_11
REMARK    5  A    between atoms: C_11  and  C_12
REMARK                            x       y       z     vdW  Elec       q    Type
REMARK                         _______ _______ _______ _____ _____    ______ ____
ROOT
ATOM      1  C   UNL     1       5.582   4.902  18.387  0.00  0.00    +0.000 A 
ATOM      2  N   UNL     1       6.410   5.820  18.969  0.00  0.00    +0.000 NA
ATOM      3  C   UNL     1       7.448   6.330  18.280  0.00  0.00    +0.000 A 
ATOM      4  N   UNL     1       7.777   6.034  17.025  0.00  0.00    +0.000 NA
ATOM      5  C   UNL     1       6.949   5.170  16.415  0.00  0.00    +0.000 A 
ATOM      6  N   UNL     1       7.159   4.805  15.099  0.00  0.00    +0.000 NA
ATOM      7  C   UNL     1       6.224   3.982  14.714  0.00  0.00    +0.000 A 
ATOM      8  N   UNL     1       6.176   3.436  13.487  0.00  0.00    +0.000 N 
ATOM      9  S   UNL     1       5.016   3.641  15.870  0.00  0.00    +0.000 S 
ATOM     10  C   UNL     1       5.848   4.598  17.041  0.00  0.00    +0.000 A 
ATOM     11  H   UNL     1       6.739   3.887  12.773  0.00  0.00    +0.000 HD
ATOM     12  H   UNL     1       5.303   3.044  13.157  0.00  0.00    +0.000 HD
ENDROOT
BRANCH   1  18
ATOM     13  C   UNL     1       1.870   4.704  17.728  0.00  0.00    +0.000 C 
ATOM     14  C   UNL     1       2.110   4.499  19.228  0.00  0.00    +0.000 C 
ATOM     15  C   UNL     1       2.073   3.018  19.624  0.00  0.00    +0.000 C 
ATOM     16  C   UNL     1       3.296   2.250  19.116  0.00  0.00    +0.000 C 
ATOM     17  C   UNL     1       4.604   2.939  19.502  0.00  0.00    +0.000 C 
ATOM     18  N   UNL     1       4.559   4.350  19.134  0.00  0.00    +0.000 N 
ATOM     19  C   UNL     1       3.442   5.134  19.654  0.00  0.00    +0.000 C 
ENDBRANCH   1  18
BRANCH   3  20
ATOM     20  S   UNL     1       8.416   7.642  18.994  0.00  0.00    +0.000 S 
BRANCH  20  21
ATOM     21  C   UNL     1       8.070   9.028  17.866  0.00  0.00    +0.000 C 
BRANCH  21  22
ATOM     22  C   UNL     1       8.747  10.289  18.372  0.00  0.00    +0.000 A 
ATOM     23  C   UNL     1       9.472  10.274  19.576  0.00  0.00    +0.000 A 
ATOM     24  C   UNL     1      10.036  11.447  20.085  0.00  0.00    +0.000 A 
ATOM     25  C   UNL     1       9.887  12.651  19.402  0.00  0.00    +0.000 A 
ATOM     26  C   UNL     1       9.175  12.682  18.205  0.00  0.00    +0.000 A 
ATOM     27  C   UNL     1       8.608  11.510  17.693  0.00  0.00    +0.000 A 
ENDBRANCH  21  22
ENDBRANCH  20  21
ENDBRANCH   3  20
TORSDOF 4
ENDMDL
MODEL 4
REMARK VINA RESULT:      -8.1      2.305      4.673
REMARK  Name = 
REMARK  5 active torsions:
REMARK  status: ('A' for Active; 'I' for Inactive)
REMARK    1  A    between atoms: C_1  and  C_2
REMARK    2  A    between atoms: N_6  and  C_7
REMARK    3  A    between atoms: C_9  and  S_10
REMARK    4  A    between atoms: S_10  and  C_11
REMARK    5  A    between atoms: C_11  and  C_12
REMARK                            x       y       z     vdW  Elec       q    Type
REMARK                         _______ _______ _______ _____ _____    ______ ____
ROOT
ATOM      1  C   UNL     1       3.890   6.672  17.906  0.00  0.00    +0.000 A 
ATOM      2  N   UNL     1       3.341   7.897  17.650  0.00  0.00    +0.000 NA
ATOM      3  C   UNL     1       2.280   8.326  18.361  0.00  0.00    +0.000 A 
ATOM      4  N   UNL     1       1.675   7.663  19.344  0.00  0.00    +0.000 NA
ATOM      5  C   UNL     1       2.228   6.476  19.645  0.00  0.00    +0.000 A 
ATOM      6  N   UNL     1       1.716   5.703  20.670  0.00  0.00    +0.000 NA
ATOM      7  C   UNL     1       2.422   4.615  20.797  0.00  0.00    +0.000 A 
ATOM      8  N   UNL     1       2.149   3.655  21.697  0.00  0.00    +0.000 N 
ATOM      9  S   UNL     1       3.763   4.475  19.750  0.00  0.00    +0.000 S 
ATOM     10  C   UNL     1       3.328   5.955  18.975  0.00  0.00    +0.000 A 
ATOM     11  H   UNL     1       1.536   3.918  22.462  0.00  0.00    +0.000 HD
ATOM     12  H   UNL     1       2.872   2.989  21.940  0.00  0.00    +0.000 HD
ENDROOT
BRANCH   1  18
ATOM     13  C   UNL     1       7.376   5.568  18.846  0.00  0.00    +0.000 C 
ATOM     14  C   UNL     1       7.367   5.942  17.358  0.00  0.00    +0.000 C 
ATOM     15  C   UNL     1       7.270   4.709  16.452  0.00  0.00    +0.000 C 
ATOM     16  C   UNL     1       5.887   4.056  16.505  0.00  0.00    +0.000 C 
ATOM     17  C   UNL     1       4.768   5.068  16.259  0.00  0.00    +0.000 C 
ATOM     18  N   UNL     1       4.940   6.231  17.124  0.00  0.00    +0.000 N 
ATOM     19  C   UNL     1       6.225   6.922  17.054  0.00  0.00    +0.000 C 
ENDBRANCH   1  18
BRANCH   3  20
ATOM     20  S   UNL     1       1.680   9.985  18.128  0.00  0.00    +0.000 S 
BRANCH  20  21
ATOM     21  C   UNL     1       0.299  10.061  19.311  0.00  0.00    +0.000 C 
BRANCH  21  22
ATOM     22  C   UNL     1      -0.983  10.426  18.587  0.00  0.00    +0.000 A 
ATOM     23  C   UNL     1      -1.851  11.395  19.118  0.00  0.00    +0.000 A 
ATOM     24  C   UNL     1      -3.068  11.685  18.495  0.00  0.00    +0.000 A 
ATOM     25  C   UNL     1      -3.437  11.013  17.333  0.00  0.00    +0.000 A 
ATOM     26  C   UNL     1      -2.588  10.052  16.790  0.00  0.00    +0.000 A 
ATOM     27  C   UNL     1      -1.369   9.759  17.413  0.00  0.00    +0.000 A 
ENDBRANCH  21  22
ENDBRANCH  20  21
ENDBRANCH   3  20
TORSDOF 4
ENDMDL
MODEL 5
REMARK VINA RESULT:      -8.0      2.012      4.666
REMARK  Name = 
REMARK  5 active torsions:
REMARK  status: ('A' for Active; 'I' for Inactive)
REMARK    1  A    between atoms: C_1  and  C_2
REMARK    2  A    between atoms: N_6  and  C_7
REMARK    3  A    between atoms: C_9  and  S_10
REMARK    4  A    between atoms: S_10  and  C_11
REMARK    5  A    between atoms: C_11  and  C_12
REMARK                            x       y       z     vdW  Elec       q    Type
REMARK                         _______ _______ _______ _____ _____    ______ ____
ROOT
ATOM      1  C   UNL     1       3.986   5.175  18.408  0.00  0.00    +0.000 A 
ATOM      2  N   UNL     1       3.598   6.433  18.042  0.00  0.00    +0.000 NA
ATOM      3  C   UNL     1       2.518   7.002  18.613  0.00  0.00    +0.000 A 
ATOM      4  N   UNL     1       1.747   6.455  19.549  0.00  0.00    +0.000 NA
ATOM      5  C   UNL     1       2.139   5.237  19.960  0.00  0.00    +0.000 A 
ATOM      6  N   UNL     1       1.444   4.574  20.953  0.00  0.00    +0.000 NA
ATOM      7  C   UNL     1       2.015   3.429  21.202  0.00  0.00    +0.000 A 
ATOM      8  N   UNL     1       1.550   2.550  22.106  0.00  0.00    +0.000 N 
ATOM      9  S   UNL     1       3.436   3.102  20.317  0.00  0.00    +0.000 S 
ATOM     10  C   UNL     1       3.243   4.575  19.437  0.00  0.00    +0.000 A 
ATOM     11  H   UNL     1       0.890   2.912  22.787  0.00  0.00    +0.000 HD
ATOM     12  H   UNL     1       2.170   1.829  22.455  0.00  0.00    +0.000 HD
ENDROOT
BRANCH   1  18
ATOM     13  C   UNL     1       5.398   5.727  14.950  0.00  0.00    +0.000 C 
ATOM     14  C   UNL     1       5.885   4.366  15.464  0.00  0.00    +0.000 C 
ATOM     15  C   UNL     1       7.316   4.432  16.009  0.00  0.00    +0.000 C 
ATOM     16  C   UNL     1       7.399   5.191  17.336  0.00  0.00    +0.000 C 
ATOM     17  C   UNL     1       6.393   4.664  18.359  0.00  0.00    +0.000 C 
ATOM     18  N   UNL     1       5.061   4.591  17.766  0.00  0.00    +0.000 N 
ATOM     19  C   UNL     1       4.928   3.820  16.533  0.00  0.00    +0.000 C 
ENDBRANCH   1  18
BRANCH   3  20
ATOM     20  S   UNL     1       2.123   8.698  18.246  0.00  0.00    +0.000 S 
BRANCH  20  21
ATOM     21  C   UNL     1       1.224   9.212  19.743  0.00  0.00    +0.000 C 
BRANCH  21  22
ATOM     22  C   UNL     1       0.050  10.096  19.363  0.00  0.00    +0.000 A 
ATOM     23  C   UNL     1      -0.492  11.000  20.292  0.00  0.00    +0.000 A 
ATOM     24  C   UNL     1      -1.618  11.764  19.974  0.00  0.00    +0.000 A 
ATOM     25  C   UNL     1      -2.220  11.639  18.725  0.00  0.00    +0.000 A 
ATOM     26  C   UNL     1      -1.694  10.750  17.791  0.00  0.00    +0.000 A 
ATOM     27  C   UNL     1      -0.567   9.983  18.107  0.00  0.00    +0.000 A 
ENDBRANCH  21  22
ENDBRANCH  20  21
ENDBRANCH   3  20
TORSDOF 4
ENDMDL
MODEL 6
REMARK VINA RESULT:      -7.8      2.486      7.165
REMARK  Name = 
REMARK  5 active torsions:
REMARK  status: ('A' for Active; 'I' for Inactive)
REMARK    1  A    between atoms: C_1  and  C_2
REMARK    2  A    between atoms: N_6  and  C_7
REMARK    3  A    between atoms: C_9  and  S_10
REMARK    4  A    between atoms: S_10  and  C_11
REMARK    5  A    between atoms: C_11  and  C_12
REMARK                            x       y       z     vdW  Elec       q    Type
REMARK                         _______ _______ _______ _____ _____    ______ ____
ROOT
ATOM      1  C   UNL     1       2.853   5.536  18.720  0.00  0.00    +0.000 A 
ATOM      2  N   UNL     1       3.977   5.017  18.142  0.00  0.00    +0.000 NA
ATOM      3  C   UNL     1       4.725   5.772  17.314  0.00  0.00    +0.000 A 
ATOM      4  N   UNL     1       4.488   7.039  16.981  0.00  0.00    +0.000 NA
ATOM      5  C   UNL     1       3.414   7.586  17.576  0.00  0.00    +0.000 A 
ATOM      6  N   UNL     1       3.078   8.906  17.341  0.00  0.00    +0.000 NA
ATOM      7  C   UNL     1       2.023   9.223  18.038  0.00  0.00    +0.000 A 
ATOM      8  N   UNL     1       1.446  10.436  17.998  0.00  0.00    +0.000 N 
ATOM      9  S   UNL     1       1.408   7.996  19.051  0.00  0.00    +0.000 S 
ATOM     10  C   UNL     1       2.589   6.889  18.450  0.00  0.00    +0.000 A 
ATOM     11  H   UNL     1       2.008  11.188  17.614  0.00  0.00    +0.000 HD
ATOM     12  H   UNL     1       0.824  10.709  18.749  0.00  0.00    +0.000 HD
ENDROOT
BRANCH   1  18
ATOM     13  C   UNL     1       2.627   1.775  18.945  0.00  0.00    +0.000 C 
ATOM     14  C   UNL     1       1.351   2.376  19.547  0.00  0.00    +0.000 C 
ATOM     15  C   UNL     1       1.399   2.420  21.079  0.00  0.00    +0.000 C 
ATOM     16  C   UNL     1       2.384   3.469  21.601  0.00  0.00    +0.000 C 
ATOM     17  C   UNL     1       2.144   4.841  20.971  0.00  0.00    +0.000 C 
ATOM     18  N   UNL     1       2.072   4.723  19.518  0.00  0.00    +0.000 N 
ATOM     19  C   UNL     1       1.096   3.780  18.979  0.00  0.00    +0.000 C 
ENDBRANCH   1  18
BRANCH   3  20
ATOM     20  S   UNL     1       6.270   5.137  16.701  0.00  0.00    +0.000 S 
BRANCH  20  21
ATOM     21  C   UNL     1       5.717   3.823  15.568  0.00  0.00    +0.000 C 
BRANCH  21  22
ATOM     22  C   UNL     1       6.348   4.021  14.201  0.00  0.00    +0.000 A 
ATOM     23  C   UNL     1       7.306   5.028  13.997  0.00  0.00    +0.000 A 
ATOM     24  C   UNL     1       7.837   5.263  12.725  0.00  0.00    +0.000 A 
ATOM     25  C   UNL     1       7.420   4.498  11.639  0.00  0.00    +0.000 A 
ATOM     26  C   UNL     1       6.473   3.493  11.825  0.00  0.00    +0.000 A 
ATOM     27  C   UNL     1       5.940   3.256  13.096  0.00  0.00    +0.000 A 
ENDBRANCH  21  22
ENDBRANCH  20  21
ENDBRANCH   3  20
TORSDOF 4
ENDMDL
MODEL 7
REMARK VINA RESULT:      -7.7      1.626      2.434
REMARK  Name = 
REMARK  5 active torsions:
REMARK  status: ('A' for Active; 'I' for Inactive)
REMARK    1  A    between atoms: C_1  and  C_2
REMARK    2  A    between atoms: N_6  and  C_7
REMARK    3  A    between atoms: C_9  and  S_10
REMARK    4  A    between atoms: S_10  and  C_11
REMARK    5  A    between atoms: C_11  and  C_12
REMARK                            x       y       z     vdW  Elec       q    Type
REMARK                         _______ _______ _______ _____ _____    ______ ____
ROOT
ATOM      1  C   UNL     1       2.658   5.703  19.054  0.00  0.00    +0.000 A 
ATOM      2  N   UNL     1       2.121   6.944  18.858  0.00  0.00    +0.000 NA
ATOM      3  C   UNL     1       2.773   7.855  18.110  0.00  0.00    +0.000 A 
ATOM      4  N   UNL     1       3.941   7.675  17.498  0.00  0.00    +0.000 NA
ATOM      5  C   UNL     1       4.465   6.446  17.636  0.00  0.00    +0.000 A 
ATOM      6  N   UNL     1       5.659   6.118  17.022  0.00  0.00    +0.000 NA
ATOM      7  C   UNL     1       5.958   4.875  17.274  0.00  0.00    +0.000 A 
ATOM      8  N   UNL     1       7.077   4.277  16.830  0.00  0.00    +0.000 N 
ATOM      9  S   UNL     1       4.817   4.011  18.203  0.00  0.00    +0.000 S 
ATOM     10  C   UNL     1       3.862   5.439  18.381  0.00  0.00    +0.000 A 
ATOM     11  H   UNL     1       7.559   4.738  16.065  0.00  0.00    +0.000 HD
ATOM     12  H   UNL     1       7.120   3.266  16.812  0.00  0.00    +0.000 HD
ENDROOT
BRANCH   1  18
ATOM     13  C   UNL     1       2.099   1.986  18.706  0.00  0.00    +0.000 C 
ATOM     14  C   UNL     1       1.064   2.544  19.690  0.00  0.00    +0.000 C 
ATOM     15  C   UNL     1       1.464   2.301  21.150  0.00  0.00    +0.000 C 
ATOM     16  C   UNL     1       2.645   3.173  21.582  0.00  0.00    +0.000 C 
ATOM     17  C   UNL     1       2.412   4.650  21.264  0.00  0.00    +0.000 C 
ATOM     18  N   UNL     1       1.999   4.807  19.873  0.00  0.00    +0.000 N 
ATOM     19  C   UNL     1       0.834   4.042  19.439  0.00  0.00    +0.000 C 
ENDBRANCH   1  18
BRANCH   3  20
ATOM     20  S   UNL     1       1.985   9.405  17.730  0.00  0.00    +0.000 S 
BRANCH  20  21
ATOM     21  C   UNL     1       0.930   9.663  19.191  0.00  0.00    +0.000 C 
BRANCH  21  22
ATOM     22  C   UNL     1      -0.382  10.302  18.774  0.00  0.00    +0.000 A 
ATOM     23  C   UNL     1      -0.997  11.267  19.591  0.00  0.00    +0.000 A 
ATOM     24  C   UNL     1      -2.240  11.806  19.250  0.00  0.00    +0.000 A 
ATOM     25  C   UNL     1      -2.889  11.392  18.090  0.00  0.00    +0.000 A 
ATOM     26  C   UNL     1      -2.293  10.439  17.267  0.00  0.00    +0.000 A 
ATOM     27  C   UNL     1      -1.049   9.897  17.606  0.00  0.00    +0.000 A 
ENDBRANCH  21  22
ENDBRANCH  20  21
ENDBRANCH   3  20
TORSDOF 4
ENDMDL
MODEL 8
REMARK VINA RESULT:      -7.7      4.086      5.947
REMARK  Name = 
REMARK  5 active torsions:
REMARK  status: ('A' for Active; 'I' for Inactive)
REMARK    1  A    between atoms: C_1  and  C_2
REMARK    2  A    between atoms: N_6  and  C_7
REMARK    3  A    between atoms: C_9  and  S_10
REMARK    4  A    between atoms: S_10  and  C_11
REMARK    5  A    between atoms: C_11  and  C_12
REMARK                            x       y       z     vdW  Elec       q    Type
REMARK                         _______ _______ _______ _____ _____    ______ ____
ROOT
ATOM      1  C   UNL     1       5.144   5.401  17.218  0.00  0.00    +0.000 A 
ATOM      2  N   UNL     1       5.930   6.132  18.064  0.00  0.00    +0.000 NA
ATOM      3  C   UNL     1       7.188   6.457  17.709  0.00  0.00    +0.000 A 
ATOM      4  N   UNL     1       7.786   6.137  16.563  0.00  0.00    +0.000 NA
ATOM      5  C   UNL     1       7.016   5.460  15.696  0.00  0.00    +0.000 A 
ATOM      6  N   UNL     1       7.506   5.098  14.456  0.00  0.00    +0.000 NA
ATOM      7  C   UNL     1       6.581   4.475  13.780  0.00  0.00    +0.000 A 
ATOM      8  N   UNL     1       6.771   3.980  12.546  0.00  0.00    +0.000 N 
ATOM      9  S   UNL     1       5.066   4.336  14.553  0.00  0.00    +0.000 S 
ATOM     10  C   UNL     1       5.704   5.089  15.969  0.00  0.00    +0.000 A 
ATOM     11  H   UNL     1       7.575   4.336  12.038  0.00  0.00    +0.000 HD
ATOM     12  H   UNL     1       5.965   3.767  11.971  0.00  0.00    +0.000 HD
ENDROOT
BRANCH   1  18
ATOM     13  C   UNL     1       4.021   2.902  19.816  0.00  0.00    +0.000 C 
ATOM     14  C   UNL     1       2.851   3.172  18.861  0.00  0.00    +0.000 C 
ATOM     15  C   UNL     1       1.843   4.167  19.448  0.00  0.00    +0.000 C 
ATOM     16  C   UNL     1       2.395   5.593  19.499  0.00  0.00    +0.000 C 
ATOM     17  C   UNL     1       2.956   6.037  18.149  0.00  0.00    +0.000 C 
ATOM     18  N   UNL     1       3.877   5.032  17.630  0.00  0.00    +0.000 N 
ATOM     19  C   UNL     1       3.366   3.670  17.503  0.00  0.00    +0.000 C 
ENDBRANCH   1  18
BRANCH   3  20
ATOM     20  S   UNL     1       8.140   7.545  18.747  0.00  0.00    +0.000 S 
BRANCH  20  21
ATOM     21  C   UNL     1       8.065   9.113  17.825  0.00  0.00    +0.000 C 
BRANCH  21  22
ATOM     22  C   UNL     1       9.006  10.126  18.451  0.00  0.00    +0.000 A 
ATOM     23  C   UNL     1       9.855  10.903  17.645  0.00  0.00    +0.000 A 
ATOM     24  C   UNL     1      10.775  11.785  18.217  0.00  0.00    +0.000 A 
ATOM     25  C   UNL     1      10.863  11.905  19.602  0.00  0.00    +0.000 A 
ATOM     26  C   UNL     1      10.027  11.145  20.416  0.00  0.00    +0.000 A 
ATOM     27  C   UNL     1       9.105  10.260  19.845  0.00  0.00    +0.000 A 
ENDBRANCH  21  22
ENDBRANCH  20  21
ENDBRANCH   3  20
TORSDOF 4
ENDMDL
MODEL 9
REMARK VINA RESULT:      -7.7      2.268      4.695
REMARK  Name = 
REMARK  5 active torsions:
REMARK  status: ('A' for Active; 'I' for Inactive)
REMARK    1  A    between atoms: C_1  and  C_2
REMARK    2  A    between atoms: N_6  and  C_7
REMARK    3  A    between atoms: C_9  and  S_10
REMARK    4  A    between atoms: S_10  and  C_11
REMARK    5  A    between atoms: C_11  and  C_12
REMARK                            x       y       z     vdW  Elec       q    Type
REMARK                         _______ _______ _______ _____ _____    ______ ____
ROOT
ATOM      1  C   UNL     1       3.710   6.213  18.363  0.00  0.00    +0.000 A 
ATOM      2  N   UNL     1       3.085   7.427  18.426  0.00  0.00    +0.000 NA
ATOM      3  C   UNL     1       2.122   7.647  19.342  0.00  0.00    +0.000 A 
ATOM      4  N   UNL     1       1.688   6.774  20.248  0.00  0.00    +0.000 NA
ATOM      5  C   UNL     1       2.322   5.589  20.237  0.00  0.00    +0.000 A 
ATOM      6  N   UNL     1       1.991   4.607  21.150  0.00  0.00    +0.000 NA
ATOM      7  C   UNL     1       2.747   3.561  20.967  0.00  0.00    +0.000 A 
ATOM      8  N   UNL     1       2.642   2.434  21.691  0.00  0.00    +0.000 N 
ATOM      9  S   UNL     1       3.928   3.705  19.744  0.00  0.00    +0.000 S 
ATOM     10  C   UNL     1       3.333   5.274  19.337  0.00  0.00    +0.000 A 
ATOM     11  H   UNL     1       2.135   2.509  22.568  0.00  0.00    +0.000 HD
ATOM     12  H   UNL     1       3.416   1.781  21.702  0.00  0.00    +0.000 HD
ENDROOT
BRANCH   1  18
ATOM     13  C   UNL     1       7.434   5.640  18.590  0.00  0.00    +0.000 C 
ATOM     14  C   UNL     1       7.097   6.091  17.163  0.00  0.00    +0.000 C 
ATOM     15  C   UNL     1       7.021   4.912  16.186  0.00  0.00    +0.000 C 
ATOM     16  C   UNL     1       5.784   4.041  16.421  0.00  0.00    +0.000 C 
ATOM     17  C   UNL     1       4.500   4.870  16.459  0.00  0.00    +0.000 C 
ATOM     18  N   UNL     1       4.653   5.994  17.377  0.00  0.00    +0.000 N 
ATOM     19  C   UNL     1       5.784   6.888  17.146  0.00  0.00    +0.000 C 
ENDBRANCH   1  18
BRANCH   3  20
ATOM     20  S   UNL     1       1.435   9.279  19.518  0.00  0.00    +0.000 S 
BRANCH  20  21
ATOM     21  C   UNL     1       0.661   9.544  17.892  0.00  0.00    +0.000 C 
BRANCH  21  22
ATOM     22  C   UNL     1      -0.706  10.181  18.068  0.00  0.00    +0.000 A 
ATOM     23  C   UNL     1      -1.759   9.864  17.193  0.00  0.00    +0.000 A 
ATOM     24  C   UNL     1      -2.997  10.501  17.303  0.00  0.00    +0.000 A 
ATOM     25  C   UNL     1      -3.205  11.464  18.288  0.00  0.00    +0.000 A 
ATOM     26  C   UNL     1      -2.173  11.788  19.166  0.00  0.00    +0.000 A 
ATOM     27  C   UNL     1      -0.932  11.153  19.057  0.00  0.00    +0.000 A 
ENDBRANCH  21  22
ENDBRANCH  20  21
ENDBRANCH   3  20
TORSDOF 4
ENDMDL
