MODEL 1
REMARK VINA RESULT:      -7.6      0.000      0.000
REMARK  Name = 
REMARK  7 active torsions:
REMARK  status: ('A' for Active; 'I' for Inactive)
REMARK    1  A    between atoms: C_1  and  C_2
REMARK    2  A    between atoms: C_2  and  C_3
REMARK    3  A    between atoms: C_2  and  C_4
REMARK    4  A    between atoms: C_2  and  C_5
REMARK    5  A    between atoms: C_7  and  C_8
REMARK    6  A    between atoms: C_9  and  C_10
REMARK    7  A    between atoms: C_18  and  O_19
REMARK                            x       y       z     vdW  Elec       q    Type
REMARK                         _______ _______ _______ _____ _____    ______ ____
ROOT
ATOM      1  C   UNL     1       6.370   5.955  17.335  0.00  0.00    +0.000 A 
ATOM      2  C   UNL     1       6.916   7.252  17.201  0.00  0.00    +0.000 A 
ATOM      3  C   UNL     1       7.911   7.753  18.062  0.00  0.00    +0.000 A 
ATOM      4  C   UNL     1       8.361   6.947  19.106  0.00  0.00    +0.000 A 
ATOM      5  C   UNL     1       7.853   5.658  19.265  0.00  0.00    +0.000 A 
ATOM      6  C   UNL     1       6.876   5.174  18.389  0.00  0.00    +0.000 A 
ENDROOT
BRANCH   1   8
ATOM      7  C   UNL     1       5.725   4.206  15.538  0.00  0.00    +0.000 C 
ATOM      8  C   UNL     1       5.283   5.443  16.364  0.00  0.00    +0.000 C 
ATOM      9  C   UNL     1       4.910   6.535  15.336  0.00  0.00    +0.000 C 
ATOM     10  C   UNL     1       4.021   5.013  17.144  0.00  0.00    +0.000 C 
ENDBRANCH   1   8
BRANCH   3  11
ATOM     11  C   UNL     1       8.396   9.128  17.846  0.00  0.00    +0.000 C 
ATOM     12  C   UNL     1       9.036   9.861  18.770  0.00  0.00    +0.000 C 
BRANCH  12  13
ATOM     13  C   UNL     1       9.560  11.216  18.545  0.00  0.00    +0.000 A 
ATOM     14  C   UNL     1       8.824  12.245  17.952  0.00  0.00    +0.000 A 
ATOM     15  C   UNL     1       9.390  13.511  17.800  0.00  0.00    +0.000 A 
ATOM     16  C   UNL     1      10.678  13.716  18.262  0.00  0.00    +0.000 A 
ATOM     17  N   UNL     1      11.421  12.760  18.855  0.00  0.00    +0.000 NA
ATOM     18  C   UNL     1      10.844  11.539  18.983  0.00  0.00    +0.000 A 
ENDBRANCH  12  13
ENDBRANCH   3  11
BRANCH   6  19
ATOM     19  O   UNL     1       6.409   3.903  18.581  0.00  0.00    +0.000 OA
ATOM     20  H   UNL     1       6.237   3.492  17.720  0.00  0.00    +0.000 HD
ENDBRANCH   6  19
TORSDOF 4
ENDMDL
MODEL 2
REMARK VINA RESULT:      -7.5      0.684      1.464
REMARK  Name = 
REMARK  7 active torsions:
REMARK  status: ('A' for Active; 'I' for Inactive)
REMARK    1  A    between atoms: C_1  and  C_2
REMARK    2  A    between atoms: C_2  and  C_3
REMARK    3  A    between atoms: C_2  and  C_4
REMARK    4  A    between atoms: C_2  and  C_5
REMARK    5  A    between atoms: C_7  and  C_8
REMARK    6  A    between atoms: C_9  and  C_10
REMARK    7  A    between atoms: C_18  and  O_19
REMARK                            x       y       z     vdW  Elec       q    Type
REMARK                         _______ _______ _______ _____ _____    ______ ____
ROOT
ATOM      1  C   UNL     1       6.511   5.930  17.229  0.00  0.00    +0.000 A 
ATOM      2  C   UNL     1       7.022   7.244  17.137  0.00  0.00    +0.000 A 
ATOM      3  C   UNL     1       7.930   7.777  18.070  0.00  0.00    +0.000 A 
ATOM      4  C   UNL     1       8.325   6.985  19.147  0.00  0.00    +0.000 A 
ATOM      5  C   UNL     1       7.850   5.680  19.268  0.00  0.00    +0.000 A 
ATOM      6  C   UNL     1       6.960   5.164  18.320  0.00  0.00    +0.000 A 
ENDROOT
BRANCH   1   8
ATOM      7  C   UNL     1       4.252   4.738  16.800  0.00  0.00    +0.000 C 
ATOM      8  C   UNL     1       5.519   5.383  16.178  0.00  0.00    +0.000 C 
ATOM      9  C   UNL     1       6.184   4.282  15.321  0.00  0.00    +0.000 C 
ATOM     10  C   UNL     1       5.020   6.521  15.262  0.00  0.00    +0.000 C 
ENDBRANCH   1   8
BRANCH   3  11
ATOM     11  C   UNL     1       8.383   9.168  17.891  0.00  0.00    +0.000 C 
ATOM     12  C   UNL     1       9.202   9.814  18.735  0.00  0.00    +0.000 C 
BRANCH  12  13
ATOM     13  C   UNL     1       9.692  11.186  18.537  0.00  0.00    +0.000 A 
ATOM     14  C   UNL     1      11.016  11.578  18.759  0.00  0.00    +0.000 A 
ATOM     15  C   UNL     1      11.403  12.896  18.521  0.00  0.00    +0.000 A 
ATOM     16  C   UNL     1      10.454  13.787  18.050  0.00  0.00    +0.000 A 
ATOM     17  N   UNL     1       9.171  13.452  17.804  0.00  0.00    +0.000 NA
ATOM     18  C   UNL     1       8.825  12.164  18.051  0.00  0.00    +0.000 A 
ENDBRANCH  12  13
ENDBRANCH   3  11
BRANCH   6  19
ATOM     19  O   UNL     1       6.522   3.878  18.478  0.00  0.00    +0.000 OA
ATOM     20  H   UNL     1       6.444   3.459  17.607  0.00  0.00    +0.000 HD
ENDBRANCH   6  19
TORSDOF 4
ENDMDL
MODEL 3
REMARK VINA RESULT:      -7.5      5.847      7.249
REMARK  Name = 
REMARK  7 active torsions:
REMARK  status: ('A' for Active; 'I' for Inactive)
REMARK    1  A    between atoms: C_1  and  C_2
REMARK    2  A    between atoms: C_2  and  C_3
REMARK    3  A    between atoms: C_2  and  C_4
REMARK    4  A    between atoms: C_2  and  C_5
REMARK    5  A    between atoms: C_7  and  C_8
REMARK    6  A    between atoms: C_9  and  C_10
REMARK    7  A    between atoms: C_18  and  O_19
REMARK                            x       y       z     vdW  Elec       q    Type
REMARK                         _______ _______ _______ _____ _____    ______ ____
ROOT
ATOM      1  C   UNL     1       2.618   4.239  19.092  0.00  0.00    +0.000 A 
ATOM      2  C   UNL     1       3.467   4.344  17.967  0.00  0.00    +0.000 A 
ATOM      3  C   UNL     1       3.920   5.579  17.466  0.00  0.00    +0.000 A 
ATOM      4  C   UNL     1       3.494   6.751  18.089  0.00  0.00    +0.000 A 
ATOM      5  C   UNL     1       2.663   6.688  19.207  0.00  0.00    +0.000 A 
ATOM      6  C   UNL     1       2.238   5.449  19.699  0.00  0.00    +0.000 A 
ENDROOT
BRANCH   1   8
ATOM      7  C   UNL     1       2.294   2.700  21.150  0.00  0.00    +0.000 C 
ATOM      8  C   UNL     1       2.150   2.862  19.613  0.00  0.00    +0.000 C 
ATOM      9  C   UNL     1       2.985   1.726  18.981  0.00  0.00    +0.000 C 
ATOM     10  C   UNL     1       0.654   2.644  19.294  0.00  0.00    +0.000 C 
ENDBRANCH   1   8
BRANCH   3  11
ATOM     11  C   UNL     1       4.786   5.575  16.273  0.00  0.00    +0.000 C 
ATOM     12  C   UNL     1       5.222   4.467  15.655  0.00  0.00    +0.000 C 
BRANCH  12  13
ATOM     13  C   UNL     1       6.050   4.460  14.440  0.00  0.00    +0.000 A 
ATOM     14  C   UNL     1       5.749   3.707  13.301  0.00  0.00    +0.000 A 
ATOM     15  C   UNL     1       6.575   3.779  12.179  0.00  0.00    +0.000 A 
ATOM     16  C   UNL     1       7.676   4.617  12.223  0.00  0.00    +0.000 A 
ATOM     17  N   UNL     1       7.996   5.374  13.292  0.00  0.00    +0.000 NA
ATOM     18  C   UNL     1       7.177   5.278  14.368  0.00  0.00    +0.000 A 
ENDBRANCH  12  13
ENDBRANCH   3  11
BRANCH   6  19
ATOM     19  O   UNL     1       1.426   5.436  20.799  0.00  0.00    +0.000 OA
ATOM     20  H   UNL     1       1.677   6.164  21.389  0.00  0.00    +0.000 HD
ENDBRANCH   6  19
TORSDOF 4
ENDMDL
MODEL 4
REMARK VINA RESULT:      -7.5      0.649      1.481
REMARK  Name = 
REMARK  7 active torsions:
REMARK  status: ('A' for Active; 'I' for Inactive)
REMARK    1  A    between atoms: C_1  and  C_2
REMARK    2  A    between atoms: C_2  and  C_3
REMARK    3  A    between atoms: C_2  and  C_4
REMARK    4  A    between atoms: C_2  and  C_5
REMARK    5  A    between atoms: C_7  and  C_8
REMARK    6  A    between atoms: C_9  and  C_10
REMARK    7  A    between atoms: C_18  and  O_19
REMARK                            x       y       z     vdW  Elec       q    Type
REMARK                         _______ _______ _______ _____ _____    ______ ____
ROOT
ATOM      1  C   UNL     1       6.391   5.982  17.336  0.00  0.00    +0.000 A 
ATOM      2  C   UNL     1       6.933   7.283  17.231  0.00  0.00    +0.000 A 
ATOM      3  C   UNL     1       7.924   7.770  18.104  0.00  0.00    +0.000 A 
ATOM      4  C   UNL     1       8.374   6.943  19.132  0.00  0.00    +0.000 A 
ATOM      5  C   UNL     1       7.870   5.650  19.263  0.00  0.00    +0.000 A 
ATOM      6  C   UNL     1       6.897   5.181  18.375  0.00  0.00    +0.000 A 
ENDROOT
BRANCH   1   8
ATOM      7  C   UNL     1       4.882   6.556  15.312  0.00  0.00    +0.000 C 
ATOM      8  C   UNL     1       5.308   5.487  16.352  0.00  0.00    +0.000 C 
ATOM      9  C   UNL     1       4.022   5.089  17.111  0.00  0.00    +0.000 C 
ATOM     10  C   UNL     1       5.826   4.278  15.543  0.00  0.00    +0.000 C 
ENDBRANCH   1   8
BRANCH   3  11
ATOM     11  C   UNL     1       8.404   9.150  17.919  0.00  0.00    +0.000 C 
ATOM     12  C   UNL     1       9.130   9.829  18.820  0.00  0.00    +0.000 C 
BRANCH  12  13
ATOM     13  C   UNL     1       9.649  11.190  18.621  0.00  0.00    +0.000 A 
ATOM     14  C   UNL     1      10.949  11.583  18.955  0.00  0.00    +0.000 A 
ATOM     15  C   UNL     1      11.368  12.890  18.707  0.00  0.00    +0.000 A 
ATOM     16  C   UNL     1      10.477  13.768  18.115  0.00  0.00    +0.000 A 
ATOM     17  N   UNL     1       9.221  13.430  17.759  0.00  0.00    +0.000 NA
ATOM     18  C   UNL     1       8.841  12.154  18.018  0.00  0.00    +0.000 A 
ENDBRANCH  12  13
ENDBRANCH   3  11
BRANCH   6  19
ATOM     19  O   UNL     1       6.434   3.905  18.540  0.00  0.00    +0.000 OA
ATOM     20  H   UNL     1       6.571   3.632  19.461  0.00  0.00    +0.000 HD
ENDBRANCH   6  19
TORSDOF 4
ENDMDL
MODEL 5
REMARK VINA RESULT:      -7.5      5.825      7.214
REMARK  Name = 
REMARK  7 active torsions:
REMARK  status: ('A' for Active; 'I' for Inactive)
REMARK    1  A    between atoms: C_1  and  C_2
REMARK    2  A    between atoms: C_2  and  C_3
REMARK    3  A    between atoms: C_2  and  C_4
REMARK    4  A    between atoms: C_2  and  C_5
REMARK    5  A    between atoms: C_7  and  C_8
REMARK    6  A    between atoms: C_9  and  C_10
REMARK    7  A    between atoms: C_18  and  O_19
REMARK                            x       y       z     vdW  Elec       q    Type
REMARK                         _______ _______ _______ _____ _____    ______ ____
ROOT
ATOM      1  C   UNL     1       2.650   4.280  19.110  0.00  0.00    +0.000 A 
ATOM      2  C   UNL     1       3.522   4.373  18.002  0.00  0.00    +0.000 A 
ATOM      3  C   UNL     1       3.959   5.603  17.477  0.00  0.00    +0.000 A 
ATOM      4  C   UNL     1       3.494   6.782  18.058  0.00  0.00    +0.000 A 
ATOM      5  C   UNL     1       2.640   6.731  19.159  0.00  0.00    +0.000 A 
ATOM      6  C   UNL     1       2.229   5.497  19.674  0.00  0.00    +0.000 A 
ENDROOT
BRANCH   1   8
ATOM      7  C   UNL     1       2.913   1.707  18.983  0.00  0.00    +0.000 C 
ATOM      8  C   UNL     1       2.199   2.907  19.659  0.00  0.00    +0.000 C 
ATOM      9  C   UNL     1       0.686   2.696  19.423  0.00  0.00    +0.000 C 
ATOM     10  C   UNL     1       2.508   2.800  21.168  0.00  0.00    +0.000 C 
ENDBRANCH   1   8
BRANCH   3  11
ATOM     11  C   UNL     1       4.852   5.587  16.305  0.00  0.00    +0.000 C 
ATOM     12  C   UNL     1       5.178   4.483  15.615  0.00  0.00    +0.000 C 
BRANCH  12  13
ATOM     13  C   UNL     1       6.033   4.469  14.419  0.00  0.00    +0.000 A 
ATOM     14  C   UNL     1       5.769   3.694  13.285  0.00  0.00    +0.000 A 
ATOM     15  C   UNL     1       6.619   3.760  12.181  0.00  0.00    +0.000 A 
ATOM     16  C   UNL     1       7.707   4.614  12.237  0.00  0.00    +0.000 A 
ATOM     17  N   UNL     1       7.992   5.393  13.300  0.00  0.00    +0.000 NA
ATOM     18  C   UNL     1       7.150   5.302  14.359  0.00  0.00    +0.000 A 
ENDBRANCH  12  13
ENDBRANCH   3  11
BRANCH   6  19
ATOM     19  O   UNL     1       1.393   5.497  20.756  0.00  0.00    +0.000 OA
ATOM     20  H   UNL     1       0.571   5.957  20.525  0.00  0.00    +0.000 HD
ENDBRANCH   6  19
TORSDOF 4
ENDMDL
MODEL 6
REMARK VINA RESULT:      -7.3      4.486      6.351
REMARK  Name = 
REMARK  7 active torsions:
REMARK  status: ('A' for Active; 'I' for Inactive)
REMARK    1  A    between atoms: C_1  and  C_2
REMARK    2  A    between atoms: C_2  and  C_3
REMARK    3  A    between atoms: C_2  and  C_4
REMARK    4  A    between atoms: C_2  and  C_5
REMARK    5  A    between atoms: C_7  and  C_8
REMARK    6  A    between atoms: C_9  and  C_10
REMARK    7  A    between atoms: C_18  and  O_19
REMARK                            x       y       z     vdW  Elec       q    Type
REMARK                         _______ _______ _______ _____ _____    ______ ____
ROOT
ATOM      1  C   UNL     1       5.159   5.369  17.284  0.00  0.00    +0.000 A 
ATOM      2  C   UNL     1       4.384   6.476  17.698  0.00  0.00    +0.000 A 
ATOM      3  C   UNL     1       3.022   6.370  18.035  0.00  0.00    +0.000 A 
ATOM      4  C   UNL     1       2.403   5.125  17.934  0.00  0.00    +0.000 A 
ATOM      5  C   UNL     1       3.136   4.008  17.538  0.00  0.00    +0.000 A 
ATOM      6  C   UNL     1       4.493   4.132  17.222  0.00  0.00    +0.000 A 
ENDROOT
BRANCH   1   8
ATOM      7  C   UNL     1       7.587   4.594  17.743  0.00  0.00    +0.000 C 
ATOM      8  C   UNL     1       6.655   5.529  16.929  0.00  0.00    +0.000 C 
ATOM      9  C   UNL     1       7.133   6.970  17.217  0.00  0.00    +0.000 C 
ATOM     10  C   UNL     1       6.895   5.191  15.441  0.00  0.00    +0.000 C 
ENDBRANCH   1   8
BRANCH   3  11
ATOM     11  C   UNL     1       2.302   7.592  18.434  0.00  0.00    +0.000 C 
ATOM     12  C   UNL     1       2.294   8.733  17.728  0.00  0.00    +0.000 C 
BRANCH  12  13
ATOM     13  C   UNL     1       1.541   9.940  18.100  0.00  0.00    +0.000 A 
ATOM     14  C   UNL     1       0.180   9.939  18.419  0.00  0.00    +0.000 A 
ATOM     15  C   UNL     1      -0.451  11.127  18.787  0.00  0.00    +0.000 A 
ATOM     16  C   UNL     1       0.304  12.286  18.841  0.00  0.00    +0.000 A 
ATOM     17  N   UNL     1       1.622  12.333  18.559  0.00  0.00    +0.000 NA
ATOM     18  C   UNL     1       2.205  11.162  18.199  0.00  0.00    +0.000 A 
ENDBRANCH  12  13
ENDBRANCH   3  11
BRANCH   6  19
ATOM     19  O   UNL     1       5.173   3.009  16.841  0.00  0.00    +0.000 OA
ATOM     20  H   UNL     1       5.379   2.479  17.627  0.00  0.00    +0.000 HD
ENDBRANCH   6  19
TORSDOF 4
ENDMDL
MODEL 7
REMARK VINA RESULT:      -7.3      4.843      6.844
REMARK  Name = 
REMARK  7 active torsions:
REMARK  status: ('A' for Active; 'I' for Inactive)
REMARK    1  A    between atoms: C_1  and  C_2
REMARK    2  A    between atoms: C_2  and  C_3
REMARK    3  A    between atoms: C_2  and  C_4
REMARK    4  A    between atoms: C_2  and  C_5
REMARK    5  A    between atoms: C_7  and  C_8
REMARK    6  A    between atoms: C_9  and  C_10
REMARK    7  A    between atoms: C_18  and  O_19
REMARK                            x       y       z     vdW  Elec       q    Type
REMARK                         _______ _______ _______ _____ _____    ______ ____
ROOT
ATOM      1  C   UNL     1       5.177   5.362  17.344  0.00  0.00    +0.000 A 
ATOM      2  C   UNL     1       4.397   6.408  17.885  0.00  0.00    +0.000 A 
ATOM      3  C   UNL     1       3.039   6.253  18.219  0.00  0.00    +0.000 A 
ATOM      4  C   UNL     1       2.428   5.021  17.985  0.00  0.00    +0.000 A 
ATOM      5  C   UNL     1       3.167   3.962  17.460  0.00  0.00    +0.000 A 
ATOM      6  C   UNL     1       4.520   4.134  17.150  0.00  0.00    +0.000 A 
ENDROOT
BRANCH   1   8
ATOM      7  C   UNL     1       7.625   4.635  17.777  0.00  0.00    +0.000 C 
ATOM      8  C   UNL     1       6.668   5.575  16.997  0.00  0.00    +0.000 C 
ATOM      9  C   UNL     1       7.107   7.016  17.338  0.00  0.00    +0.000 C 
ATOM     10  C   UNL     1       6.917   5.298  15.498  0.00  0.00    +0.000 C 
ENDBRANCH   1   8
BRANCH   3  11
ATOM     11  C   UNL     1       2.312   7.416  18.758  0.00  0.00    +0.000 C 
ATOM     12  C   UNL     1       1.950   7.557  20.042  0.00  0.00    +0.000 C 
BRANCH  12  13
ATOM     13  C   UNL     1       1.265   8.736  20.592  0.00  0.00    +0.000 A 
ATOM     14  C   UNL     1       0.577   9.670  19.812  0.00  0.00    +0.000 A 
ATOM     15  C   UNL     1      -0.069  10.746  20.419  0.00  0.00    +0.000 A 
ATOM     16  C   UNL     1      -0.022  10.851  21.798  0.00  0.00    +0.000 A 
ATOM     17  N   UNL     1       0.614   9.967  22.593  0.00  0.00    +0.000 NA
ATOM     18  C   UNL     1       1.236   8.935  21.973  0.00  0.00    +0.000 A 
ENDBRANCH  12  13
ENDBRANCH   3  11
BRANCH   6  19
ATOM     19  O   UNL     1       5.206   3.066  16.640  0.00  0.00    +0.000 OA
ATOM     20  H   UNL     1       4.666   2.637  15.958  0.00  0.00    +0.000 HD
ENDBRANCH   6  19
TORSDOF 4
ENDMDL
MODEL 8
REMARK VINA RESULT:      -7.2      4.806      6.466
REMARK  Name = 
REMARK  7 active torsions:
REMARK  status: ('A' for Active; 'I' for Inactive)
REMARK    1  A    between atoms: C_1  and  C_2
REMARK    2  A    between atoms: C_2  and  C_3
REMARK    3  A    between atoms: C_2  and  C_4
REMARK    4  A    between atoms: C_2  and  C_5
REMARK    5  A    between atoms: C_7  and  C_8
REMARK    6  A    between atoms: C_9  and  C_10
REMARK    7  A    between atoms: C_18  and  O_19
REMARK                            x       y       z     vdW  Elec       q    Type
REMARK                         _______ _______ _______ _____ _____    ______ ____
ROOT
ATOM      1  C   UNL     1       5.166   5.434  17.305  0.00  0.00    +0.000 A 
ATOM      2  C   UNL     1       4.432   6.559  17.743  0.00  0.00    +0.000 A 
ATOM      3  C   UNL     1       3.074   6.490  18.106  0.00  0.00    +0.000 A 
ATOM      4  C   UNL     1       2.416   5.265  18.008  0.00  0.00    +0.000 A 
ATOM      5  C   UNL     1       3.109   4.130  17.588  0.00  0.00    +0.000 A 
ATOM      6  C   UNL     1       4.463   4.218  17.247  0.00  0.00    +0.000 A 
ENDROOT
BRANCH   1   8
ATOM      7  C   UNL     1       7.581   4.598  17.722  0.00  0.00    +0.000 C 
ATOM      8  C   UNL     1       6.658   5.554  16.921  0.00  0.00    +0.000 C 
ATOM      9  C   UNL     1       7.179   6.983  17.193  0.00  0.00    +0.000 C 
ATOM     10  C   UNL     1       6.862   5.204  15.431  0.00  0.00    +0.000 C 
ENDBRANCH   1   8
BRANCH   3  11
ATOM     11  C   UNL     1       2.398   7.729  18.529  0.00  0.00    +0.000 C 
ATOM     12  C   UNL     1       2.209   8.798  17.741  0.00  0.00    +0.000 C 
BRANCH  12  13
ATOM     13  C   UNL     1       1.496  10.019  18.144  0.00  0.00    +0.000 A 
ATOM     14  C   UNL     1       2.114  11.264  18.298  0.00  0.00    +0.000 A 
ATOM     15  C   UNL     1       1.357  12.379  18.659  0.00  0.00    +0.000 A 
ATOM     16  C   UNL     1      -0.006  12.219  18.843  0.00  0.00    +0.000 A 
ATOM     17  N   UNL     1      -0.648  11.043  18.689  0.00  0.00    +0.000 NA
ATOM     18  C   UNL     1       0.117   9.978  18.344  0.00  0.00    +0.000 A 
ENDBRANCH  12  13
ENDBRANCH   3  11
BRANCH   6  19
ATOM     19  O   UNL     1       5.101   3.078  16.843  0.00  0.00    +0.000 OA
ATOM     20  H   UNL     1       5.721   3.295  16.129  0.00  0.00    +0.000 HD
ENDBRANCH   6  19
TORSDOF 4
ENDMDL
MODEL 9
REMARK VINA RESULT:      -7.1      6.029      7.750
REMARK  Name = 
REMARK  7 active torsions:
REMARK  status: ('A' for Active; 'I' for Inactive)
REMARK    1  A    between atoms: C_1  and  C_2
REMARK    2  A    between atoms: C_2  and  C_3
REMARK    3  A    between atoms: C_2  and  C_4
REMARK    4  A    between atoms: C_2  and  C_5
REMARK    5  A    between atoms: C_7  and  C_8
REMARK    6  A    between atoms: C_9  and  C_10
REMARK    7  A    between atoms: C_18  and  O_19
REMARK                            x       y       z     vdW  Elec       q    Type
REMARK                         _______ _______ _______ _____ _____    ______ ____
ROOT
ATOM      1  C   UNL     1       2.813   4.473  19.237  0.00  0.00    +0.000 A 
ATOM      2  C   UNL     1       2.210   5.656  19.721  0.00  0.00    +0.000 A 
ATOM      3  C   UNL     1       2.434   6.919  19.142  0.00  0.00    +0.000 A 
ATOM      4  C   UNL     1       3.308   7.013  18.060  0.00  0.00    +0.000 A 
ATOM      5  C   UNL     1       3.916   5.867  17.548  0.00  0.00    +0.000 A 
ATOM      6  C   UNL     1       3.666   4.619  18.130  0.00  0.00    +0.000 A 
ENDROOT
BRANCH   1   8
ATOM      7  C   UNL     1       1.643   3.204  21.168  0.00  0.00    +0.000 C 
ATOM      8  C   UNL     1       2.533   3.106  19.901  0.00  0.00    +0.000 C 
ATOM      9  C   UNL     1       3.852   2.439  20.352  0.00  0.00    +0.000 C 
ATOM     10  C   UNL     1       1.790   2.172  18.921  0.00  0.00    +0.000 C 
ENDBRANCH   1   8
BRANCH   3  11
ATOM     11  C   UNL     1       1.771   8.091  19.739  0.00  0.00    +0.000 C 
ATOM     12  C   UNL     1       1.098   8.074  20.899  0.00  0.00    +0.000 C 
BRANCH  12  13
ATOM     13  C   UNL     1       0.473   9.251  21.520  0.00  0.00    +0.000 A 
ATOM     14  C   UNL     1      -0.409   9.182  22.603  0.00  0.00    +0.000 A 
ATOM     15  C   UNL     1      -0.937  10.351  23.149  0.00  0.00    +0.000 A 
ATOM     16  C   UNL     1      -0.555  11.565  22.604  0.00  0.00    +0.000 A 
ATOM     17  N   UNL     1       0.305  11.682  21.571  0.00  0.00    +0.000 NA
ATOM     18  C   UNL     1       0.796  10.527  21.059  0.00  0.00    +0.000 A 
ENDBRANCH  12  13
ENDBRANCH   3  11
BRANCH   6  19
ATOM     19  O   UNL     1       4.282   3.523  17.593  0.00  0.00    +0.000 OA
ATOM     20  H   UNL     1       4.358   2.834  18.272  0.00  0.00    +0.000 HD
ENDBRANCH   6  19
TORSDOF 4
ENDMDL
