MODEL 1
REMARK VINA RESULT:      -6.5      0.000      0.000
REMARK  Name = 
REMARK  6 active torsions:
REMARK  status: ('A' for Active; 'I' for Inactive)
REMARK    1  A    between atoms: C_1  and  O_2
REMARK    2  A    between atoms: O_2  and  C_3
REMARK    3  A    between atoms: C_11  and  O_12
REMARK    4  A    between atoms: O_12  and  C_13
REMARK    5  A    between atoms: C_14  and  C_15
REMARK    6  A    between atoms: C_18  and  O_19
REMARK                            x       y       z     vdW  Elec       q    Type
REMARK                         _______ _______ _______ _____ _____    ______ ____
ROOT
ATOM      1  C   UNL     1      -4.280  11.053  17.996  0.00  0.00    +0.000 A 
ATOM      2  C   UNL     1      -3.988  11.908  19.074  0.00  0.00    +0.000 A 
ATOM      3  C   UNL     1      -2.654  12.258  19.314  0.00  0.00    +0.000 A 
ATOM      4  N   UNL     1      -2.112  13.023  20.320  0.00  0.00    +0.000 N 
ATOM      5  C   UNL     1      -0.747  12.991  20.249  0.00  0.00    +0.000 A 
ATOM      6  C   UNL     1      -0.396  12.284  19.112  0.00  0.00    +0.000 A 
ATOM      7  C   UNL     1      -1.603  11.802  18.520  0.00  0.00    +0.000 A 
ATOM      8  C   UNL     1      -1.913  10.969  17.428  0.00  0.00    +0.000 A 
ATOM      9  C   UNL     1      -3.243  10.580  17.173  0.00  0.00    +0.000 A 
ATOM     10  C   UNL     1       1.047  12.053  18.760  0.00  0.00    +0.000 C 
ATOM     11  C   UNL     1       1.970  12.964  19.617  0.00  0.00    +0.000 C 
ATOM     12  N   UNL     1       1.485  13.281  20.962  0.00  0.00    +0.000 N 
ATOM     13  C   UNL     1       0.156  13.520  21.233  0.00  0.00    +0.000 C 
ATOM     14  O   UNL     1      -0.199  14.095  22.258  0.00  0.00    +0.000 OA
ATOM     15  H   UNL     1      -2.631  13.464  21.068  0.00  0.00    +0.000 HD
ATOM     16  H   UNL     1       2.120  13.689  21.635  0.00  0.00    +0.000 HD
ENDROOT
BRANCH  10  17
ATOM     17  C   UNL     1       1.298  10.567  18.962  0.00  0.00    +0.000 A 
ATOM     18  C   UNL     1       0.973   9.976  20.197  0.00  0.00    +0.000 A 
ATOM     19  C   UNL     1       1.258   8.631  20.444  0.00  0.00    +0.000 A 
ATOM     20  C   UNL     1       1.864   7.867  19.454  0.00  0.00    +0.000 A 
ATOM     21  C   UNL     1       2.158   8.416  18.214  0.00  0.00    +0.000 A 
ATOM     22  C   UNL     1       1.869   9.757  17.965  0.00  0.00    +0.000 A 
BRANCH  20  23
ATOM     23  O   UNL     1       2.198   6.563  19.667  0.00  0.00    +0.000 OA
ATOM     24  H   UNL     1       3.167   6.502  19.718  0.00  0.00    +0.000 HD
ENDBRANCH  20  23
ENDBRANCH  10  17
BRANCH   1  26
ATOM     25  C   UNL     1      -6.615  11.297  18.428  0.00  0.00    +0.000 C 
ATOM     26  O   UNL     1      -5.561  10.614  17.759  0.00  0.00    +0.000 OA
ENDBRANCH   1  26
BRANCH   9  27
ATOM     27  O   UNL     1      -3.325   9.741  16.088  0.00  0.00    +0.000 OA
ATOM     28  C   UNL     1      -3.010  10.246  14.801  0.00  0.00    +0.000 C 
ENDBRANCH   9  27
TORSDOF 4
ENDMDL
MODEL 2
REMARK VINA RESULT:      -6.4      7.936     10.510
REMARK  Name = 
REMARK  6 active torsions:
REMARK  status: ('A' for Active; 'I' for Inactive)
REMARK    1  A    between atoms: C_1  and  O_2
REMARK    2  A    between atoms: O_2  and  C_3
REMARK    3  A    between atoms: C_11  and  O_12
REMARK    4  A    between atoms: O_12  and  C_13
REMARK    5  A    between atoms: C_14  and  C_15
REMARK    6  A    between atoms: C_18  and  O_19
REMARK                            x       y       z     vdW  Elec       q    Type
REMARK                         _______ _______ _______ _____ _____    ______ ____
ROOT
ATOM      1  C   UNL     1       5.800  16.765  18.951  0.00  0.00    +0.000 A 
ATOM      2  C   UNL     1       7.032  17.415  18.759  0.00  0.00    +0.000 A 
ATOM      3  C   UNL     1       8.120  16.670  18.288  0.00  0.00    +0.000 A 
ATOM      4  N   UNL     1       9.423  17.056  18.072  0.00  0.00    +0.000 N 
ATOM      5  C   UNL     1      10.183  15.970  17.739  0.00  0.00    +0.000 A 
ATOM      6  C   UNL     1       9.341  14.877  17.628  0.00  0.00    +0.000 A 
ATOM      7  C   UNL     1       8.029  15.312  17.989  0.00  0.00    +0.000 A 
ATOM      8  C   UNL     1       6.783  14.680  18.159  0.00  0.00    +0.000 A 
ATOM      9  C   UNL     1       5.674  15.396  18.654  0.00  0.00    +0.000 A 
ATOM     10  C   UNL     1       9.880  13.516  17.289  0.00  0.00    +0.000 C 
ATOM     11  C   UNL     1      11.347  13.621  16.786  0.00  0.00    +0.000 C 
ATOM     12  N   UNL     1      12.143  14.710  17.357  0.00  0.00    +0.000 N 
ATOM     13  C   UNL     1      11.615  15.954  17.619  0.00  0.00    +0.000 C 
ATOM     14  O   UNL     1      12.332  16.937  17.779  0.00  0.00    +0.000 OA
ATOM     15  H   UNL     1       9.796  17.982  18.233  0.00  0.00    +0.000 HD
ATOM     16  H   UNL     1      13.147  14.709  17.233  0.00  0.00    +0.000 HD
ENDROOT
BRANCH  10  17
ATOM     17  C   UNL     1       9.724  12.675  18.546  0.00  0.00    +0.000 A 
ATOM     18  C   UNL     1       9.504  11.291  18.424  0.00  0.00    +0.000 A 
ATOM     19  C   UNL     1       9.283  10.499  19.552  0.00  0.00    +0.000 A 
ATOM     20  C   UNL     1       9.288  11.086  20.812  0.00  0.00    +0.000 A 
ATOM     21  C   UNL     1       9.542  12.442  20.962  0.00  0.00    +0.000 A 
ATOM     22  C   UNL     1       9.768  13.232  19.836  0.00  0.00    +0.000 A 
BRANCH  20  23
ATOM     23  O   UNL     1       9.034  10.359  21.937  0.00  0.00    +0.000 OA
ATOM     24  H   UNL     1       8.727   9.477  21.667  0.00  0.00    +0.000 HD
ENDBRANCH  20  23
ENDBRANCH  10  17
BRANCH   1  26
ATOM     25  C   UNL     1       4.610  17.452  20.903  0.00  0.00    +0.000 C 
ATOM     26  O   UNL     1       4.719  17.425  19.484  0.00  0.00    +0.000 OA
ENDBRANCH   1  26
BRANCH   9  27
ATOM     27  O   UNL     1       4.568  14.590  18.780  0.00  0.00    +0.000 OA
ATOM     28  C   UNL     1       3.471  14.784  17.901  0.00  0.00    +0.000 C 
ENDBRANCH   9  27
TORSDOF 4
ENDMDL
MODEL 3
REMARK VINA RESULT:      -6.2      2.620      6.937
REMARK  Name = 
REMARK  6 active torsions:
REMARK  status: ('A' for Active; 'I' for Inactive)
REMARK    1  A    between atoms: C_1  and  O_2
REMARK    2  A    between atoms: O_2  and  C_3
REMARK    3  A    between atoms: C_11  and  O_12
REMARK    4  A    between atoms: O_12  and  C_13
REMARK    5  A    between atoms: C_14  and  C_15
REMARK    6  A    between atoms: C_18  and  O_19
REMARK                            x       y       z     vdW  Elec       q    Type
REMARK                         _______ _______ _______ _____ _____    ______ ____
ROOT
ATOM      1  C   UNL     1      -0.373  11.073  21.026  0.00  0.00    +0.000 A 
ATOM      2  C   UNL     1      -0.286  10.531  19.731  0.00  0.00    +0.000 A 
ATOM      3  C   UNL     1      -1.307  10.810  18.815  0.00  0.00    +0.000 A 
ATOM      4  N   UNL     1      -1.479  10.363  17.526  0.00  0.00    +0.000 N 
ATOM      5  C   UNL     1      -2.690  10.776  17.044  0.00  0.00    +0.000 A 
ATOM      6  C   UNL     1      -3.268  11.600  17.995  0.00  0.00    +0.000 A 
ATOM      7  C   UNL     1      -2.401  11.614  19.130  0.00  0.00    +0.000 A 
ATOM      8  C   UNL     1      -2.461  12.173  20.420  0.00  0.00    +0.000 A 
ATOM      9  C   UNL     1      -1.461  11.892  21.374  0.00  0.00    +0.000 A 
ATOM     10  C   UNL     1      -4.625  12.204  17.771  0.00  0.00    +0.000 C 
ATOM     11  C   UNL     1      -5.054  12.047  16.285  0.00  0.00    +0.000 C 
ATOM     12  N   UNL     1      -4.555  10.853  15.598  0.00  0.00    +0.000 N 
ATOM     13  C   UNL     1      -3.289  10.353  15.809  0.00  0.00    +0.000 C 
ATOM     14  O   UNL     1      -2.764   9.577  15.016  0.00  0.00    +0.000 OA
ATOM     15  H   UNL     1      -0.856   9.735  17.033  0.00  0.00    +0.000 HD
ATOM     16  H   UNL     1      -4.958  10.587  14.710  0.00  0.00    +0.000 HD
ENDROOT
BRANCH  10  17
ATOM     17  C   UNL     1      -5.561  11.518  18.753  0.00  0.00    +0.000 A 
ATOM     18  C   UNL     1      -5.991  12.217  19.896  0.00  0.00    +0.000 A 
ATOM     19  C   UNL     1      -6.791  11.594  20.857  0.00  0.00    +0.000 A 
ATOM     20  C   UNL     1      -7.172  10.270  20.676  0.00  0.00    +0.000 A 
ATOM     21  C   UNL     1      -6.794   9.571  19.538  0.00  0.00    +0.000 A 
ATOM     22  C   UNL     1      -6.000  10.194  18.576  0.00  0.00    +0.000 A 
BRANCH  20  23
ATOM     23  O   UNL     1      -7.916   9.610  21.609  0.00  0.00    +0.000 OA
ATOM     24  H   UNL     1      -7.854   8.657  21.429  0.00  0.00    +0.000 HD
ENDBRANCH  20  23
ENDBRANCH  10  17
BRANCH   1  26
ATOM     25  C   UNL     1       0.553   9.444  22.505  0.00  0.00    +0.000 C 
ATOM     26  O   UNL     1       0.558  10.771  21.991  0.00  0.00    +0.000 OA
ENDBRANCH   1  26
BRANCH   9  27
ATOM     27  O   UNL     1      -1.725  12.503  22.576  0.00  0.00    +0.000 OA
ATOM     28  C   UNL     1      -1.353  13.860  22.756  0.00  0.00    +0.000 C 
ENDBRANCH   9  27
TORSDOF 4
ENDMDL
MODEL 4
REMARK VINA RESULT:      -6.1      8.436     10.726
REMARK  Name = 
REMARK  6 active torsions:
REMARK  status: ('A' for Active; 'I' for Inactive)
REMARK    1  A    between atoms: C_1  and  O_2
REMARK    2  A    between atoms: O_2  and  C_3
REMARK    3  A    between atoms: C_11  and  O_12
REMARK    4  A    between atoms: O_12  and  C_13
REMARK    5  A    between atoms: C_14  and  C_15
REMARK    6  A    between atoms: C_18  and  O_19
REMARK                            x       y       z     vdW  Elec       q    Type
REMARK                         _______ _______ _______ _____ _____    ______ ____
ROOT
ATOM      1  C   UNL     1       6.528  12.054  24.001  0.00  0.00    +0.000 A 
ATOM      2  C   UNL     1       7.738  11.535  23.506  0.00  0.00    +0.000 A 
ATOM      3  C   UNL     1       8.497  12.318  22.628  0.00  0.00    +0.000 A 
ATOM      4  N   UNL     1       9.670  12.021  21.974  0.00  0.00    +0.000 N 
ATOM      5  C   UNL     1       9.990  13.027  21.106  0.00  0.00    +0.000 A 
ATOM      6  C   UNL     1       9.069  14.048  21.277  0.00  0.00    +0.000 A 
ATOM      7  C   UNL     1       8.109  13.597  22.234  0.00  0.00    +0.000 A 
ATOM      8  C   UNL     1       6.910  14.115  22.759  0.00  0.00    +0.000 A 
ATOM      9  C   UNL     1       6.111  13.343  23.627  0.00  0.00    +0.000 A 
ATOM     10  C   UNL     1       9.138  15.298  20.447  0.00  0.00    +0.000 C 
ATOM     11  C   UNL     1      10.497  15.381  19.697  0.00  0.00    +0.000 C 
ATOM     12  N   UNL     1      11.097  14.100  19.318  0.00  0.00    +0.000 N 
ATOM     13  C   UNL     1      11.040  12.987  20.127  0.00  0.00    +0.000 C 
ATOM     14  O   UNL     1      11.803  12.039  19.970  0.00  0.00    +0.000 OA
ATOM     15  H   UNL     1      10.175  11.147  22.040  0.00  0.00    +0.000 HD
ATOM     16  H   UNL     1      11.863  14.087  18.657  0.00  0.00    +0.000 HD
ENDROOT
BRANCH  10  17
ATOM     17  C   UNL     1       7.931  15.257  19.522  0.00  0.00    +0.000 A 
ATOM     18  C   UNL     1       6.890  16.185  19.711  0.00  0.00    +0.000 A 
ATOM     19  C   UNL     1       5.734  16.131  18.929  0.00  0.00    +0.000 A 
ATOM     20  C   UNL     1       5.616  15.153  17.949  0.00  0.00    +0.000 A 
ATOM     21  C   UNL     1       6.645  14.252  17.717  0.00  0.00    +0.000 A 
ATOM     22  C   UNL     1       7.802  14.308  18.493  0.00  0.00    +0.000 A 
BRANCH  20  23
ATOM     23  O   UNL     1       4.488  15.037  17.192  0.00  0.00    +0.000 OA
ATOM     24  H   UNL     1       4.657  14.384  16.493  0.00  0.00    +0.000 HD
ENDBRANCH  20  23
ENDBRANCH  10  17
BRANCH   1  26
ATOM     25  C   UNL     1       6.113  11.107  26.152  0.00  0.00    +0.000 C 
ATOM     26  O   UNL     1       5.703  11.303  24.803  0.00  0.00    +0.000 OA
ENDBRANCH   1  26
BRANCH   9  27
ATOM     27  O   UNL     1       4.970  14.016  23.995  0.00  0.00    +0.000 OA
ATOM     28  C   UNL     1       4.557  15.139  23.233  0.00  0.00    +0.000 C 
ENDBRANCH   9  27
TORSDOF 4
ENDMDL
MODEL 5
REMARK VINA RESULT:      -6.1      2.483      6.941
REMARK  Name = 
REMARK  6 active torsions:
REMARK  status: ('A' for Active; 'I' for Inactive)
REMARK    1  A    between atoms: C_1  and  O_2
REMARK    2  A    between atoms: O_2  and  C_3
REMARK    3  A    between atoms: C_11  and  O_12
REMARK    4  A    between atoms: O_12  and  C_13
REMARK    5  A    between atoms: C_14  and  C_15
REMARK    6  A    between atoms: C_18  and  O_19
REMARK                            x       y       z     vdW  Elec       q    Type
REMARK                         _______ _______ _______ _____ _____    ______ ____
ROOT
ATOM      1  C   UNL     1       0.101  10.825  20.788  0.00  0.00    +0.000 A 
ATOM      2  C   UNL     1       0.060  10.219  19.519  0.00  0.00    +0.000 A 
ATOM      3  C   UNL     1      -0.988  10.546  18.650  0.00  0.00    +0.000 A 
ATOM      4  N   UNL     1      -1.276  10.057  17.397  0.00  0.00    +0.000 N 
ATOM      5  C   UNL     1      -2.474  10.555  16.965  0.00  0.00    +0.000 A 
ATOM      6  C   UNL     1      -2.920  11.469  17.905  0.00  0.00    +0.000 A 
ATOM      7  C   UNL     1      -1.986  11.458  18.986  0.00  0.00    +0.000 A 
ATOM      8  C   UNL     1      -1.918  12.078  20.248  0.00  0.00    +0.000 A 
ATOM      9  C   UNL     1      -0.889  11.753  21.155  0.00  0.00    +0.000 A 
ATOM     10  C   UNL     1      -4.231  12.181  17.728  0.00  0.00    +0.000 C 
ATOM     11  C   UNL     1      -4.762  11.995  16.280  0.00  0.00    +0.000 C 
ATOM     12  N   UNL     1      -4.411  10.732  15.627  0.00  0.00    +0.000 N 
ATOM     13  C   UNL     1      -3.183  10.131  15.790  0.00  0.00    +0.000 C 
ATOM     14  O   UNL     1      -2.776   9.276  15.009  0.00  0.00    +0.000 OA
ATOM     15  H   UNL     1      -0.741   9.356  16.903  0.00  0.00    +0.000 HD
ATOM     16  H   UNL     1      -4.890  10.462  14.778  0.00  0.00    +0.000 HD
ENDROOT
BRANCH  10  17
ATOM     17  C   UNL     1      -5.160  11.626  18.796  0.00  0.00    +0.000 A 
ATOM     18  C   UNL     1      -5.821  10.405  18.565  0.00  0.00    +0.000 A 
ATOM     19  C   UNL     1      -6.738   9.901  19.490  0.00  0.00    +0.000 A 
ATOM     20  C   UNL     1      -6.995  10.613  20.655  0.00  0.00    +0.000 A 
ATOM     21  C   UNL     1      -6.328  11.799  20.925  0.00  0.00    +0.000 A 
ATOM     22  C   UNL     1      -5.408  12.300  20.004  0.00  0.00    +0.000 A 
BRANCH  20  23
ATOM     23  O   UNL     1      -7.914  10.180  21.565  0.00  0.00    +0.000 OA
ATOM     24  H   UNL     1      -8.232  10.949  22.066  0.00  0.00    +0.000 HD
ENDBRANCH  20  23
ENDBRANCH  10  17
BRANCH   1  26
ATOM     25  C   UNL     1       0.830   9.313  22.485  0.00  0.00    +0.000 C 
ATOM     26  O   UNL     1       1.060  10.486  21.712  0.00  0.00    +0.000 OA
ENDBRANCH   1  26
BRANCH   9  27
ATOM     27  O   UNL     1      -1.025  12.439  22.339  0.00  0.00    +0.000 OA
ATOM     28  C   UNL     1      -0.565  13.779  22.415  0.00  0.00    +0.000 C 
ENDBRANCH   9  27
TORSDOF 4
ENDMDL
MODEL 6
REMARK VINA RESULT:      -6.1      2.320      3.207
REMARK  Name = 
REMARK  6 active torsions:
REMARK  status: ('A' for Active; 'I' for Inactive)
REMARK    1  A    between atoms: C_1  and  O_2
REMARK    2  A    between atoms: O_2  and  C_3
REMARK    3  A    between atoms: C_11  and  O_12
REMARK    4  A    between atoms: O_12  and  C_13
REMARK    5  A    between atoms: C_14  and  C_15
REMARK    6  A    between atoms: C_18  and  O_19
REMARK                            x       y       z     vdW  Elec       q    Type
REMARK                         _______ _______ _______ _____ _____    ______ ____
ROOT
ATOM      1  C   UNL     1      -5.595  11.609  19.190  0.00  0.00    +0.000 A 
ATOM      2  C   UNL     1      -5.778  12.252  20.427  0.00  0.00    +0.000 A 
ATOM      3  C   UNL     1      -4.662  12.794  21.076  0.00  0.00    +0.000 A 
ATOM      4  N   UNL     1      -4.571  13.414  22.300  0.00  0.00    +0.000 N 
ATOM      5  C   UNL     1      -3.261  13.663  22.602  0.00  0.00    +0.000 A 
ATOM      6  C   UNL     1      -2.494  13.300  21.509  0.00  0.00    +0.000 A 
ATOM      7  C   UNL     1      -3.377  12.732  20.540  0.00  0.00    +0.000 A 
ATOM      8  C   UNL     1      -3.213  12.111  19.287  0.00  0.00    +0.000 A 
ATOM      9  C   UNL     1      -4.313  11.535  18.619  0.00  0.00    +0.000 A 
ATOM     10  C   UNL     1      -0.998  13.434  21.535  0.00  0.00    +0.000 C 
ATOM     11  C   UNL     1      -0.549  14.300  22.745  0.00  0.00    +0.000 C 
ATOM     12  N   UNL     1      -1.395  14.220  23.938  0.00  0.00    +0.000 N 
ATOM     13  C   UNL     1      -2.768  14.132  23.867  0.00  0.00    +0.000 C 
ATOM     14  O   UNL     1      -3.479  14.393  24.833  0.00  0.00    +0.000 OA
ATOM     15  H   UNL     1      -5.341  13.575  22.936  0.00  0.00    +0.000 HD
ATOM     16  H   UNL     1      -1.053  14.588  24.815  0.00  0.00    +0.000 HD
ENDROOT
BRANCH  10  17
ATOM     17  C   UNL     1      -0.447  12.017  21.560  0.00  0.00    +0.000 A 
ATOM     18  C   UNL     1       0.310  11.554  20.468  0.00  0.00    +0.000 A 
ATOM     19  C   UNL     1       0.769  10.236  20.423  0.00  0.00    +0.000 A 
ATOM     20  C   UNL     1       0.480   9.374  21.474  0.00  0.00    +0.000 A 
ATOM     21  C   UNL     1      -0.231   9.817  22.581  0.00  0.00    +0.000 A 
ATOM     22  C   UNL     1      -0.685  11.134  22.628  0.00  0.00    +0.000 A 
BRANCH  20  23
ATOM     23  O   UNL     1       0.872   8.069  21.452  0.00  0.00    +0.000 OA
ATOM     24  H   UNL     1       0.419   7.628  20.714  0.00  0.00    +0.000 HD
ENDBRANCH  20  23
ENDBRANCH  10  17
BRANCH   1  26
ATOM     25  C   UNL     1      -7.053   9.725  19.043  0.00  0.00    +0.000 C 
ATOM     26  O   UNL     1      -6.639  10.992  18.544  0.00  0.00    +0.000 OA
ENDBRANCH   1  26
BRANCH   9  27
ATOM     27  O   UNL     1      -3.933  10.950  17.435  0.00  0.00    +0.000 OA
ATOM     28  C   UNL     1      -2.840  10.045  17.432  0.00  0.00    +0.000 C 
ENDBRANCH   9  27
TORSDOF 4
ENDMDL
MODEL 7
REMARK VINA RESULT:      -6.0      3.328      5.537
REMARK  Name = 
REMARK  6 active torsions:
REMARK  status: ('A' for Active; 'I' for Inactive)
REMARK    1  A    between atoms: C_1  and  O_2
REMARK    2  A    between atoms: O_2  and  C_3
REMARK    3  A    between atoms: C_11  and  O_12
REMARK    4  A    between atoms: O_12  and  C_13
REMARK    5  A    between atoms: C_14  and  C_15
REMARK    6  A    between atoms: C_18  and  O_19
REMARK                            x       y       z     vdW  Elec       q    Type
REMARK                         _______ _______ _______ _____ _____    ______ ____
ROOT
ATOM      1  C   UNL     1      -6.869  13.535  19.547  0.00  0.00    +0.000 A 
ATOM      2  C   UNL     1      -6.715  13.098  18.220  0.00  0.00    +0.000 A 
ATOM      3  C   UNL     1      -5.601  12.315  17.893  0.00  0.00    +0.000 A 
ATOM      4  N   UNL     1      -5.202  11.817  16.675  0.00  0.00    +0.000 N 
ATOM      5  C   UNL     1      -3.977  11.222  16.791  0.00  0.00    +0.000 A 
ATOM      6  C   UNL     1      -3.622  11.234  18.130  0.00  0.00    +0.000 A 
ATOM      7  C   UNL     1      -4.644  11.941  18.834  0.00  0.00    +0.000 A 
ATOM      8  C   UNL     1      -4.825  12.362  20.165  0.00  0.00    +0.000 A 
ATOM      9  C   UNL     1      -5.924  13.170  20.522  0.00  0.00    +0.000 A 
ATOM     10  C   UNL     1      -2.308  10.666  18.586  0.00  0.00    +0.000 C 
ATOM     11  C   UNL     1      -1.654   9.827  17.453  0.00  0.00    +0.000 C 
ATOM     12  N   UNL     1      -1.935  10.269  16.085  0.00  0.00    +0.000 N 
ATOM     13  C   UNL     1      -3.167  10.752  15.702  0.00  0.00    +0.000 C 
ATOM     14  O   UNL     1      -3.497  10.808  14.521  0.00  0.00    +0.000 OA
ATOM     15  H   UNL     1      -5.686  11.954  15.797  0.00  0.00    +0.000 HD
ATOM     16  H   UNL     1      -1.384   9.902  15.321  0.00  0.00    +0.000 HD
ENDROOT
BRANCH  10  17
ATOM     17  C   UNL     1      -1.467  11.852  19.031  0.00  0.00    +0.000 A 
ATOM     18  C   UNL     1      -1.170  12.009  20.398  0.00  0.00    +0.000 A 
ATOM     19  C   UNL     1      -0.463  13.124  20.853  0.00  0.00    +0.000 A 
ATOM     20  C   UNL     1      -0.043  14.086  19.943  0.00  0.00    +0.000 A 
ATOM     21  C   UNL     1      -0.289  13.935  18.585  0.00  0.00    +0.000 A 
ATOM     22  C   UNL     1      -0.990  12.819  18.130  0.00  0.00    +0.000 A 
BRANCH  20  23
ATOM     23  O   UNL     1       0.612  15.211  20.348  0.00  0.00    +0.000 OA
ATOM     24  H   UNL     1       1.199  15.498  19.628  0.00  0.00    +0.000 HD
ENDBRANCH  20  23
ENDBRANCH  10  17
BRANCH   1  26
ATOM     25  C   UNL     1      -7.766  15.747  19.582  0.00  0.00    +0.000 C 
ATOM     26  O   UNL     1      -7.900  14.368  19.910  0.00  0.00    +0.000 OA
ENDBRANCH   1  26
BRANCH   9  27
ATOM     27  O   UNL     1      -5.896  13.500  21.856  0.00  0.00    +0.000 OA
ATOM     28  C   UNL     1      -6.730  12.790  22.758  0.00  0.00    +0.000 C 
ENDBRANCH   9  27
TORSDOF 4
ENDMDL
MODEL 8
REMARK VINA RESULT:      -6.0      2.178      2.858
REMARK  Name = 
REMARK  6 active torsions:
REMARK  status: ('A' for Active; 'I' for Inactive)
REMARK    1  A    between atoms: C_1  and  O_2
REMARK    2  A    between atoms: O_2  and  C_3
REMARK    3  A    between atoms: C_11  and  O_12
REMARK    4  A    between atoms: O_12  and  C_13
REMARK    5  A    between atoms: C_14  and  C_15
REMARK    6  A    between atoms: C_18  and  O_19
REMARK                            x       y       z     vdW  Elec       q    Type
REMARK                         _______ _______ _______ _____ _____    ______ ____
ROOT
ATOM      1  C   UNL     1      -5.391  11.587  18.926  0.00  0.00    +0.000 A 
ATOM      2  C   UNL     1      -5.596  12.225  20.162  0.00  0.00    +0.000 A 
ATOM      3  C   UNL     1      -4.489  12.747  20.843  0.00  0.00    +0.000 A 
ATOM      4  N   UNL     1      -4.420  13.359  22.073  0.00  0.00    +0.000 N 
ATOM      5  C   UNL     1      -3.116  13.588  22.409  0.00  0.00    +0.000 A 
ATOM      6  C   UNL     1      -2.326  13.221  21.332  0.00  0.00    +0.000 A 
ATOM      7  C   UNL     1      -3.192  12.671  20.338  0.00  0.00    +0.000 A 
ATOM      8  C   UNL     1      -3.005  12.055  19.086  0.00  0.00    +0.000 A 
ATOM      9  C   UNL     1      -4.095  11.499  18.387  0.00  0.00    +0.000 A 
ATOM     10  C   UNL     1      -0.830  13.334  21.397  0.00  0.00    +0.000 C 
ATOM     11  C   UNL     1      -0.400  14.187  22.623  0.00  0.00    +0.000 C 
ATOM     12  N   UNL     1      -1.276  14.111  23.794  0.00  0.00    +0.000 N 
ATOM     13  C   UNL     1      -2.648  14.043  23.689  0.00  0.00    +0.000 C 
ATOM     14  O   UNL     1      -3.380  14.308  24.638  0.00  0.00    +0.000 OA
ATOM     15  H   UNL     1      -5.204  13.526  22.690  0.00  0.00    +0.000 HD
ATOM     16  H   UNL     1      -0.951  14.470  24.682  0.00  0.00    +0.000 HD
ENDROOT
BRANCH  10  17
ATOM     17  C   UNL     1      -0.299  11.910  21.427  0.00  0.00    +0.000 A 
ATOM     18  C   UNL     1      -0.548  11.107  22.556  0.00  0.00    +0.000 A 
ATOM     19  C   UNL     1      -0.014   9.820  22.651  0.00  0.00    +0.000 A 
ATOM     20  C   UNL     1       0.768   9.326  21.614  0.00  0.00    +0.000 A 
ATOM     21  C   UNL     1       0.995  10.082  20.473  0.00  0.00    +0.000 A 
ATOM     22  C   UNL     1       0.458  11.365  20.375  0.00  0.00    +0.000 A 
BRANCH  20  23
ATOM     23  O   UNL     1       1.344   8.092  21.683  0.00  0.00    +0.000 OA
ATOM     24  H   UNL     1       2.295   8.209  21.845  0.00  0.00    +0.000 HD
ENDBRANCH  20  23
ENDBRANCH  10  17
BRANCH   1  26
ATOM     25  C   UNL     1      -7.074   9.895  18.892  0.00  0.00    +0.000 C 
ATOM     26  O   UNL     1      -6.426  10.988  18.250  0.00  0.00    +0.000 OA
ENDBRANCH   1  26
BRANCH   9  27
ATOM     27  O   UNL     1      -3.695  10.915  17.209  0.00  0.00    +0.000 OA
ATOM     28  C   UNL     1      -2.314  10.666  16.999  0.00  0.00    +0.000 C 
ENDBRANCH   9  27
TORSDOF 4
ENDMDL
MODEL 9
REMARK VINA RESULT:      -6.0      1.116      1.612
REMARK  Name = 
REMARK  6 active torsions:
REMARK  status: ('A' for Active; 'I' for Inactive)
REMARK    1  A    between atoms: C_1  and  O_2
REMARK    2  A    between atoms: O_2  and  C_3
REMARK    3  A    between atoms: C_11  and  O_12
REMARK    4  A    between atoms: O_12  and  C_13
REMARK    5  A    between atoms: C_14  and  C_15
REMARK    6  A    between atoms: C_18  and  O_19
REMARK                            x       y       z     vdW  Elec       q    Type
REMARK                         _______ _______ _______ _____ _____    ______ ____
ROOT
ATOM      1  C   UNL     1      -4.649  11.308  18.386  0.00  0.00    +0.000 A 
ATOM      2  C   UNL     1      -4.589  12.218  19.456  0.00  0.00    +0.000 A 
ATOM      3  C   UNL     1      -3.337  12.684  19.875  0.00  0.00    +0.000 A 
ATOM      4  N   UNL     1      -3.013  13.522  20.916  0.00  0.00    +0.000 N 
ATOM      5  C   UNL     1      -1.655  13.600  21.049  0.00  0.00    +0.000 A 
ATOM      6  C   UNL     1      -1.082  12.888  20.008  0.00  0.00    +0.000 A 
ATOM      7  C   UNL     1      -2.147  12.291  19.266  0.00  0.00    +0.000 A 
ATOM      8  C   UNL     1      -2.223  11.401  18.178  0.00  0.00    +0.000 A 
ATOM      9  C   UNL     1      -3.467  10.896  17.746  0.00  0.00    +0.000 A 
ATOM     10  C   UNL     1       0.410  12.766  19.885  0.00  0.00    +0.000 C 
ATOM     11  C   UNL     1       1.120  13.776  20.828  0.00  0.00    +0.000 C 
ATOM     12  N   UNL     1       0.415  14.095  22.071  0.00  0.00    +0.000 N 
ATOM     13  C   UNL     1      -0.954  14.232  22.132  0.00  0.00    +0.000 C 
ATOM     14  O   UNL     1      -1.502  14.809  23.067  0.00  0.00    +0.000 OA
ATOM     15  H   UNL     1      -3.672  13.943  21.558  0.00  0.00    +0.000 HD
ATOM     16  H   UNL     1       0.908  14.575  22.813  0.00  0.00    +0.000 HD
ENDROOT
BRANCH  10  17
ATOM     17  C   UNL     1       0.741  11.312  20.186  0.00  0.00    +0.000 A 
ATOM     18  C   UNL     1       1.171  10.475  19.140  0.00  0.00    +0.000 A 
ATOM     19  C   UNL     1       1.413   9.118  19.364  0.00  0.00    +0.000 A 
ATOM     20  C   UNL     1       1.232   8.591  20.638  0.00  0.00    +0.000 A 
ATOM     21  C   UNL     1       0.847   9.405  21.694  0.00  0.00    +0.000 A 
ATOM     22  C   UNL     1       0.610  10.761  21.472  0.00  0.00    +0.000 A 
BRANCH  20  23
ATOM     23  O   UNL     1       1.415   7.265  20.892  0.00  0.00    +0.000 OA
ATOM     24  H   UNL     1       1.920   6.880  20.155  0.00  0.00    +0.000 HD
ENDBRANCH  20  23
ENDBRANCH  10  17
BRANCH   1  26
ATOM     25  C   UNL     1      -6.721  10.296  19.000  0.00  0.00    +0.000 C 
ATOM     26  O   UNL     1      -5.841  10.758  17.981  0.00  0.00    +0.000 OA
ENDBRANCH   1  26
BRANCH   9  27
ATOM     27  O   UNL     1      -3.319  10.019  16.699  0.00  0.00    +0.000 OA
ATOM     28  C   UNL     1      -2.915  10.518  15.434  0.00  0.00    +0.000 C 
ENDBRANCH   9  27
TORSDOF 4
ENDMDL
