MODEL 1
REMARK VINA RESULT:      -5.7      0.000      0.000
REMARK  Name = 
REMARK  14 active torsions:
REMARK  status: ('A' for Active; 'I' for Inactive)
REMARK    1  A    between atoms: C_1  and  C_2
REMARK    2  A    between atoms: C_2  and  O_3
REMARK    3  A    between atoms: O_3  and  C_4
REMARK    4  A    between atoms: C_9  and  N_10
REMARK    5  A    between atoms: N_10  and  C_11
REMARK    6  A    between atoms: C_11  and  C_12
REMARK    7  A    between atoms: C_12  and  N_13
REMARK    8  A    between atoms: N_13  and  C_14
REMARK    9  A    between atoms: N_13  and  C_15
REMARK   10  A    between atoms: C_16  and  S_17
REMARK   11  A    between atoms: N_18  and  C_19
REMARK   12  A    between atoms: C_24  and  O_25
REMARK   13  A    between atoms: O_25  and  C_26
REMARK   14  A    between atoms: C_26  and  C_27
REMARK                            x       y       z     vdW  Elec       q    Type
REMARK                         _______ _______ _______ _____ _____    ______ ____
ROOT
ATOM      1  N   UNL     1      -1.198  11.287  20.505  0.00  0.00    +0.000 N 
ATOM      2  C   UNL     1      -1.586  11.433  19.161  0.00  0.00    +0.000 C 
ATOM      3  N   UNL     1      -2.340  10.525  18.595  0.00  0.00    +0.000 NA
ENDROOT
BRANCH   1   9
ATOM      4  C   UNL     1      -4.467  12.785  24.105  0.00  0.00    +0.000 C 
ATOM      5  O   UNL     1      -4.517  12.237  25.199  0.00  0.00    +0.000 OA
ATOM      6  N   UNL     1      -3.431  12.619  23.199  0.00  0.00    +0.000 N 
ATOM      7  C   UNL     1      -2.387  11.653  23.490  0.00  0.00    +0.000 C 
ATOM      8  C   UNL     1      -1.041  12.114  22.933  0.00  0.00    +0.000 C 
ATOM      9  C   UNL     1      -1.086  12.460  21.428  0.00  0.00    +0.000 C 
ATOM     10  C   UNL     1      -2.240  13.478  21.238  0.00  0.00    +0.000 C 
ATOM     11  C   UNL     1      -3.566  12.984  21.799  0.00  0.00    +0.000 C 
BRANCH   4  12
ATOM     12  O   UNL     1      -5.440  13.612  23.631  0.00  0.00    +0.000 OA
BRANCH  12  14
ATOM     13  C   UNL     1      -7.678  13.626  24.453  0.00  0.00    +0.000 C 
ATOM     14  C   UNL     1      -6.733  13.023  23.430  0.00  0.00    +0.000 C 
ENDBRANCH  12  14
ENDBRANCH   4  12
ENDBRANCH   1   9
BRANCH   3  15
ATOM     15  C   UNL     1      -2.768  10.545  17.245  0.00  0.00    +0.000 A 
ATOM     16  C   UNL     1      -2.135   9.718  16.298  0.00  0.00    +0.000 A 
ATOM     17  C   UNL     1      -2.536   9.664  14.959  0.00  0.00    +0.000 A 
ATOM     18  C   UNL     1      -3.646  10.380  14.544  0.00  0.00    +0.000 A 
ATOM     19  C   UNL     1      -4.332  11.154  15.470  0.00  0.00    +0.000 A 
ATOM     20  C   UNL     1      -3.915  11.250  16.812  0.00  0.00    +0.000 A 
BRANCH  20  21
ATOM     21  O   UNL     1      -4.770  12.051  17.516  0.00  0.00    +0.000 OA
BRANCH  21  22
ATOM     22  C   UNL     1      -6.165  11.795  17.503  0.00  0.00    +0.000 C 
ATOM     23  C   UNL     1      -6.843  13.117  17.166  0.00  0.00    +0.000 C 
ENDBRANCH  21  22
ENDBRANCH  20  21
ENDBRANCH   3  15
BRANCH   2  24
ATOM     24  S   UNL     1      -0.924  12.840  18.307  0.00  0.00    +0.000 S 
ATOM     25  H   UNL     1       0.341  12.655  18.707  0.00  0.00    +0.000 HD
ENDBRANCH   2  24
BRANCH   1  26
ATOM     26  C   UNL     1      -0.380  10.069  20.781  0.00  0.00    +0.000 C 
BRANCH  26  27
ATOM     27  C   UNL     1       0.975  10.068  20.016  0.00  0.00    +0.000 C 
BRANCH  27  28
ATOM     28  N   UNL     1       1.279   8.951  19.099  0.00  0.00    +0.000 NA
ATOM     29  C   UNL     1       1.942   9.364  17.866  0.00  0.00    +0.000 C 
ATOM     30  C   UNL     1       2.015   7.863  19.743  0.00  0.00    +0.000 C 
ENDBRANCH  27  28
ENDBRANCH  26  27
ENDBRANCH   1  26
TORSDOF 10
ENDMDL
MODEL 2
REMARK VINA RESULT:      -5.7      2.811      6.892
REMARK  Name = 
REMARK  14 active torsions:
REMARK  status: ('A' for Active; 'I' for Inactive)
REMARK    1  A    between atoms: C_1  and  C_2
REMARK    2  A    between atoms: C_2  and  O_3
REMARK    3  A    between atoms: O_3  and  C_4
REMARK    4  A    between atoms: C_9  and  N_10
REMARK    5  A    between atoms: N_10  and  C_11
REMARK    6  A    between atoms: C_11  and  C_12
REMARK    7  A    between atoms: C_12  and  N_13
REMARK    8  A    between atoms: N_13  and  C_14
REMARK    9  A    between atoms: N_13  and  C_15
REMARK   10  A    between atoms: C_16  and  S_17
REMARK   11  A    between atoms: N_18  and  C_19
REMARK   12  A    between atoms: C_24  and  O_25
REMARK   13  A    between atoms: O_25  and  C_26
REMARK   14  A    between atoms: C_26  and  C_27
REMARK                            x       y       z     vdW  Elec       q    Type
REMARK                         _______ _______ _______ _____ _____    ______ ____
ROOT
ATOM      1  N   UNL     1      -1.661  12.017  19.463  0.00  0.00    +0.000 N 
ATOM      2  C   UNL     1      -2.741  12.706  20.040  0.00  0.00    +0.000 C 
ATOM      3  N   UNL     1      -3.947  12.197  19.985  0.00  0.00    +0.000 NA
ENDROOT
BRANCH   1   9
ATOM      4  C   UNL     1       1.929   8.422  19.174  0.00  0.00    +0.000 C 
ATOM      5  O   UNL     1       2.646   8.304  18.189  0.00  0.00    +0.000 OA
ATOM      6  N   UNL     1       1.140   9.531  19.433  0.00  0.00    +0.000 N 
ATOM      7  C   UNL     1       1.050  10.583  18.436  0.00  0.00    +0.000 C 
ATOM      8  C   UNL     1       0.881  11.951  19.093  0.00  0.00    +0.000 C 
ATOM      9  C   UNL     1      -0.299  12.014  20.087  0.00  0.00    +0.000 C 
ATOM     10  C   UNL     1      -0.107  10.843  21.085  0.00  0.00    +0.000 C 
ATOM     11  C   UNL     1       0.052   9.495  20.397  0.00  0.00    +0.000 C 
BRANCH   4  12
ATOM     12  O   UNL     1       1.799   7.461  20.130  0.00  0.00    +0.000 OA
BRANCH  12  14
ATOM     13  C   UNL     1       1.648   5.135  20.633  0.00  0.00    +0.000 C 
ATOM     14  C   UNL     1       2.397   6.189  19.840  0.00  0.00    +0.000 C 
ENDBRANCH  12  14
ENDBRANCH   4  12
ENDBRANCH   1   9
BRANCH   3  15
ATOM     15  C   UNL     1      -5.116  12.810  20.500  0.00  0.00    +0.000 A 
ATOM     16  C   UNL     1      -6.075  13.340  19.616  0.00  0.00    +0.000 A 
ATOM     17  C   UNL     1      -7.265  13.923  20.061  0.00  0.00    +0.000 A 
ATOM     18  C   UNL     1      -7.573  13.915  21.411  0.00  0.00    +0.000 A 
ATOM     19  C   UNL     1      -6.678  13.339  22.302  0.00  0.00    +0.000 A 
ATOM     20  C   UNL     1      -5.456  12.786  21.873  0.00  0.00    +0.000 A 
BRANCH  20  21
ATOM     21  O   UNL     1      -4.773  12.266  22.937  0.00  0.00    +0.000 OA
BRANCH  21  22
ATOM     22  C   UNL     1      -4.910  12.842  24.225  0.00  0.00    +0.000 C 
ATOM     23  C   UNL     1      -3.596  13.555  24.520  0.00  0.00    +0.000 C 
ENDBRANCH  21  22
ENDBRANCH  20  21
ENDBRANCH   3  15
BRANCH   2  24
ATOM     24  S   UNL     1      -2.371  14.294  20.737  0.00  0.00    +0.000 S 
ATOM     25  H   UNL     1      -1.131  14.374  20.235  0.00  0.00    +0.000 HD
ENDBRANCH   2  24
BRANCH   1  26
ATOM     26  C   UNL     1      -1.780  11.805  17.989  0.00  0.00    +0.000 C 
BRANCH  26  27
ATOM     27  C   UNL     1      -2.461  10.453  17.629  0.00  0.00    +0.000 C 
BRANCH  27  28
ATOM     28  N   UNL     1      -3.466  10.422  16.548  0.00  0.00    +0.000 NA
ATOM     29  C   UNL     1      -4.517  11.425  16.691  0.00  0.00    +0.000 C 
ATOM     30  C   UNL     1      -2.875  10.480  15.212  0.00  0.00    +0.000 C 
ENDBRANCH  27  28
ENDBRANCH  26  27
ENDBRANCH   1  26
TORSDOF 10
ENDMDL
MODEL 3
REMARK VINA RESULT:      -5.5      7.844     12.863
REMARK  Name = 
REMARK  14 active torsions:
REMARK  status: ('A' for Active; 'I' for Inactive)
REMARK    1  A    between atoms: C_1  and  C_2
REMARK    2  A    between atoms: C_2  and  O_3
REMARK    3  A    between atoms: O_3  and  C_4
REMARK    4  A    between atoms: C_9  and  N_10
REMARK    5  A    between atoms: N_10  and  C_11
REMARK    6  A    between atoms: C_11  and  C_12
REMARK    7  A    between atoms: C_12  and  N_13
REMARK    8  A    between atoms: N_13  and  C_14
REMARK    9  A    between atoms: N_13  and  C_15
REMARK   10  A    between atoms: C_16  and  S_17
REMARK   11  A    between atoms: N_18  and  C_19
REMARK   12  A    between atoms: C_24  and  O_25
REMARK   13  A    between atoms: O_25  and  C_26
REMARK   14  A    between atoms: C_26  and  C_27
REMARK                            x       y       z     vdW  Elec       q    Type
REMARK                         _______ _______ _______ _____ _____    ______ ____
ROOT
ATOM      1  N   UNL     1       5.435   5.296  16.609  0.00  0.00    +0.000 N 
ATOM      2  C   UNL     1       4.576   4.794  17.603  0.00  0.00    +0.000 C 
ATOM      3  N   UNL     1       3.285   4.991  17.512  0.00  0.00    +0.000 NA
ENDROOT
BRANCH   1   9
ATOM      4  C   UNL     1       6.492   3.526  11.957  0.00  0.00    +0.000 C 
ATOM      5  O   UNL     1       6.913   4.257  11.070  0.00  0.00    +0.000 OA
ATOM      6  N   UNL     1       6.453   3.875  13.298  0.00  0.00    +0.000 N 
ATOM      7  C   UNL     1       6.820   5.225  13.688  0.00  0.00    +0.000 C 
ATOM      8  C   UNL     1       7.486   5.238  15.062  0.00  0.00    +0.000 C 
ATOM      9  C   UNL     1       6.648   4.543  16.158  0.00  0.00    +0.000 C 
ATOM     10  C   UNL     1       6.304   3.128  15.626  0.00  0.00    +0.000 C 
ATOM     11  C   UNL     1       5.637   3.151  14.259  0.00  0.00    +0.000 C 
BRANCH   4  12
ATOM     12  O   UNL     1       5.985   2.283  11.732  0.00  0.00    +0.000 OA
BRANCH  12  14
ATOM     13  C   UNL     1       6.227  -0.029  11.199  0.00  0.00    +0.000 C 
ATOM     14  C   UNL     1       6.859   1.346  11.086  0.00  0.00    +0.000 C 
ENDBRANCH  12  14
ENDBRANCH   4  12
ENDBRANCH   1   9
BRANCH   3  15
ATOM     15  C   UNL     1       2.326   4.563  18.463  0.00  0.00    +0.000 A 
ATOM     16  C   UNL     1       1.693   3.314  18.305  0.00  0.00    +0.000 A 
ATOM     17  C   UNL     1       0.767   2.819  19.227  0.00  0.00    +0.000 A 
ATOM     18  C   UNL     1       0.506   3.527  20.389  0.00  0.00    +0.000 A 
ATOM     19  C   UNL     1       1.164   4.730  20.605  0.00  0.00    +0.000 A 
ATOM     20  C   UNL     1       2.069   5.261  19.666  0.00  0.00    +0.000 A 
BRANCH  20  21
ATOM     21  O   UNL     1       2.594   6.436  20.127  0.00  0.00    +0.000 OA
BRANCH  21  22
ATOM     22  C   UNL     1       2.087   7.677  19.665  0.00  0.00    +0.000 C 
ATOM     23  C   UNL     1       1.373   8.317  20.850  0.00  0.00    +0.000 C 
ENDBRANCH  21  22
ENDBRANCH  20  21
ENDBRANCH   3  15
BRANCH   2  24
ATOM     24  S   UNL     1       5.359   3.989  18.976  0.00  0.00    +0.000 S 
ATOM     25  H   UNL     1       6.569   3.905  18.408  0.00  0.00    +0.000 HD
ENDBRANCH   2  24
BRANCH   1  26
ATOM     26  C   UNL     1       5.414   6.783  16.468  0.00  0.00    +0.000 C 
BRANCH  26  27
ATOM     27  C   UNL     1       6.088   7.510  17.667  0.00  0.00    +0.000 C 
BRANCH  27  28
ATOM     28  N   UNL     1       7.562   7.528  17.756  0.00  0.00    +0.000 NA
ATOM     29  C   UNL     1       8.127   8.867  17.900  0.00  0.00    +0.000 C 
ATOM     30  C   UNL     1       8.088   6.632  18.784  0.00  0.00    +0.000 C 
ENDBRANCH  27  28
ENDBRANCH  26  27
ENDBRANCH   1  26
TORSDOF 10
ENDMDL
MODEL 4
REMARK VINA RESULT:      -5.5      2.853      7.071
REMARK  Name = 
REMARK  14 active torsions:
REMARK  status: ('A' for Active; 'I' for Inactive)
REMARK    1  A    between atoms: C_1  and  C_2
REMARK    2  A    between atoms: C_2  and  O_3
REMARK    3  A    between atoms: O_3  and  C_4
REMARK    4  A    between atoms: C_9  and  N_10
REMARK    5  A    between atoms: N_10  and  C_11
REMARK    6  A    between atoms: C_11  and  C_12
REMARK    7  A    between atoms: C_12  and  N_13
REMARK    8  A    between atoms: N_13  and  C_14
REMARK    9  A    between atoms: N_13  and  C_15
REMARK   10  A    between atoms: C_16  and  S_17
REMARK   11  A    between atoms: N_18  and  C_19
REMARK   12  A    between atoms: C_24  and  O_25
REMARK   13  A    between atoms: O_25  and  C_26
REMARK   14  A    between atoms: C_26  and  C_27
REMARK                            x       y       z     vdW  Elec       q    Type
REMARK                         _______ _______ _______ _____ _____    ______ ____
ROOT
ATOM      1  N   UNL     1      -0.900  11.880  19.160  0.00  0.00    +0.000 N 
ATOM      2  C   UNL     1      -1.784  12.686  19.898  0.00  0.00    +0.000 C 
ATOM      3  N   UNL     1      -3.012  12.286  20.112  0.00  0.00    +0.000 NA
ENDROOT
BRANCH   1   9
ATOM      4  C   UNL     1       2.052   7.735  19.202  0.00  0.00    +0.000 C 
ATOM      5  O   UNL     1       2.511   7.261  18.171  0.00  0.00    +0.000 OA
ATOM      6  N   UNL     1       1.487   8.998  19.292  0.00  0.00    +0.000 N 
ATOM      7  C   UNL     1       1.311   9.781  18.081  0.00  0.00    +0.000 C 
ATOM      8  C   UNL     1       1.467  11.273  18.365  0.00  0.00    +0.000 C 
ATOM      9  C   UNL     1       0.554  11.781  19.502  0.00  0.00    +0.000 C 
ATOM     10  C   UNL     1       0.815  10.866  20.727  0.00  0.00    +0.000 C 
ATOM     11  C   UNL     1       0.645   9.388  20.411  0.00  0.00    +0.000 C 
BRANCH   4  12
ATOM     12  O   UNL     1       2.018   7.069  20.389  0.00  0.00    +0.000 OA
BRANCH  12  14
ATOM     13  C   UNL     1       2.450   4.800  20.981  0.00  0.00    +0.000 C 
ATOM     14  C   UNL     1       1.444   5.755  20.365  0.00  0.00    +0.000 C 
ENDBRANCH  12  14
ENDBRANCH   4  12
ENDBRANCH   1   9
BRANCH   3  15
ATOM     15  C   UNL     1      -4.001  13.022  20.811  0.00  0.00    +0.000 A 
ATOM     16  C   UNL     1      -4.890  13.849  20.099  0.00  0.00    +0.000 A 
ATOM     17  C   UNL     1      -5.911  14.571  20.726  0.00  0.00    +0.000 A 
ATOM     18  C   UNL     1      -6.127  14.418  22.085  0.00  0.00    +0.000 A 
ATOM     19  C   UNL     1      -5.308  13.557  22.803  0.00  0.00    +0.000 A 
ATOM     20  C   UNL     1      -4.250  12.855  22.193  0.00  0.00    +0.000 A 
BRANCH  20  21
ATOM     21  O   UNL     1      -3.618  12.063  23.109  0.00  0.00    +0.000 OA
BRANCH  21  22
ATOM     22  C   UNL     1      -2.294  12.360  23.520  0.00  0.00    +0.000 C 
ATOM     23  C   UNL     1      -1.456  11.128  23.200  0.00  0.00    +0.000 C 
ENDBRANCH  21  22
ENDBRANCH  20  21
ENDBRANCH   3  15
BRANCH   2  24
ATOM     24  S   UNL     1      -1.156  14.263  20.413  0.00  0.00    +0.000 S 
ATOM     25  H   UNL     1       0.059  13.816  20.756  0.00  0.00    +0.000 HD
ENDBRANCH   2  24
BRANCH   1  26
ATOM     26  C   UNL     1      -1.331  11.618  17.754  0.00  0.00    +0.000 C 
BRANCH  26  27
ATOM     27  C   UNL     1      -2.189  10.327  17.619  0.00  0.00    +0.000 C 
BRANCH  27  28
ATOM     28  N   UNL     1      -3.278  10.292  16.622  0.00  0.00    +0.000 NA
ATOM     29  C   UNL     1      -4.367  11.221  16.905  0.00  0.00    +0.000 C 
ATOM     30  C   UNL     1      -2.805  10.453  15.248  0.00  0.00    +0.000 C 
ENDBRANCH  27  28
ENDBRANCH  26  27
ENDBRANCH   1  26
TORSDOF 10
ENDMDL
MODEL 5
REMARK VINA RESULT:      -5.4      4.945      8.676
REMARK  Name = 
REMARK  14 active torsions:
REMARK  status: ('A' for Active; 'I' for Inactive)
REMARK    1  A    between atoms: C_1  and  C_2
REMARK    2  A    between atoms: C_2  and  O_3
REMARK    3  A    between atoms: O_3  and  C_4
REMARK    4  A    between atoms: C_9  and  N_10
REMARK    5  A    between atoms: N_10  and  C_11
REMARK    6  A    between atoms: C_11  and  C_12
REMARK    7  A    between atoms: C_12  and  N_13
REMARK    8  A    between atoms: N_13  and  C_14
REMARK    9  A    between atoms: N_13  and  C_15
REMARK   10  A    between atoms: C_16  and  S_17
REMARK   11  A    between atoms: N_18  and  C_19
REMARK   12  A    between atoms: C_24  and  O_25
REMARK   13  A    between atoms: O_25  and  C_26
REMARK   14  A    between atoms: C_26  and  C_27
REMARK                            x       y       z     vdW  Elec       q    Type
REMARK                         _______ _______ _______ _____ _____    ______ ____
ROOT
ATOM      1  N   UNL     1       0.892  11.265  19.829  0.00  0.00    +0.000 N 
ATOM      2  C   UNL     1       0.904  12.507  19.170  0.00  0.00    +0.000 C 
ATOM      3  N   UNL     1       1.943  13.296  19.279  0.00  0.00    +0.000 NA
ENDROOT
BRANCH   1   9
ATOM      4  C   UNL     1       3.077   6.785  18.804  0.00  0.00    +0.000 C 
ATOM      5  O   UNL     1       3.271   5.948  19.676  0.00  0.00    +0.000 OA
ATOM      6  N   UNL     1       2.248   7.886  18.954  0.00  0.00    +0.000 N 
ATOM      7  C   UNL     1       1.653   8.150  20.252  0.00  0.00    +0.000 C 
ATOM      8  C   UNL     1       0.272   8.786  20.104  0.00  0.00    +0.000 C 
ATOM      9  C   UNL     1       0.270  10.049  19.215  0.00  0.00    +0.000 C 
ATOM     10  C   UNL     1       0.940   9.652  17.874  0.00  0.00    +0.000 C 
ATOM     11  C   UNL     1       2.315   9.028  18.057  0.00  0.00    +0.000 C 
BRANCH   4  12
ATOM     12  O   UNL     1       3.673   6.750  17.580  0.00  0.00    +0.000 OA
BRANCH  12  14
ATOM     13  C   UNL     1       5.073   5.552  16.066  0.00  0.00    +0.000 C 
ATOM     14  C   UNL     1       4.913   6.034  17.496  0.00  0.00    +0.000 C 
ENDBRANCH  12  14
ENDBRANCH   4  12
ENDBRANCH   1   9
BRANCH   3  15
ATOM     15  C   UNL     1       2.058  14.580  18.691  0.00  0.00    +0.000 A 
ATOM     16  C   UNL     1       1.008  15.509  18.828  0.00  0.00    +0.000 A 
ATOM     17  C   UNL     1       1.078  16.803  18.303  0.00  0.00    +0.000 A 
ATOM     18  C   UNL     1       2.243  17.238  17.695  0.00  0.00    +0.000 A 
ATOM     19  C   UNL     1       3.319  16.366  17.603  0.00  0.00    +0.000 A 
ATOM     20  C   UNL     1       3.250  15.046  18.090  0.00  0.00    +0.000 A 
BRANCH  20  21
ATOM     21  O   UNL     1       4.445  14.409  17.900  0.00  0.00    +0.000 OA
BRANCH  21  22
ATOM     22  C   UNL     1       5.627  14.915  18.497  0.00  0.00    +0.000 C 
ATOM     23  C   UNL     1       6.780  14.487  17.596  0.00  0.00    +0.000 C 
ENDBRANCH  21  22
ENDBRANCH  20  21
ENDBRANCH   3  15
BRANCH   2  24
ATOM     24  S   UNL     1      -0.577  12.938  18.293  0.00  0.00    +0.000 S 
ATOM     25  H   UNL     1      -0.200  12.400  17.125  0.00  0.00    +0.000 HD
ENDBRANCH   2  24
BRANCH   1  26
ATOM     26  C   UNL     1       0.988  11.354  21.316  0.00  0.00    +0.000 C 
BRANCH  26  27
ATOM     27  C   UNL     1      -0.205  12.126  21.950  0.00  0.00    +0.000 C 
BRANCH  27  28
ATOM     28  N   UNL     1      -0.889  11.548  23.125  0.00  0.00    +0.000 NA
ATOM     29  C   UNL     1      -2.311  11.870  23.196  0.00  0.00    +0.000 C 
ATOM     30  C   UNL     1      -0.678  10.108  23.262  0.00  0.00    +0.000 C 
ENDBRANCH  27  28
ENDBRANCH  26  27
ENDBRANCH   1  26
TORSDOF 10
ENDMDL
MODEL 6
REMARK VINA RESULT:      -5.3      4.492      8.120
REMARK  Name = 
REMARK  14 active torsions:
REMARK  status: ('A' for Active; 'I' for Inactive)
REMARK    1  A    between atoms: C_1  and  C_2
REMARK    2  A    between atoms: C_2  and  O_3
REMARK    3  A    between atoms: O_3  and  C_4
REMARK    4  A    between atoms: C_9  and  N_10
REMARK    5  A    between atoms: N_10  and  C_11
REMARK    6  A    between atoms: C_11  and  C_12
REMARK    7  A    between atoms: C_12  and  N_13
REMARK    8  A    between atoms: N_13  and  C_14
REMARK    9  A    between atoms: N_13  and  C_15
REMARK   10  A    between atoms: C_16  and  S_17
REMARK   11  A    between atoms: N_18  and  C_19
REMARK   12  A    between atoms: C_24  and  O_25
REMARK   13  A    between atoms: O_25  and  C_26
REMARK   14  A    between atoms: C_26  and  C_27
REMARK                            x       y       z     vdW  Elec       q    Type
REMARK                         _______ _______ _______ _____ _____    ______ ____
ROOT
ATOM      1  N   UNL     1       0.918  11.317  19.975  0.00  0.00    +0.000 N 
ATOM      2  C   UNL     1       1.078  12.545  19.309  0.00  0.00    +0.000 C 
ATOM      3  N   UNL     1       2.166  13.249  19.488  0.00  0.00    +0.000 NA
ENDROOT
BRANCH   1   9
ATOM      4  C   UNL     1       2.870   6.730  18.957  0.00  0.00    +0.000 C 
ATOM      5  O   UNL     1       2.989   5.873  19.824  0.00  0.00    +0.000 OA
ATOM      6  N   UNL     1       2.102   7.876  19.097  0.00  0.00    +0.000 N 
ATOM      7  C   UNL     1       1.484   8.159  20.380  0.00  0.00    +0.000 C 
ATOM      8  C   UNL     1       0.148   8.876  20.199  0.00  0.00    +0.000 C 
ATOM      9  C   UNL     1       0.245  10.146  19.327  0.00  0.00    +0.000 C 
ATOM     10  C   UNL     1       0.931   9.727  18.002  0.00  0.00    +0.000 C 
ATOM     11  C   UNL     1       2.262   9.022  18.218  0.00  0.00    +0.000 C 
BRANCH   4  12
ATOM     12  O   UNL     1       3.500   6.675  17.751  0.00  0.00    +0.000 OA
BRANCH  12  14
ATOM     13  C   UNL     1       5.680   6.758  16.789  0.00  0.00    +0.000 C 
ATOM     14  C   UNL     1       4.762   5.992  17.723  0.00  0.00    +0.000 C 
ENDBRANCH  12  14
ENDBRANCH   4  12
ENDBRANCH   1   9
BRANCH   3  15
ATOM     15  C   UNL     1       2.428  14.511  18.899  0.00  0.00    +0.000 A 
ATOM     16  C   UNL     1       3.200  14.587  17.724  0.00  0.00    +0.000 A 
ATOM     17  C   UNL     1       3.462  15.797  17.074  0.00  0.00    +0.000 A 
ATOM     18  C   UNL     1       2.883  16.967  17.538  0.00  0.00    +0.000 A 
ATOM     19  C   UNL     1       2.063  16.914  18.656  0.00  0.00    +0.000 A 
ATOM     20  C   UNL     1       1.823  15.709  19.345  0.00  0.00    +0.000 A 
BRANCH  20  21
ATOM     21  O   UNL     1       0.968  15.924  20.389  0.00  0.00    +0.000 OA
BRANCH  21  22
ATOM     22  C   UNL     1      -0.336  16.428  20.153  0.00  0.00    +0.000 C 
ATOM     23  C   UNL     1      -0.731  17.204  21.403  0.00  0.00    +0.000 C 
ENDBRANCH  21  22
ENDBRANCH  20  21
ENDBRANCH   3  15
BRANCH   2  24
ATOM     24  S   UNL     1      -0.295  13.081  18.321  0.00  0.00    +0.000 S 
ATOM     25  H   UNL     1       0.186  14.308  18.081  0.00  0.00    +0.000 HD
ENDBRANCH   2  24
BRANCH   1  26
ATOM     26  C   UNL     1       0.911  11.420  21.465  0.00  0.00    +0.000 C 
BRANCH  26  27
ATOM     27  C   UNL     1      -0.323  12.195  22.009  0.00  0.00    +0.000 C 
BRANCH  27  28
ATOM     28  N   UNL     1      -1.077  11.634  23.148  0.00  0.00    +0.000 NA
ATOM     29  C   UNL     1      -2.483  12.024  23.174  0.00  0.00    +0.000 C 
ATOM     30  C   UNL     1      -0.939  10.184  23.271  0.00  0.00    +0.000 C 
ENDBRANCH  27  28
ENDBRANCH  26  27
ENDBRANCH   1  26
TORSDOF 10
ENDMDL
MODEL 7
REMARK VINA RESULT:      -5.3      4.308      7.862
REMARK  Name = 
REMARK  14 active torsions:
REMARK  status: ('A' for Active; 'I' for Inactive)
REMARK    1  A    between atoms: C_1  and  C_2
REMARK    2  A    between atoms: C_2  and  O_3
REMARK    3  A    between atoms: O_3  and  C_4
REMARK    4  A    between atoms: C_9  and  N_10
REMARK    5  A    between atoms: N_10  and  C_11
REMARK    6  A    between atoms: C_11  and  C_12
REMARK    7  A    between atoms: C_12  and  N_13
REMARK    8  A    between atoms: N_13  and  C_14
REMARK    9  A    between atoms: N_13  and  C_15
REMARK   10  A    between atoms: C_16  and  S_17
REMARK   11  A    between atoms: N_18  and  C_19
REMARK   12  A    between atoms: C_24  and  O_25
REMARK   13  A    between atoms: O_25  and  C_26
REMARK   14  A    between atoms: C_26  and  C_27
REMARK                            x       y       z     vdW  Elec       q    Type
REMARK                         _______ _______ _______ _____ _____    ______ ____
ROOT
ATOM      1  N   UNL     1       0.342  11.715  20.376  0.00  0.00    +0.000 N 
ATOM      2  C   UNL     1       0.690  12.815  19.574  0.00  0.00    +0.000 C 
ATOM      3  N   UNL     1       1.793  13.478  19.815  0.00  0.00    +0.000 NA
ENDROOT
BRANCH   1   9
ATOM      4  C   UNL     1       2.462   7.246  19.180  0.00  0.00    +0.000 C 
ATOM      5  O   UNL     1       2.723   6.408  20.033  0.00  0.00    +0.000 OA
ATOM      6  N   UNL     1       1.643   8.344  19.394  0.00  0.00    +0.000 N 
ATOM      7  C   UNL     1       1.144   8.602  20.733  0.00  0.00    +0.000 C 
ATOM      8  C   UNL     1      -0.246   9.233  20.689  0.00  0.00    +0.000 C 
ATOM      9  C   UNL     1      -0.319  10.498  19.806  0.00  0.00    +0.000 C 
ATOM     10  C   UNL     1       0.251  10.108  18.418  0.00  0.00    +0.000 C 
ATOM     11  C   UNL     1       1.639   9.489  18.498  0.00  0.00    +0.000 C 
BRANCH   4  12
ATOM     12  O   UNL     1       2.967   7.217  17.915  0.00  0.00    +0.000 OA
BRANCH  12  14
ATOM     13  C   UNL     1       4.954   6.658  16.722  0.00  0.00    +0.000 C 
ATOM     14  C   UNL     1       3.841   6.123  17.604  0.00  0.00    +0.000 C 
ENDBRANCH  12  14
ENDBRANCH   4  12
ENDBRANCH   1   9
BRANCH   3  15
ATOM     15  C   UNL     1       2.234  14.619  19.100  0.00  0.00    +0.000 A 
ATOM     16  C   UNL     1       3.103  14.463  18.003  0.00  0.00    +0.000 A 
ATOM     17  C   UNL     1       3.543  15.545  17.234  0.00  0.00    +0.000 A 
ATOM     18  C   UNL     1       3.055  16.815  17.489  0.00  0.00    +0.000 A 
ATOM     19  C   UNL     1       2.144  16.990  18.522  0.00  0.00    +0.000 A 
ATOM     20  C   UNL     1       1.724  15.917  19.332  0.00  0.00    +0.000 A 
BRANCH  20  21
ATOM     21  O   UNL     1       0.812  16.350  20.254  0.00  0.00    +0.000 OA
BRANCH  21  22
ATOM     22  C   UNL     1      -0.218  17.247  19.875  0.00  0.00    +0.000 C 
ATOM     23  C   UNL     1      -1.532  16.498  20.062  0.00  0.00    +0.000 C 
ENDBRANCH  21  22
ENDBRANCH  20  21
ENDBRANCH   3  15
BRANCH   2  24
ATOM     24  S   UNL     1      -0.481  13.270  18.321  0.00  0.00    +0.000 S 
ATOM     25  H   UNL     1      -1.083  14.224  19.042  0.00  0.00    +0.000 HD
ENDBRANCH   2  24
BRANCH   1  26
ATOM     26  C   UNL     1       0.130  12.044  21.817  0.00  0.00    +0.000 C 
BRANCH  26  27
ATOM     27  C   UNL     1      -0.821  13.258  22.023  0.00  0.00    +0.000 C 
BRANCH  27  28
ATOM     28  N   UNL     1      -2.248  13.009  22.310  0.00  0.00    +0.000 NA
ATOM     29  C   UNL     1      -3.073  12.865  21.114  0.00  0.00    +0.000 C 
ATOM     30  C   UNL     1      -2.464  11.890  23.225  0.00  0.00    +0.000 C 
ENDBRANCH  27  28
ENDBRANCH  26  27
ENDBRANCH   1  26
TORSDOF 10
ENDMDL
MODEL 8
REMARK VINA RESULT:      -5.2      2.821      6.928
REMARK  Name = 
REMARK  14 active torsions:
REMARK  status: ('A' for Active; 'I' for Inactive)
REMARK    1  A    between atoms: C_1  and  C_2
REMARK    2  A    between atoms: C_2  and  O_3
REMARK    3  A    between atoms: O_3  and  C_4
REMARK    4  A    between atoms: C_9  and  N_10
REMARK    5  A    between atoms: N_10  and  C_11
REMARK    6  A    between atoms: C_11  and  C_12
REMARK    7  A    between atoms: C_12  and  N_13
REMARK    8  A    between atoms: N_13  and  C_14
REMARK    9  A    between atoms: N_13  and  C_15
REMARK   10  A    between atoms: C_16  and  S_17
REMARK   11  A    between atoms: N_18  and  C_19
REMARK   12  A    between atoms: C_24  and  O_25
REMARK   13  A    between atoms: O_25  and  C_26
REMARK   14  A    between atoms: C_26  and  C_27
REMARK                            x       y       z     vdW  Elec       q    Type
REMARK                         _______ _______ _______ _____ _____    ______ ____
ROOT
ATOM      1  N   UNL     1      -1.024  11.964  19.711  0.00  0.00    +0.000 N 
ATOM      2  C   UNL     1      -1.862  12.644  20.611  0.00  0.00    +0.000 C 
ATOM      3  N   UNL     1      -3.053  12.173  20.881  0.00  0.00    +0.000 NA
ENDROOT
BRANCH   1   9
ATOM      4  C   UNL     1       2.054   7.981  18.961  0.00  0.00    +0.000 C 
ATOM      5  O   UNL     1       2.434   7.663  17.841  0.00  0.00    +0.000 OA
ATOM      6  N   UNL     1       1.458   9.196  19.263  0.00  0.00    +0.000 N 
ATOM      7  C   UNL     1       1.149  10.119  18.184  0.00  0.00    +0.000 C 
ATOM      8  C   UNL     1       1.282  11.568  18.647  0.00  0.00    +0.000 C 
ATOM      9  C   UNL     1       0.458  11.886  19.914  0.00  0.00    +0.000 C 
ATOM     10  C   UNL     1       0.856  10.834  20.982  0.00  0.00    +0.000 C 
ATOM     11  C   UNL     1       0.707   9.402  20.490  0.00  0.00    +0.000 C 
BRANCH   4  12
ATOM     12  O   UNL     1       2.147   7.168  20.049  0.00  0.00    +0.000 OA
BRANCH  12  14
ATOM     13  C   UNL     1       1.822   4.929  20.802  0.00  0.00    +0.000 C 
ATOM     14  C   UNL     1       2.539   5.811  19.797  0.00  0.00    +0.000 C 
ENDBRANCH  12  14
ENDBRANCH   4  12
ENDBRANCH   1   9
BRANCH   3  15
ATOM     15  C   UNL     1      -3.997  12.783  21.743  0.00  0.00    +0.000 A 
ATOM     16  C   UNL     1      -3.866  12.639  23.138  0.00  0.00    +0.000 A 
ATOM     17  C   UNL     1      -4.742  13.247  24.041  0.00  0.00    +0.000 A 
ATOM     18  C   UNL     1      -5.734  14.094  23.575  0.00  0.00    +0.000 A 
ATOM     19  C   UNL     1      -5.847  14.309  22.209  0.00  0.00    +0.000 A 
ATOM     20  C   UNL     1      -4.998  13.671  21.283  0.00  0.00    +0.000 A 
BRANCH  20  21
ATOM     21  O   UNL     1      -5.300  14.069  20.011  0.00  0.00    +0.000 OA
BRANCH  21  22
ATOM     22  C   UNL     1      -6.489  13.617  19.384  0.00  0.00    +0.000 C 
ATOM     23  C   UNL     1      -6.756  14.574  18.228  0.00  0.00    +0.000 C 
ENDBRANCH  21  22
ENDBRANCH  20  21
ENDBRANCH   3  15
BRANCH   2  24
ATOM     24  S   UNL     1      -1.239  14.176  21.252  0.00  0.00    +0.000 S 
ATOM     25  H   UNL     1       0.045  13.929  20.961  0.00  0.00    +0.000 HD
ENDBRANCH   2  24
BRANCH   1  26
ATOM     26  C   UNL     1      -1.570  11.847  18.326  0.00  0.00    +0.000 C 
BRANCH  26  27
ATOM     27  C   UNL     1      -2.268  10.480  18.069  0.00  0.00    +0.000 C 
BRANCH  27  28
ATOM     28  N   UNL     1      -3.369  10.412  17.087  0.00  0.00    +0.000 NA
ATOM     29  C   UNL     1      -4.535  11.210  17.453  0.00  0.00    +0.000 C 
ATOM     30  C   UNL     1      -2.943  10.715  15.722  0.00  0.00    +0.000 C 
ENDBRANCH  27  28
ENDBRANCH  26  27
ENDBRANCH   1  26
TORSDOF 10
ENDMDL
MODEL 9
REMARK VINA RESULT:      -5.2      3.031      6.457
REMARK  Name = 
REMARK  14 active torsions:
REMARK  status: ('A' for Active; 'I' for Inactive)
REMARK    1  A    between atoms: C_1  and  C_2
REMARK    2  A    between atoms: C_2  and  O_3
REMARK    3  A    between atoms: O_3  and  C_4
REMARK    4  A    between atoms: C_9  and  N_10
REMARK    5  A    between atoms: N_10  and  C_11
REMARK    6  A    between atoms: C_11  and  C_12
REMARK    7  A    between atoms: C_12  and  N_13
REMARK    8  A    between atoms: N_13  and  C_14
REMARK    9  A    between atoms: N_13  and  C_15
REMARK   10  A    between atoms: C_16  and  S_17
REMARK   11  A    between atoms: N_18  and  C_19
REMARK   12  A    between atoms: C_24  and  O_25
REMARK   13  A    between atoms: O_25  and  C_26
REMARK   14  A    between atoms: C_26  and  C_27
REMARK                            x       y       z     vdW  Elec       q    Type
REMARK                         _______ _______ _______ _____ _____    ______ ____
ROOT
ATOM      1  N   UNL     1      -0.207  10.077  18.834  0.00  0.00    +0.000 N 
ATOM      2  C   UNL     1       1.002   9.417  18.556  0.00  0.00    +0.000 C 
ATOM      3  N   UNL     1       1.125   8.139  18.811  0.00  0.00    +0.000 NA
ENDROOT
BRANCH   1   9
ATOM      4  C   UNL     1      -4.898  12.046  18.747  0.00  0.00    +0.000 C 
ATOM      5  O   UNL     1      -5.265  12.875  19.570  0.00  0.00    +0.000 OA
ATOM      6  N   UNL     1      -3.576  11.686  18.542  0.00  0.00    +0.000 N 
ATOM      7  C   UNL     1      -2.553  12.224  19.422  0.00  0.00    +0.000 C 
ATOM      8  C   UNL     1      -1.236  12.426  18.675  0.00  0.00    +0.000 C 
ATOM      9  C   UNL     1      -0.743  11.157  17.946  0.00  0.00    +0.000 C 
ATOM     10  C   UNL     1      -1.915  10.668  17.057  0.00  0.00    +0.000 C 
ATOM     11  C   UNL     1      -3.208  10.471  17.833  0.00  0.00    +0.000 C 
BRANCH   4  12
ATOM     12  O   UNL     1      -5.752  11.353  17.943  0.00  0.00    +0.000 OA
BRANCH  12  14
ATOM     13  C   UNL     1      -6.907   9.716  19.235  0.00  0.00    +0.000 C 
ATOM     14  C   UNL     1      -7.036  11.037  18.500  0.00  0.00    +0.000 C 
ENDBRANCH  12  14
ENDBRANCH   4  12
ENDBRANCH   1   9
BRANCH   3  15
ATOM     15  C   UNL     1       2.299   7.374  18.604  0.00  0.00    +0.000 A 
ATOM     16  C   UNL     1       3.181   7.714  17.559  0.00  0.00    +0.000 A 
ATOM     17  C   UNL     1       4.373   7.023  17.327  0.00  0.00    +0.000 A 
ATOM     18  C   UNL     1       4.765   6.016  18.193  0.00  0.00    +0.000 A 
ATOM     19  C   UNL     1       3.949   5.701  19.271  0.00  0.00    +0.000 A 
ATOM     20  C   UNL     1       2.725   6.361  19.494  0.00  0.00    +0.000 A 
BRANCH  20  21
ATOM     21  O   UNL     1       2.131   5.884  20.628  0.00  0.00    +0.000 OA
BRANCH  21  22
ATOM     22  C   UNL     1       2.186   4.501  20.938  0.00  0.00    +0.000 C 
ATOM     23  C   UNL     1       0.927   3.877  20.346  0.00  0.00    +0.000 C 
ENDBRANCH  21  22
ENDBRANCH  20  21
ENDBRANCH   3  15
BRANCH   2  24
ATOM     24  S   UNL     1       2.322  10.433  17.943  0.00  0.00    +0.000 S 
ATOM     25  H   UNL     1       2.315  11.293  18.970  0.00  0.00    +0.000 HD
ENDBRANCH   2  24
BRANCH   1  26
ATOM     26  C   UNL     1      -0.598  10.067  20.276  0.00  0.00    +0.000 C 
BRANCH  26  27
ATOM     27  C   UNL     1       0.462  10.747  21.190  0.00  0.00    +0.000 C 
BRANCH  27  28
ATOM     28  N   UNL     1       0.786  10.130  22.492  0.00  0.00    +0.000 NA
ATOM     29  C   UNL     1      -0.383   9.856  23.321  0.00  0.00    +0.000 C 
ATOM     30  C   UNL     1       1.625   8.939  22.371  0.00  0.00    +0.000 C 
ENDBRANCH  27  28
ENDBRANCH  26  27
ENDBRANCH   1  26
TORSDOF 10
ENDMDL
