MODEL 1
REMARK VINA RESULT:      -7.8      0.000      0.000
REMARK  Name = 
REMARK  2 active torsions:
REMARK  status: ('A' for Active; 'I' for Inactive)
REMARK    1  A    between atoms: N_12  and  C_13
REMARK    2  A    between atoms: C_13  and  C_14
REMARK                            x       y       z     vdW  Elec       q    Type
REMARK                         _______ _______ _______ _____ _____    ______ ____
ROOT
ATOM      1  C   UNL     1       7.526   4.582  11.915  0.00  0.00    +0.000 A 
ATOM      2  C   UNL     1       8.019   5.401  12.897  0.00  0.00    +0.000 A 
ATOM      3  N   UNL     1       7.552   5.423  14.157  0.00  0.00    +0.000 NA
ATOM      4  C   UNL     1       6.545   4.588  14.466  0.00  0.00    +0.000 A 
ATOM      5  N   UNL     1       5.999   4.614  15.767  0.00  0.00    +0.000 N 
ATOM      6  C   UNL     1       6.116   5.944  16.372  0.00  0.00    +0.000 C 
ATOM      7  C   UNL     1       5.511   5.968  17.773  0.00  0.00    +0.000 C 
ATOM      8  C   UNL     1       4.105   5.377  17.785  0.00  0.00    +0.000 C 
ATOM      9  C   UNL     1       4.081   3.942  17.212  0.00  0.00    +0.000 C 
ATOM     10  C   UNL     1       2.639   3.388  17.155  0.00  0.00    +0.000 C 
ATOM     11  C   UNL     1       2.685   2.060  17.894  0.00  0.00    +0.000 C 
ATOM     12  N   UNL     1       3.781   2.179  18.859  0.00  0.00    +0.000 NA
ATOM     13  C   UNL     1       4.819   2.907  18.095  0.00  0.00    +0.000 C 
ATOM     14  C   UNL     1       4.670   3.991  15.792  0.00  0.00    +0.000 C 
ATOM     15  N   UNL     1       6.021   3.738  13.562  0.00  0.00    +0.000 NA
ATOM     16  C   UNL     1       6.512   3.755  12.311  0.00  0.00    +0.000 A 
ENDROOT
BRANCH  12  17
ATOM     17  C   UNL     1       3.413   2.900  20.081  0.00  0.00    +0.000 C 
BRANCH  17  18
ATOM     18  C   UNL     1       1.979   2.680  20.458  0.00  0.00    +0.000 C 
ATOM     19  C   UNL     1       1.525   3.046  21.850  0.00  0.00    +0.000 C 
ATOM     20  C   UNL     1       1.053   3.854  20.677  0.00  0.00    +0.000 C 
ENDBRANCH  17  18
ENDBRANCH  12  17
TORSDOF 2
ENDMDL
MODEL 2
REMARK VINA RESULT:      -5.9      1.665      7.045
REMARK  Name = 
REMARK  2 active torsions:
REMARK  status: ('A' for Active; 'I' for Inactive)
REMARK    1  A    between atoms: N_12  and  C_13
REMARK    2  A    between atoms: C_13  and  C_14
REMARK                            x       y       z     vdW  Elec       q    Type
REMARK                         _______ _______ _______ _____ _____    ______ ____
ROOT
ATOM      1  C   UNL     1       1.281   2.644  21.710  0.00  0.00    +0.000 A 
ATOM      2  C   UNL     1       0.689   3.386  20.721  0.00  0.00    +0.000 A 
ATOM      3  N   UNL     1       1.366   3.971  19.717  0.00  0.00    +0.000 NA
ATOM      4  C   UNL     1       2.701   3.810  19.685  0.00  0.00    +0.000 A 
ATOM      5  N   UNL     1       3.450   4.444  18.671  0.00  0.00    +0.000 N 
ATOM      6  C   UNL     1       2.807   5.684  18.225  0.00  0.00    +0.000 C 
ATOM      7  C   UNL     1       3.630   6.372  17.139  0.00  0.00    +0.000 C 
ATOM      8  C   UNL     1       5.092   6.516  17.551  0.00  0.00    +0.000 C 
ATOM      9  C   UNL     1       5.721   5.154  17.923  0.00  0.00    +0.000 C 
ATOM     10  C   UNL     1       7.175   5.326  18.416  0.00  0.00    +0.000 C 
ATOM     11  C   UNL     1       8.009   4.389  17.558  0.00  0.00    +0.000 C 
ATOM     12  N   UNL     1       7.285   4.261  16.290  0.00  0.00    +0.000 NA
ATOM     13  C   UNL     1       5.870   4.190  16.722  0.00  0.00    +0.000 C 
ATOM     14  C   UNL     1       4.868   4.531  19.041  0.00  0.00    +0.000 C 
ATOM     15  N   UNL     1       3.353   3.077  20.609  0.00  0.00    +0.000 NA
ATOM     16  C   UNL     1       2.638   2.518  21.600  0.00  0.00    +0.000 A 
ENDROOT
BRANCH  12  17
ATOM     17  C   UNL     1       7.506   5.379  15.369  0.00  0.00    +0.000 C 
BRANCH  17  18
ATOM     18  C   UNL     1       6.719   5.232  14.101  0.00  0.00    +0.000 C 
ATOM     19  C   UNL     1       7.460   5.112  12.792  0.00  0.00    +0.000 C 
ATOM     20  C   UNL     1       6.723   3.926  13.341  0.00  0.00    +0.000 C 
ENDBRANCH  17  18
ENDBRANCH  12  17
TORSDOF 2
ENDMDL
MODEL 3
REMARK VINA RESULT:      -5.8      4.645      7.895
REMARK  Name = 
REMARK  2 active torsions:
REMARK  status: ('A' for Active; 'I' for Inactive)
REMARK    1  A    between atoms: N_12  and  C_13
REMARK    2  A    between atoms: C_13  and  C_14
REMARK                            x       y       z     vdW  Elec       q    Type
REMARK                         _______ _______ _______ _____ _____    ______ ____
ROOT
ATOM      1  C   UNL     1      -0.492  10.444  22.852  0.00  0.00    +0.000 A 
ATOM      2  C   UNL     1      -0.632  10.831  21.545  0.00  0.00    +0.000 A 
ATOM      3  N   UNL     1      -0.123  10.149  20.504  0.00  0.00    +0.000 NA
ATOM      4  C   UNL     1       0.558   9.020  20.768  0.00  0.00    +0.000 A 
ATOM      5  N   UNL     1       1.144   8.301  19.705  0.00  0.00    +0.000 N 
ATOM      6  C   UNL     1       1.511   9.188  18.595  0.00  0.00    +0.000 C 
ATOM      7  C   UNL     1       2.156   8.405  17.455  0.00  0.00    +0.000 C 
ATOM      8  C   UNL     1       3.281   7.505  17.959  0.00  0.00    +0.000 C 
ATOM      9  C   UNL     1       2.792   6.542  19.066  0.00  0.00    +0.000 C 
ATOM     10  C   UNL     1       3.959   5.696  19.624  0.00  0.00    +0.000 C 
ATOM     11  C   UNL     1       3.505   4.250  19.504  0.00  0.00    +0.000 C 
ATOM     12  N   UNL     1       2.562   4.220  18.383  0.00  0.00    +0.000 NA
ATOM     13  C   UNL     1       1.793   5.473  18.563  0.00  0.00    +0.000 C 
ATOM     14  C   UNL     1       2.186   7.392  20.196  0.00  0.00    +0.000 C 
ATOM     15  N   UNL     1       0.721   8.564  22.024  0.00  0.00    +0.000 NA
ATOM     16  C   UNL     1       0.203   9.281  23.036  0.00  0.00    +0.000 A 
ENDROOT
BRANCH  12  17
ATOM     17  C   UNL     1       3.210   4.176  17.069  0.00  0.00    +0.000 C 
BRANCH  17  18
ATOM     18  C   UNL     1       4.680   3.902  17.173  0.00  0.00    +0.000 C 
ATOM     19  C   UNL     1       5.459   3.612  15.914  0.00  0.00    +0.000 C 
ATOM     20  C   UNL     1       5.688   4.900  16.650  0.00  0.00    +0.000 C 
ENDBRANCH  17  18
ENDBRANCH  12  17
TORSDOF 2
ENDMDL
MODEL 4
REMARK VINA RESULT:      -5.6      5.835      7.697
REMARK  Name = 
REMARK  2 active torsions:
REMARK  status: ('A' for Active; 'I' for Inactive)
REMARK    1  A    between atoms: N_12  and  C_13
REMARK    2  A    between atoms: C_13  and  C_14
REMARK                            x       y       z     vdW  Elec       q    Type
REMARK                         _______ _______ _______ _____ _____    ______ ____
ROOT
ATOM      1  C   UNL     1       4.307   3.925  18.719  0.00  0.00    +0.000 A 
ATOM      2  C   UNL     1       4.391   4.959  17.823  0.00  0.00    +0.000 A 
ATOM      3  N   UNL     1       3.799   6.154  18.001  0.00  0.00    +0.000 NA
ATOM      4  C   UNL     1       3.087   6.338  19.127  0.00  0.00    +0.000 A 
ATOM      5  N   UNL     1       2.416   7.562  19.328  0.00  0.00    +0.000 N 
ATOM      6  C   UNL     1       2.025   8.176  18.054  0.00  0.00    +0.000 C 
ATOM      7  C   UNL     1       1.287   9.492  18.280  0.00  0.00    +0.000 C 
ATOM      8  C   UNL     1       0.156   9.334  19.292  0.00  0.00    +0.000 C 
ATOM      9  C   UNL     1       0.664   8.764  20.635  0.00  0.00    +0.000 C 
ATOM     10  C   UNL     1      -0.503   8.532  21.621  0.00  0.00    +0.000 C 
ATOM     11  C   UNL     1      -0.116   9.272  22.891  0.00  0.00    +0.000 C 
ATOM     12  N   UNL     1       0.763  10.364  22.463  0.00  0.00    +0.000 NA
ATOM     13  C   UNL     1       1.590   9.731  21.411  0.00  0.00    +0.000 C 
ATOM     14  C   UNL     1       1.366   7.426  20.345  0.00  0.00    +0.000 C 
ATOM     15  N   UNL     1       2.975   5.378  20.064  0.00  0.00    +0.000 NA
ATOM     16  C   UNL     1       3.576   4.196  19.843  0.00  0.00    +0.000 A 
ENDROOT
BRANCH  12  17
ATOM     17  C   UNL     1       0.042  11.531  21.945  0.00  0.00    +0.000 C 
BRANCH  17  18
ATOM     18  C   UNL     1      -1.206  11.817  22.726  0.00  0.00    +0.000 C 
ATOM     19  C   UNL     1      -1.465  13.227  23.196  0.00  0.00    +0.000 C 
ATOM     20  C   UNL     1      -2.323  12.633  22.118  0.00  0.00    +0.000 C 
ENDBRANCH  17  18
ENDBRANCH  12  17
TORSDOF 2
ENDMDL
MODEL 5
REMARK VINA RESULT:      -5.6      1.141      1.279
REMARK  Name = 
REMARK  2 active torsions:
REMARK  status: ('A' for Active; 'I' for Inactive)
REMARK    1  A    between atoms: N_12  and  C_13
REMARK    2  A    between atoms: C_13  and  C_14
REMARK                            x       y       z     vdW  Elec       q    Type
REMARK                         _______ _______ _______ _____ _____    ______ ____
ROOT
ATOM      1  C   UNL     1       7.211   3.960  11.878  0.00  0.00    +0.000 A 
ATOM      2  C   UNL     1       7.765   4.963  12.631  0.00  0.00    +0.000 A 
ATOM      3  N   UNL     1       7.345   5.291  13.866  0.00  0.00    +0.000 NA
ATOM      4  C   UNL     1       6.325   4.587  14.387  0.00  0.00    +0.000 A 
ATOM      5  N   UNL     1       5.828   4.931  15.662  0.00  0.00    +0.000 N 
ATOM      6  C   UNL     1       6.008   6.359  15.941  0.00  0.00    +0.000 C 
ATOM      7  C   UNL     1       5.456   6.726  17.316  0.00  0.00    +0.000 C 
ATOM      8  C   UNL     1       4.033   6.208  17.505  0.00  0.00    +0.000 C 
ATOM      9  C   UNL     1       3.944   4.682  17.278  0.00  0.00    +0.000 C 
ATOM     10  C   UNL     1       2.485   4.185  17.391  0.00  0.00    +0.000 C 
ATOM     11  C   UNL     1       2.518   3.060  18.414  0.00  0.00    +0.000 C 
ATOM     12  N   UNL     1       3.651   3.355  19.294  0.00  0.00    +0.000 NA
ATOM     13  C   UNL     1       4.682   3.849  18.353  0.00  0.00    +0.000 C 
ATOM     14  C   UNL     1       4.482   4.382  15.868  0.00  0.00    +0.000 C 
ATOM     15  N   UNL     1       5.742   3.574  13.718  0.00  0.00    +0.000 NA
ATOM     16  C   UNL     1       6.187   3.285  12.483  0.00  0.00    +0.000 A 
ENDROOT
BRANCH  12  17
ATOM     17  C   UNL     1       3.351   4.351  20.327  0.00  0.00    +0.000 C 
BRANCH  17  18
ATOM     18  C   UNL     1       2.018   5.003  20.113  0.00  0.00    +0.000 C 
ATOM     19  C   UNL     1       1.402   5.791  21.243  0.00  0.00    +0.000 C 
ATOM     20  C   UNL     1       1.904   6.508  20.024  0.00  0.00    +0.000 C 
ENDBRANCH  17  18
ENDBRANCH  12  17
TORSDOF 2
ENDMDL
MODEL 6
REMARK VINA RESULT:      -5.6      6.254      8.079
REMARK  Name = 
REMARK  2 active torsions:
REMARK  status: ('A' for Active; 'I' for Inactive)
REMARK    1  A    between atoms: N_12  and  C_13
REMARK    2  A    between atoms: C_13  and  C_14
REMARK                            x       y       z     vdW  Elec       q    Type
REMARK                         _______ _______ _______ _____ _____    ______ ____
ROOT
ATOM      1  C   UNL     1       4.215   4.775  18.412  0.00  0.00    +0.000 A 
ATOM      2  C   UNL     1       4.144   5.832  17.543  0.00  0.00    +0.000 A 
ATOM      3  N   UNL     1       3.462   6.964  17.794  0.00  0.00    +0.000 NA
ATOM      4  C   UNL     1       2.817   7.057  18.970  0.00  0.00    +0.000 A 
ATOM      5  N   UNL     1       2.054   8.211  19.251  0.00  0.00    +0.000 N 
ATOM      6  C   UNL     1       1.524   8.815  18.024  0.00  0.00    +0.000 C 
ATOM      7  C   UNL     1       0.688  10.053  18.336  0.00  0.00    +0.000 C 
ATOM      8  C   UNL     1      -0.351   9.770  19.417  0.00  0.00    +0.000 C 
ATOM      9  C   UNL     1       0.298   9.218  20.706  0.00  0.00    +0.000 C 
ATOM     10  C   UNL     1      -0.774   8.859  21.761  0.00  0.00    +0.000 C 
ATOM     11  C   UNL     1      -0.367   9.603  23.023  0.00  0.00    +0.000 C 
ATOM     12  N   UNL     1       0.379  10.779  22.569  0.00  0.00    +0.000 NA
ATOM     13  C   UNL     1       1.185  10.248  21.446  0.00  0.00    +0.000 C 
ATOM     14  C   UNL     1       1.094   7.957  20.331  0.00  0.00    +0.000 C 
ATOM     15  N   UNL     1       2.855   6.070  19.885  0.00  0.00    +0.000 NA
ATOM     16  C   UNL     1       3.542   4.953  19.590  0.00  0.00    +0.000 A 
ENDROOT
BRANCH  12  17
ATOM     17  C   UNL     1      -0.476  11.888  22.134  0.00  0.00    +0.000 C 
BRANCH  17  18
ATOM     18  C   UNL     1       0.272  12.885  21.301  0.00  0.00    +0.000 C 
ATOM     19  C   UNL     1      -0.358  13.388  20.025  0.00  0.00    +0.000 C 
ATOM     20  C   UNL     1      -0.209  14.314  21.196  0.00  0.00    +0.000 C 
ENDBRANCH  17  18
ENDBRANCH  12  17
TORSDOF 2
ENDMDL
MODEL 7
REMARK VINA RESULT:      -5.5      6.159      8.510
REMARK  Name = 
REMARK  2 active torsions:
REMARK  status: ('A' for Active; 'I' for Inactive)
REMARK    1  A    between atoms: N_12  and  C_13
REMARK    2  A    between atoms: C_13  and  C_14
REMARK                            x       y       z     vdW  Elec       q    Type
REMARK                         _______ _______ _______ _____ _____    ______ ____
ROOT
ATOM      1  C   UNL     1       3.004   3.831  20.142  0.00  0.00    +0.000 A 
ATOM      2  C   UNL     1       3.542   4.551  19.107  0.00  0.00    +0.000 A 
ATOM      3  N   UNL     1       3.296   5.855  18.894  0.00  0.00    +0.000 NA
ATOM      4  C   UNL     1       2.475   6.485  19.753  0.00  0.00    +0.000 A 
ATOM      5  N   UNL     1       2.158   7.843  19.537  0.00  0.00    +0.000 N 
ATOM      6  C   UNL     1       2.197   8.183  18.111  0.00  0.00    +0.000 C 
ATOM      7  C   UNL     1       1.839   9.649  17.884  0.00  0.00    +0.000 C 
ATOM      8  C   UNL     1       0.546  10.027  18.600  0.00  0.00    +0.000 C 
ATOM      9  C   UNL     1       0.617   9.718  20.113  0.00  0.00    +0.000 C 
ATOM     10  C   UNL     1      -0.727  10.029  20.809  0.00  0.00    +0.000 C 
ATOM     11  C   UNL     1      -0.381  10.957  21.962  0.00  0.00    +0.000 C 
ATOM     12  N   UNL     1       0.836  11.663  21.554  0.00  0.00    +0.000 NA
ATOM     13  C   UNL     1       1.624  10.604  20.883  0.00  0.00    +0.000 C 
ATOM     14  C   UNL     1       0.946   8.224  20.273  0.00  0.00    +0.000 C 
ATOM     15  N   UNL     1       1.923   5.852  20.806  0.00  0.00    +0.000 NA
ATOM     16  C   UNL     1       2.190   4.546  20.977  0.00  0.00    +0.000 A 
ENDROOT
BRANCH  12  17
ATOM     17  C   UNL     1       0.588  12.794  20.655  0.00  0.00    +0.000 C 
BRANCH  17  18
ATOM     18  C   UNL     1       1.815  13.187  19.888  0.00  0.00    +0.000 C 
ATOM     19  C   UNL     1       1.688  13.489  18.415  0.00  0.00    +0.000 C 
ATOM     20  C   UNL     1       1.984  14.600  19.379  0.00  0.00    +0.000 C 
ENDBRANCH  17  18
ENDBRANCH  12  17
TORSDOF 2
ENDMDL
MODEL 8
REMARK VINA RESULT:      -5.5      7.254      9.022
REMARK  Name = 
REMARK  2 active torsions:
REMARK  status: ('A' for Active; 'I' for Inactive)
REMARK    1  A    between atoms: N_12  and  C_13
REMARK    2  A    between atoms: C_13  and  C_14
REMARK                            x       y       z     vdW  Elec       q    Type
REMARK                         _______ _______ _______ _____ _____    ______ ____
ROOT
ATOM      1  C   UNL     1       4.123   6.209  18.022  0.00  0.00    +0.000 A 
ATOM      2  C   UNL     1       3.503   5.874  19.197  0.00  0.00    +0.000 A 
ATOM      3  N   UNL     1       2.557   6.626  19.785  0.00  0.00    +0.000 NA
ATOM      4  C   UNL     1       2.200   7.771  19.177  0.00  0.00    +0.000 A 
ATOM      5  N   UNL     1       1.242   8.609  19.787  0.00  0.00    +0.000 N 
ATOM      6  C   UNL     1       1.270   8.482  21.248  0.00  0.00    +0.000 C 
ATOM      7  C   UNL     1       0.241   9.401  21.901  0.00  0.00    +0.000 C 
ATOM      8  C   UNL     1       0.353  10.829  21.376  0.00  0.00    +0.000 C 
ATOM      9  C   UNL     1       0.227  10.886  19.837  0.00  0.00    +0.000 C 
ATOM     10  C   UNL     1       0.424  12.327  19.314  0.00  0.00    +0.000 C 
ATOM     11  C   UNL     1      -0.800  12.622  18.463  0.00  0.00    +0.000 C 
ATOM     12  N   UNL     1      -1.874  11.786  19.007  0.00  0.00    +0.000 NA
ATOM     13  C   UNL     1      -1.181  10.514  19.314  0.00  0.00    +0.000 C 
ATOM     14  C   UNL     1       1.309   9.969  19.241  0.00  0.00    +0.000 C 
ATOM     15  N   UNL     1       2.749   8.159  18.010  0.00  0.00    +0.000 NA
ATOM     16  C   UNL     1       3.697   7.382  17.461  0.00  0.00    +0.000 A 
ENDROOT
BRANCH  12  17
ATOM     17  C   UNL     1      -2.510  12.348  20.202  0.00  0.00    +0.000 C 
BRANCH  17  18
ATOM     18  C   UNL     1      -3.943  12.715  19.960  0.00  0.00    +0.000 C 
ATOM     19  C   UNL     1      -4.942  12.533  21.076  0.00  0.00    +0.000 C 
ATOM     20  C   UNL     1      -4.556  13.916  20.642  0.00  0.00    +0.000 C 
ENDBRANCH  17  18
ENDBRANCH  12  17
TORSDOF 2
ENDMDL
MODEL 9
REMARK VINA RESULT:      -5.4      4.340      6.469
REMARK  Name = 
REMARK  2 active torsions:
REMARK  status: ('A' for Active; 'I' for Inactive)
REMARK    1  A    between atoms: N_12  and  C_13
REMARK    2  A    between atoms: C_13  and  C_14
REMARK                            x       y       z     vdW  Elec       q    Type
REMARK                         _______ _______ _______ _____ _____    ______ ____
ROOT
ATOM      1  C   UNL     1       0.604  11.798  19.480  0.00  0.00    +0.000 A 
ATOM      2  C   UNL     1       1.461  11.636  18.423  0.00  0.00    +0.000 A 
ATOM      3  N   UNL     1       1.954  10.447  18.034  0.00  0.00    +0.000 NA
ATOM      4  C   UNL     1       1.575   9.357  18.725  0.00  0.00    +0.000 A 
ATOM      5  N   UNL     1       2.105   8.097  18.374  0.00  0.00    +0.000 N 
ATOM      6  C   UNL     1       3.447   8.222  17.794  0.00  0.00    +0.000 C 
ATOM      7  C   UNL     1       4.019   6.855  17.431  0.00  0.00    +0.000 C 
ATOM      8  C   UNL     1       3.909   5.873  18.594  0.00  0.00    +0.000 C 
ATOM      9  C   UNL     1       2.451   5.733  19.089  0.00  0.00    +0.000 C 
ATOM     10  C   UNL     1       2.368   4.801  20.319  0.00  0.00    +0.000 C 
ATOM     11  C   UNL     1       1.330   3.749  19.960  0.00  0.00    +0.000 C 
ATOM     12  N   UNL     1       1.358   3.643  18.499  0.00  0.00    +0.000 NA
ATOM     13  C   UNL     1       1.510   5.052  18.068  0.00  0.00    +0.000 C 
ATOM     14  C   UNL     1       1.947   7.135  19.471  0.00  0.00    +0.000 C 
ATOM     15  N   UNL     1       0.720   9.432  19.762  0.00  0.00    +0.000 NA
ATOM     16  C   UNL     1       0.259  10.642  20.123  0.00  0.00    +0.000 A 
ENDROOT
BRANCH  12  17
ATOM     17  C   UNL     1       2.451   2.809  17.990  0.00  0.00    +0.000 C 
BRANCH  17  18
ATOM     18  C   UNL     1       3.004   1.898  19.044  0.00  0.00    +0.000 C 
ATOM     19  C   UNL     1       4.070   0.901  18.661  0.00  0.00    +0.000 C 
ATOM     20  C   UNL     1       4.423   2.065  19.538  0.00  0.00    +0.000 C 
ENDBRANCH  17  18
ENDBRANCH  12  17
TORSDOF 2
ENDMDL
