MODEL 1
REMARK VINA RESULT:      -7.9      0.000      0.000
REMARK  Name = 
REMARK  19 active torsions:
REMARK  status: ('A' for Active; 'I' for Inactive)
REMARK    1  A    between atoms: C_1  and  C_2
REMARK    2  A    between atoms: C_2  and  O_3
REMARK    3  A    between atoms: O_3  and  C_4
REMARK    4  A    between atoms: C_4  and  O_5
REMARK    5  A    between atoms: C_6  and  C_7
REMARK    6  A    between atoms: C_8  and  C_9
REMARK    7  A    between atoms: C_8  and  C_23
REMARK    8  A    between atoms: C_9  and  C_11
REMARK    9  A    between atoms: C_12  and  C_13
REMARK   10  A    between atoms: C_16  and  O_17
REMARK   11  A    between atoms: O_17  and  C_18
REMARK   12  A    between atoms: C_19  and  O_20
REMARK   13  A    between atoms: O_20  and  C_21
REMARK   14  A    between atoms: C_23  and  C_25
REMARK   15  A    between atoms: C_26  and  C_27
REMARK   16  A    between atoms: C_30  and  O_31
REMARK   17  A    between atoms: O_31  and  C_32
REMARK   18  A    between atoms: C_33  and  O_34
REMARK   19  A    between atoms: O_34  and  C_35
REMARK                            x       y       z     vdW  Elec       q    Type
REMARK                         _______ _______ _______ _____ _____    ______ ____
ROOT
ATOM      1  C   UNL     1       6.080   5.354  18.909  0.00  0.00    +0.000 C 
ATOM      2  C   UNL     1       5.979   5.973  17.707  0.00  0.00    +0.000 C 
ENDROOT
BRANCH   1   4
ATOM      3  C   UNL     1       4.468   3.467  19.249  0.00  0.00    +0.000 C 
ATOM      4  C   UNL     1       5.070   4.603  19.648  0.00  0.00    +0.000 C 
BRANCH   3   5
ATOM      5  O   UNL     1       4.770   2.886  18.038  0.00  0.00    +0.000 OA
ATOM      6  H   UNL     1       5.687   3.138  17.842  0.00  0.00    +0.000 HD
ENDBRANCH   3   5
BRANCH   3   7
ATOM      7  O   UNL     1       3.617   2.827  20.127  0.00  0.00    +0.000 OA
BRANCH   7   9
ATOM      8  C   UNL     1       1.435   3.809  20.014  0.00  0.00    +0.000 C 
ATOM      9  C   UNL     1       2.286   2.589  19.660  0.00  0.00    +0.000 C 
ENDBRANCH   7   9
ENDBRANCH   3   7
ENDBRANCH   1   4
BRANCH   2  10
ATOM     10  C   UNL     1       4.707   5.968  16.904  0.00  0.00    +0.000 C 
ATOM     11  O   UNL     1       4.476   5.130  16.038  0.00  0.00    +0.000 OA
BRANCH  10  12
ATOM     12  C   UNL     1       3.706   7.038  17.208  0.00  0.00    +0.000 C 
ATOM     13  C   UNL     1       3.228   7.171  18.457  0.00  0.00    +0.000 C 
BRANCH  13  14
ATOM     14  C   UNL     1       2.202   8.161  18.794  0.00  0.00    +0.000 A 
ATOM     15  C   UNL     1       1.878   9.142  17.859  0.00  0.00    +0.000 A 
ATOM     16  C   UNL     1       0.935  10.122  18.167  0.00  0.00    +0.000 A 
ATOM     17  C   UNL     1       0.285  10.142  19.408  0.00  0.00    +0.000 A 
ATOM     18  C   UNL     1       0.572   9.134  20.346  0.00  0.00    +0.000 A 
ATOM     19  C   UNL     1       1.533   8.154  20.029  0.00  0.00    +0.000 A 
BRANCH  17  20
ATOM     20  O   UNL     1      -0.586  11.196  19.519  0.00  0.00    +0.000 OA
ATOM     21  C   UNL     1      -0.156  12.393  20.153  0.00  0.00    +0.000 C 
ENDBRANCH  17  20
BRANCH  18  22
ATOM     22  O   UNL     1      -0.121   9.168  21.527  0.00  0.00    +0.000 OA
ATOM     23  C   UNL     1       0.600   9.354  22.730  0.00  0.00    +0.000 C 
ENDBRANCH  18  22
ENDBRANCH  13  14
ENDBRANCH  10  12
ENDBRANCH   2  10
BRANCH   2  24
ATOM     24  C   UNL     1       7.223   6.680  17.248  0.00  0.00    +0.000 C 
ATOM     25  O   UNL     1       7.792   6.375  16.202  0.00  0.00    +0.000 OA
BRANCH  24  26
ATOM     26  C   UNL     1       7.780   7.762  18.117  0.00  0.00    +0.000 C 
ATOM     27  C   UNL     1       8.171   8.920  17.558  0.00  0.00    +0.000 C 
BRANCH  27  28
ATOM     28  C   UNL     1       8.717  10.037  18.334  0.00  0.00    +0.000 A 
ATOM     29  C   UNL     1       9.110   9.854  19.655  0.00  0.00    +0.000 A 
ATOM     30  C   UNL     1       9.613  10.937  20.381  0.00  0.00    +0.000 A 
ATOM     31  C   UNL     1       9.794  12.197  19.798  0.00  0.00    +0.000 A 
ATOM     32  C   UNL     1       9.353  12.402  18.483  0.00  0.00    +0.000 A 
ATOM     33  C   UNL     1       8.815  11.313  17.765  0.00  0.00    +0.000 A 
BRANCH  31  34
ATOM     34  O   UNL     1      10.418  13.068  20.653  0.00  0.00    +0.000 OA
ATOM     35  C   UNL     1       9.696  13.599  21.753  0.00  0.00    +0.000 C 
ENDBRANCH  31  34
BRANCH  32  36
ATOM     36  O   UNL     1       9.462  13.661  17.958  0.00  0.00    +0.000 OA
ATOM     37  C   UNL     1       8.361  14.546  18.113  0.00  0.00    +0.000 C 
ENDBRANCH  32  36
ENDBRANCH  27  28
ENDBRANCH  24  26
ENDBRANCH   2  24
TORSDOF 14
ENDMDL
MODEL 2
REMARK VINA RESULT:      -7.4      2.059      3.597
REMARK  Name = 
REMARK  19 active torsions:
REMARK  status: ('A' for Active; 'I' for Inactive)
REMARK    1  A    between atoms: C_1  and  C_2
REMARK    2  A    between atoms: C_2  and  O_3
REMARK    3  A    between atoms: O_3  and  C_4
REMARK    4  A    between atoms: C_4  and  O_5
REMARK    5  A    between atoms: C_6  and  C_7
REMARK    6  A    between atoms: C_8  and  C_9
REMARK    7  A    between atoms: C_8  and  C_23
REMARK    8  A    between atoms: C_9  and  C_11
REMARK    9  A    between atoms: C_12  and  C_13
REMARK   10  A    between atoms: C_16  and  O_17
REMARK   11  A    between atoms: O_17  and  C_18
REMARK   12  A    between atoms: C_19  and  O_20
REMARK   13  A    between atoms: O_20  and  C_21
REMARK   14  A    between atoms: C_23  and  C_25
REMARK   15  A    between atoms: C_26  and  C_27
REMARK   16  A    between atoms: C_30  and  O_31
REMARK   17  A    between atoms: O_31  and  C_32
REMARK   18  A    between atoms: C_33  and  O_34
REMARK   19  A    between atoms: O_34  and  C_35
REMARK                            x       y       z     vdW  Elec       q    Type
REMARK                         _______ _______ _______ _____ _____    ______ ____
ROOT
ATOM      1  C   UNL     1       6.302   5.754  15.889  0.00  0.00    +0.000 C 
ATOM      2  C   UNL     1       6.180   5.625  17.234  0.00  0.00    +0.000 C 
ENDROOT
BRANCH   1   4
ATOM      3  C   UNL     1       5.655   4.273  13.975  0.00  0.00    +0.000 C 
ATOM      4  C   UNL     1       5.412   5.282  14.832  0.00  0.00    +0.000 C 
BRANCH   3   5
ATOM      5  O   UNL     1       6.833   3.563  14.023  0.00  0.00    +0.000 OA
ATOM      6  H   UNL     1       6.840   3.116  14.884  0.00  0.00    +0.000 HD
ENDBRANCH   3   5
BRANCH   3   7
ATOM      7  O   UNL     1       4.651   3.886  13.111  0.00  0.00    +0.000 OA
BRANCH   7   9
ATOM      8  C   UNL     1       3.989   3.318  10.880  0.00  0.00    +0.000 C 
ATOM      9  C   UNL     1       5.058   3.142  11.959  0.00  0.00    +0.000 C 
ENDBRANCH   7   9
ENDBRANCH   3   7
ENDBRANCH   1   4
BRANCH   2  10
ATOM     10  C   UNL     1       5.013   4.923  17.872  0.00  0.00    +0.000 C 
ATOM     11  O   UNL     1       4.830   3.714  17.764  0.00  0.00    +0.000 OA
BRANCH  10  12
ATOM     12  C   UNL     1       4.066   5.764  18.669  0.00  0.00    +0.000 C 
ATOM     13  C   UNL     1       3.370   6.743  18.066  0.00  0.00    +0.000 C 
BRANCH  13  14
ATOM     14  C   UNL     1       2.477   7.634  18.811  0.00  0.00    +0.000 A 
ATOM     15  C   UNL     1       2.126   7.297  20.117  0.00  0.00    +0.000 A 
ATOM     16  C   UNL     1       1.245   8.105  20.836  0.00  0.00    +0.000 A 
ATOM     17  C   UNL     1       0.703   9.269  20.278  0.00  0.00    +0.000 A 
ATOM     18  C   UNL     1       1.081   9.642  18.976  0.00  0.00    +0.000 A 
ATOM     19  C   UNL     1       1.964   8.815  18.253  0.00  0.00    +0.000 A 
BRANCH  17  20
ATOM     20  O   UNL     1      -0.154   9.906  21.139  0.00  0.00    +0.000 OA
ATOM     21  C   UNL     1       0.135   9.915  22.531  0.00  0.00    +0.000 C 
ENDBRANCH  17  20
BRANCH  18  22
ATOM     22  O   UNL     1       0.562  10.812  18.488  0.00  0.00    +0.000 OA
ATOM     23  C   UNL     1       1.204  12.028  18.819  0.00  0.00    +0.000 C 
ENDBRANCH  18  22
ENDBRANCH  13  14
ENDBRANCH  10  12
ENDBRANCH   2  10
BRANCH   2  24
ATOM     24  C   UNL     1       7.305   6.218  18.035  0.00  0.00    +0.000 C 
ATOM     25  O   UNL     1       8.037   5.522  18.735  0.00  0.00    +0.000 OA
BRANCH  24  26
ATOM     26  C   UNL     1       7.503   7.699  17.982  0.00  0.00    +0.000 C 
ATOM     27  C   UNL     1       8.477   8.260  18.719  0.00  0.00    +0.000 C 
BRANCH  27  28
ATOM     28  C   UNL     1       8.749   9.700  18.721  0.00  0.00    +0.000 A 
ATOM     29  C   UNL     1       8.514  10.464  17.584  0.00  0.00    +0.000 A 
ATOM     30  C   UNL     1       8.796  11.832  17.601  0.00  0.00    +0.000 A 
ATOM     31  C   UNL     1       9.252  12.477  18.757  0.00  0.00    +0.000 A 
ATOM     32  C   UNL     1       9.539  11.706  19.892  0.00  0.00    +0.000 A 
ATOM     33  C   UNL     1       9.284  10.319  19.858  0.00  0.00    +0.000 A 
BRANCH  31  34
ATOM     34  O   UNL     1       9.336  13.834  18.583  0.00  0.00    +0.000 OA
ATOM     35  C   UNL     1       8.462  14.683  19.310  0.00  0.00    +0.000 C 
ENDBRANCH  31  34
BRANCH  32  36
ATOM     36  O   UNL     1      10.064  12.341  20.985  0.00  0.00    +0.000 OA
ATOM     37  C   UNL     1       9.263  12.423  22.156  0.00  0.00    +0.000 C 
ENDBRANCH  32  36
ENDBRANCH  27  28
ENDBRANCH  24  26
ENDBRANCH   2  24
TORSDOF 14
ENDMDL
MODEL 3
REMARK VINA RESULT:      -7.3      2.071      3.450
REMARK  Name = 
REMARK  19 active torsions:
REMARK  status: ('A' for Active; 'I' for Inactive)
REMARK    1  A    between atoms: C_1  and  C_2
REMARK    2  A    between atoms: C_2  and  O_3
REMARK    3  A    between atoms: O_3  and  C_4
REMARK    4  A    between atoms: C_4  and  O_5
REMARK    5  A    between atoms: C_6  and  C_7
REMARK    6  A    between atoms: C_8  and  C_9
REMARK    7  A    between atoms: C_8  and  C_23
REMARK    8  A    between atoms: C_9  and  C_11
REMARK    9  A    between atoms: C_12  and  C_13
REMARK   10  A    between atoms: C_16  and  O_17
REMARK   11  A    between atoms: O_17  and  C_18
REMARK   12  A    between atoms: C_19  and  O_20
REMARK   13  A    between atoms: O_20  and  C_21
REMARK   14  A    between atoms: C_23  and  C_25
REMARK   15  A    between atoms: C_26  and  C_27
REMARK   16  A    between atoms: C_30  and  O_31
REMARK   17  A    between atoms: O_31  and  C_32
REMARK   18  A    between atoms: C_33  and  O_34
REMARK   19  A    between atoms: O_34  and  C_35
REMARK                            x       y       z     vdW  Elec       q    Type
REMARK                         _______ _______ _______ _____ _____    ______ ____
ROOT
ATOM      1  C   UNL     1       7.033   5.480  16.330  0.00  0.00    +0.000 C 
ATOM      2  C   UNL     1       6.653   5.862  17.574  0.00  0.00    +0.000 C 
ENDROOT
BRANCH   1   4
ATOM      3  C   UNL     1       6.569   4.701  13.995  0.00  0.00    +0.000 C 
ATOM      4  C   UNL     1       6.263   4.785  15.303  0.00  0.00    +0.000 C 
BRANCH   3   5
ATOM      5  O   UNL     1       7.698   5.303  13.485  0.00  0.00    +0.000 OA
ATOM      6  H   UNL     1       7.425   6.192  13.209  0.00  0.00    +0.000 HD
ENDBRANCH   3   5
BRANCH   3   7
ATOM      7  O   UNL     1       5.786   3.905  13.184  0.00  0.00    +0.000 OA
BRANCH   7   9
ATOM      8  C   UNL     1       5.467   2.260  11.472  0.00  0.00    +0.000 C 
ATOM      9  C   UNL     1       6.461   3.222  12.124  0.00  0.00    +0.000 C 
ENDBRANCH   7   9
ENDBRANCH   3   7
ENDBRANCH   1   4
BRANCH   2  10
ATOM     10  C   UNL     1       5.272   5.604  18.109  0.00  0.00    +0.000 C 
ATOM     11  O   UNL     1       4.892   4.486  18.445  0.00  0.00    +0.000 OA
BRANCH  10  12
ATOM     12  C   UNL     1       4.357   6.782  18.230  0.00  0.00    +0.000 C 
ATOM     13  C   UNL     1       3.181   6.653  18.868  0.00  0.00    +0.000 C 
BRANCH  13  14
ATOM     14  C   UNL     1       2.223   7.758  18.961  0.00  0.00    +0.000 A 
ATOM     15  C   UNL     1       2.022   8.571  17.847  0.00  0.00    +0.000 A 
ATOM     16  C   UNL     1       1.146   9.654  17.918  0.00  0.00    +0.000 A 
ATOM     17  C   UNL     1       0.445   9.947  19.093  0.00  0.00    +0.000 A 
ATOM     18  C   UNL     1       0.607   9.111  20.213  0.00  0.00    +0.000 A 
ATOM     19  C   UNL     1       1.501   8.025  20.134  0.00  0.00    +0.000 A 
BRANCH  17  20
ATOM     20  O   UNL     1      -0.344  11.062  18.961  0.00  0.00    +0.000 OA
ATOM     21  C   UNL     1      -1.678  10.921  18.491  0.00  0.00    +0.000 C 
ENDBRANCH  17  20
BRANCH  18  22
ATOM     22  O   UNL     1      -0.134   9.410  21.326  0.00  0.00    +0.000 OA
ATOM     23  C   UNL     1       0.325  10.430  22.191  0.00  0.00    +0.000 C 
ENDBRANCH  18  22
ENDBRANCH  13  14
ENDBRANCH  10  12
ENDBRANCH   2  10
BRANCH   2  24
ATOM     24  C   UNL     1       7.720   6.544  18.384  0.00  0.00    +0.000 C 
ATOM     25  O   UNL     1       8.416   5.928  19.188  0.00  0.00    +0.000 OA
BRANCH  24  26
ATOM     26  C   UNL     1       7.904   8.019  18.208  0.00  0.00    +0.000 C 
ATOM     27  C   UNL     1       8.742   8.679  19.024  0.00  0.00    +0.000 C 
BRANCH  27  28
ATOM     28  C   UNL     1       8.990  10.120  18.917  0.00  0.00    +0.000 A 
ATOM     29  C   UNL     1       8.674  10.806  17.750  0.00  0.00    +0.000 A 
ATOM     30  C   UNL     1       8.934  12.176  17.663  0.00  0.00    +0.000 A 
ATOM     31  C   UNL     1       9.450  12.900  18.745  0.00  0.00    +0.000 A 
ATOM     32  C   UNL     1       9.819  12.206  19.906  0.00  0.00    +0.000 A 
ATOM     33  C   UNL     1       9.584  10.817  19.976  0.00  0.00    +0.000 A 
BRANCH  31  34
ATOM     34  O   UNL     1       9.502  14.243  18.480  0.00  0.00    +0.000 OA
ATOM     35  C   UNL     1      10.508  14.742  17.612  0.00  0.00    +0.000 C 
ENDBRANCH  31  34
BRANCH  32  36
ATOM     36  O   UNL     1      10.399  12.917  20.923  0.00  0.00    +0.000 OA
ATOM     37  C   UNL     1       9.545  13.561  21.858  0.00  0.00    +0.000 C 
ENDBRANCH  32  36
ENDBRANCH  27  28
ENDBRANCH  24  26
ENDBRANCH   2  24
TORSDOF 14
ENDMDL
MODEL 4
REMARK VINA RESULT:      -7.3      4.794     10.288
REMARK  Name = 
REMARK  19 active torsions:
REMARK  status: ('A' for Active; 'I' for Inactive)
REMARK    1  A    between atoms: C_1  and  C_2
REMARK    2  A    between atoms: C_2  and  O_3
REMARK    3  A    between atoms: O_3  and  C_4
REMARK    4  A    between atoms: C_4  and  O_5
REMARK    5  A    between atoms: C_6  and  C_7
REMARK    6  A    between atoms: C_8  and  C_9
REMARK    7  A    between atoms: C_8  and  C_23
REMARK    8  A    between atoms: C_9  and  C_11
REMARK    9  A    between atoms: C_12  and  C_13
REMARK   10  A    between atoms: C_16  and  O_17
REMARK   11  A    between atoms: O_17  and  C_18
REMARK   12  A    between atoms: C_19  and  O_20
REMARK   13  A    between atoms: O_20  and  C_21
REMARK   14  A    between atoms: C_23  and  C_25
REMARK   15  A    between atoms: C_26  and  C_27
REMARK   16  A    between atoms: C_30  and  O_31
REMARK   17  A    between atoms: O_31  and  C_32
REMARK   18  A    between atoms: C_33  and  O_34
REMARK   19  A    between atoms: O_34  and  C_35
REMARK                            x       y       z     vdW  Elec       q    Type
REMARK                         _______ _______ _______ _____ _____    ______ ____
ROOT
ATOM      1  C   UNL     1      -1.001  10.409  19.008  0.00  0.00    +0.000 C 
ATOM      2  C   UNL     1       0.212  10.432  19.613  0.00  0.00    +0.000 C 
ENDROOT
BRANCH   1   4
ATOM      3  C   UNL     1      -2.584   9.830  17.154  0.00  0.00    +0.000 C 
ATOM      4  C   UNL     1      -1.344  10.020  17.643  0.00  0.00    +0.000 C 
BRANCH   3   5
ATOM      5  O   UNL     1      -3.697   9.992  17.949  0.00  0.00    +0.000 OA
ATOM      6  H   UNL     1      -3.629  10.883  18.325  0.00  0.00    +0.000 HD
ENDBRANCH   3   5
BRANCH   3   7
ATOM      7  O   UNL     1      -2.729   9.576  15.806  0.00  0.00    +0.000 OA
BRANCH   7   9
ATOM      8  C   UNL     1      -3.698  10.072  13.672  0.00  0.00    +0.000 C 
ATOM      9  C   UNL     1      -3.233  10.651  15.009  0.00  0.00    +0.000 C 
ENDBRANCH   7   9
ENDBRANCH   3   7
ENDBRANCH   1   4
BRANCH   2  10
ATOM     10  C   UNL     1       1.474  10.024  18.903  0.00  0.00    +0.000 C 
ATOM     11  O   UNL     1       2.037  10.749  18.089  0.00  0.00    +0.000 OA
BRANCH  10  12
ATOM     12  C   UNL     1       2.038   8.679  19.237  0.00  0.00    +0.000 C 
ATOM     13  C   UNL     1       2.261   7.786  18.257  0.00  0.00    +0.000 C 
BRANCH  13  14
ATOM     14  C   UNL     1       2.753   6.434  18.536  0.00  0.00    +0.000 A 
ATOM     15  C   UNL     1       3.616   5.830  17.623  0.00  0.00    +0.000 A 
ATOM     16  C   UNL     1       4.068   4.529  17.842  0.00  0.00    +0.000 A 
ATOM     17  C   UNL     1       3.683   3.804  18.977  0.00  0.00    +0.000 A 
ATOM     18  C   UNL     1       2.846   4.417  19.926  0.00  0.00    +0.000 A 
ATOM     19  C   UNL     1       2.386   5.728  19.692  0.00  0.00    +0.000 A 
BRANCH  17  20
ATOM     20  O   UNL     1       4.219   2.541  18.991  0.00  0.00    +0.000 OA
ATOM     21  C   UNL     1       3.498   1.471  18.394  0.00  0.00    +0.000 C 
ENDBRANCH  17  20
BRANCH  18  22
ATOM     22  O   UNL     1       2.532   3.687  21.042  0.00  0.00    +0.000 OA
ATOM     23  C   UNL     1       1.270   3.051  21.103  0.00  0.00    +0.000 C 
ENDBRANCH  18  22
ENDBRANCH  13  14
ENDBRANCH  10  12
ENDBRANCH   2  10
BRANCH   2  24
ATOM     24  C   UNL     1       0.204  10.914  21.037  0.00  0.00    +0.000 C 
ATOM     25  O   UNL     1       1.014  10.501  21.864  0.00  0.00    +0.000 OA
BRANCH  24  26
ATOM     26  C   UNL     1      -0.843  11.902  21.440  0.00  0.00    +0.000 C 
ATOM     27  C   UNL     1      -1.177  12.015  22.737  0.00  0.00    +0.000 C 
BRANCH  27  28
ATOM     28  C   UNL     1      -2.184  12.963  23.223  0.00  0.00    +0.000 A 
ATOM     29  C   UNL     1      -1.825  14.264  23.556  0.00  0.00    +0.000 A 
ATOM     30  C   UNL     1      -2.797  15.148  24.032  0.00  0.00    +0.000 A 
ATOM     31  C   UNL     1      -4.145  14.781  24.128  0.00  0.00    +0.000 A 
ATOM     32  C   UNL     1      -4.506  13.457  23.842  0.00  0.00    +0.000 A 
ATOM     33  C   UNL     1      -3.514  12.560  23.393  0.00  0.00    +0.000 A 
BRANCH  31  34
ATOM     34  O   UNL     1      -4.935  15.839  24.493  0.00  0.00    +0.000 OA
ATOM     35  C   UNL     1      -4.326  17.036  24.951  0.00  0.00    +0.000 C 
ENDBRANCH  31  34
BRANCH  32  36
ATOM     36  O   UNL     1      -5.814  13.094  24.021  0.00  0.00    +0.000 OA
ATOM     37  C   UNL     1      -6.586  12.794  22.867  0.00  0.00    +0.000 C 
ENDBRANCH  32  36
ENDBRANCH  27  28
ENDBRANCH  24  26
ENDBRANCH   2  24
TORSDOF 14
ENDMDL
MODEL 5
REMARK VINA RESULT:      -7.3      4.406     10.527
REMARK  Name = 
REMARK  19 active torsions:
REMARK  status: ('A' for Active; 'I' for Inactive)
REMARK    1  A    between atoms: C_1  and  C_2
REMARK    2  A    between atoms: C_2  and  O_3
REMARK    3  A    between atoms: O_3  and  C_4
REMARK    4  A    between atoms: C_4  and  O_5
REMARK    5  A    between atoms: C_6  and  C_7
REMARK    6  A    between atoms: C_8  and  C_9
REMARK    7  A    between atoms: C_8  and  C_23
REMARK    8  A    between atoms: C_9  and  C_11
REMARK    9  A    between atoms: C_12  and  C_13
REMARK   10  A    between atoms: C_16  and  O_17
REMARK   11  A    between atoms: O_17  and  C_18
REMARK   12  A    between atoms: C_19  and  O_20
REMARK   13  A    between atoms: O_20  and  C_21
REMARK   14  A    between atoms: C_23  and  C_25
REMARK   15  A    between atoms: C_26  and  C_27
REMARK   16  A    between atoms: C_30  and  O_31
REMARK   17  A    between atoms: O_31  and  C_32
REMARK   18  A    between atoms: C_33  and  O_34
REMARK   19  A    between atoms: O_34  and  C_35
REMARK                            x       y       z     vdW  Elec       q    Type
REMARK                         _______ _______ _______ _____ _____    ______ ____
ROOT
ATOM      1  C   UNL     1      -1.112  10.301  19.169  0.00  0.00    +0.000 C 
ATOM      2  C   UNL     1       0.135  10.404  19.692  0.00  0.00    +0.000 C 
ENDROOT
BRANCH   1   4
ATOM      3  C   UNL     1      -2.184  10.660  16.933  0.00  0.00    +0.000 C 
ATOM      4  C   UNL     1      -1.519   9.902  17.825  0.00  0.00    +0.000 C 
BRANCH   3   5
ATOM      5  O   UNL     1      -2.562  11.950  17.233  0.00  0.00    +0.000 OA
ATOM      6  H   UNL     1      -2.645  11.985  18.199  0.00  0.00    +0.000 HD
ENDBRANCH   3   5
BRANCH   3   7
ATOM      7  O   UNL     1      -2.387  10.159  15.664  0.00  0.00    +0.000 OA
BRANCH   7   9
ATOM      8  C   UNL     1      -3.593   9.959  13.604  0.00  0.00    +0.000 C 
ATOM      9  C   UNL     1      -3.588  10.571  15.005  0.00  0.00    +0.000 C 
ENDBRANCH   7   9
ENDBRANCH   3   7
ENDBRANCH   1   4
BRANCH   2  10
ATOM     10  C   UNL     1       1.371  10.091  18.893  0.00  0.00    +0.000 C 
ATOM     11  O   UNL     1       1.967  10.940  18.238  0.00  0.00    +0.000 OA
BRANCH  10  12
ATOM     12  C   UNL     1       1.867   8.680  18.932  0.00  0.00    +0.000 C 
ATOM     13  C   UNL     1       2.471   8.153  17.853  0.00  0.00    +0.000 C 
BRANCH  13  14
ATOM     14  C   UNL     1       2.920   6.759  17.817  0.00  0.00    +0.000 A 
ATOM     15  C   UNL     1       2.043   5.758  18.232  0.00  0.00    +0.000 A 
ATOM     16  C   UNL     1       2.455   4.426  18.248  0.00  0.00    +0.000 A 
ATOM     17  C   UNL     1       3.744   4.058  17.841  0.00  0.00    +0.000 A 
ATOM     18  C   UNL     1       4.625   5.053  17.381  0.00  0.00    +0.000 A 
ATOM     19  C   UNL     1       4.203   6.397  17.378  0.00  0.00    +0.000 A 
BRANCH  17  20
ATOM     20  O   UNL     1       3.956   2.707  17.952  0.00  0.00    +0.000 OA
ATOM     21  C   UNL     1       4.039   2.118  19.243  0.00  0.00    +0.000 C 
ENDBRANCH  17  20
BRANCH  18  22
ATOM     22  O   UNL     1       5.859   4.641  16.951  0.00  0.00    +0.000 OA
ATOM     23  C   UNL     1       6.950   4.718  17.848  0.00  0.00    +0.000 C 
ENDBRANCH  18  22
ENDBRANCH  13  14
ENDBRANCH  10  12
ENDBRANCH   2  10
BRANCH   2  24
ATOM     24  C   UNL     1       0.191  10.871  21.119  0.00  0.00    +0.000 C 
ATOM     25  O   UNL     1       1.212  10.766  21.795  0.00  0.00    +0.000 OA
BRANCH  24  26
ATOM     26  C   UNL     1      -1.050  11.454  21.719  0.00  0.00    +0.000 C 
ATOM     27  C   UNL     1      -1.092  12.768  21.995  0.00  0.00    +0.000 C 
BRANCH  27  28
ATOM     28  C   UNL     1      -2.269  13.424  22.572  0.00  0.00    +0.000 A 
ATOM     29  C   UNL     1      -2.343  14.811  22.637  0.00  0.00    +0.000 A 
ATOM     30  C   UNL     1      -3.466  15.416  23.206  0.00  0.00    +0.000 A 
ATOM     31  C   UNL     1      -4.558  14.667  23.660  0.00  0.00    +0.000 A 
ATOM     32  C   UNL     1      -4.470  13.268  23.645  0.00  0.00    +0.000 A 
ATOM     33  C   UNL     1      -3.319  12.662  23.100  0.00  0.00    +0.000 A 
BRANCH  31  34
ATOM     34  O   UNL     1      -5.596  15.469  24.057  0.00  0.00    +0.000 OA
ATOM     35  C   UNL     1      -5.315  16.741  24.621  0.00  0.00    +0.000 C 
ENDBRANCH  31  34
BRANCH  32  36
ATOM     36  O   UNL     1      -5.512  12.552  24.171  0.00  0.00    +0.000 OA
ATOM     37  C   UNL     1      -6.728  12.510  23.439  0.00  0.00    +0.000 C 
ENDBRANCH  32  36
ENDBRANCH  27  28
ENDBRANCH  24  26
ENDBRANCH   2  24
TORSDOF 14
ENDMDL
MODEL 6
REMARK VINA RESULT:      -7.3      1.275      1.582
REMARK  Name = 
REMARK  19 active torsions:
REMARK  status: ('A' for Active; 'I' for Inactive)
REMARK    1  A    between atoms: C_1  and  C_2
REMARK    2  A    between atoms: C_2  and  O_3
REMARK    3  A    between atoms: O_3  and  C_4
REMARK    4  A    between atoms: C_4  and  O_5
REMARK    5  A    between atoms: C_6  and  C_7
REMARK    6  A    between atoms: C_8  and  C_9
REMARK    7  A    between atoms: C_8  and  C_23
REMARK    8  A    between atoms: C_9  and  C_11
REMARK    9  A    between atoms: C_12  and  C_13
REMARK   10  A    between atoms: C_16  and  O_17
REMARK   11  A    between atoms: O_17  and  C_18
REMARK   12  A    between atoms: C_19  and  O_20
REMARK   13  A    between atoms: O_20  and  C_21
REMARK   14  A    between atoms: C_23  and  C_25
REMARK   15  A    between atoms: C_26  and  C_27
REMARK   16  A    between atoms: C_30  and  O_31
REMARK   17  A    between atoms: O_31  and  C_32
REMARK   18  A    between atoms: C_33  and  O_34
REMARK   19  A    between atoms: O_34  and  C_35
REMARK                            x       y       z     vdW  Elec       q    Type
REMARK                         _______ _______ _______ _____ _____    ______ ____
ROOT
ATOM      1  C   UNL     1       4.852   4.280  16.744  0.00  0.00    +0.000 C 
ATOM      2  C   UNL     1       5.359   5.308  17.468  0.00  0.00    +0.000 C 
ENDROOT
BRANCH   1   4
ATOM      3  C   UNL     1       3.639   2.500  18.023  0.00  0.00    +0.000 C 
ATOM      4  C   UNL     1       3.712   3.417  17.041  0.00  0.00    +0.000 C 
BRANCH   3   5
ATOM      5  O   UNL     1       4.697   2.281  18.877  0.00  0.00    +0.000 OA
ATOM      6  H   UNL     1       4.681   1.334  19.085  0.00  0.00    +0.000 HD
ENDBRANCH   3   5
BRANCH   3   7
ATOM      7  O   UNL     1       2.439   1.851  18.232  0.00  0.00    +0.000 OA
BRANCH   7   9
ATOM      8  C   UNL     1       1.268   3.104  19.904  0.00  0.00    +0.000 C 
ATOM      9  C   UNL     1       1.294   2.685  18.434  0.00  0.00    +0.000 C 
ENDBRANCH   7   9
ENDBRANCH   3   7
ENDBRANCH   1   4
BRANCH   2  10
ATOM     10  C   UNL     1       4.766   5.738  18.782  0.00  0.00    +0.000 C 
ATOM     11  O   UNL     1       5.053   5.196  19.845  0.00  0.00    +0.000 OA
BRANCH  10  12
ATOM     12  C   UNL     1       3.798   6.879  18.751  0.00  0.00    +0.000 C 
ATOM     13  C   UNL     1       2.863   6.989  19.710  0.00  0.00    +0.000 C 
BRANCH  13  14
ATOM     14  C   UNL     1       1.854   8.051  19.692  0.00  0.00    +0.000 A 
ATOM     15  C   UNL     1       1.728   8.842  18.551  0.00  0.00    +0.000 A 
ATOM     16  C   UNL     1       0.804   9.887  18.521  0.00  0.00    +0.000 A 
ATOM     17  C   UNL     1      -0.021  10.162  19.619  0.00  0.00    +0.000 A 
ATOM     18  C   UNL     1       0.068   9.346  20.761  0.00  0.00    +0.000 A 
ATOM     19  C   UNL     1       1.010   8.299  20.786  0.00  0.00    +0.000 A 
BRANCH  17  20
ATOM     20  O   UNL     1      -0.840  11.239  19.394  0.00  0.00    +0.000 OA
ATOM     21  C   UNL     1      -0.406  12.274  18.522  0.00  0.00    +0.000 C 
ENDBRANCH  17  20
BRANCH  18  22
ATOM     22  O   UNL     1      -0.790   9.624  21.793  0.00  0.00    +0.000 OA
ATOM     23  C   UNL     1      -0.264   9.730  23.101  0.00  0.00    +0.000 C 
ENDBRANCH  18  22
ENDBRANCH  13  14
ENDBRANCH  10  12
ENDBRANCH   2  10
BRANCH   2  24
ATOM     24  C   UNL     1       6.567   5.973  16.870  0.00  0.00    +0.000 C 
ATOM     25  O   UNL     1       6.970   5.691  15.743  0.00  0.00    +0.000 OA
BRANCH  24  26
ATOM     26  C   UNL     1       7.298   6.982  17.698  0.00  0.00    +0.000 C 
ATOM     27  C   UNL     1       7.531   8.204  17.191  0.00  0.00    +0.000 C 
BRANCH  27  28
ATOM     28  C   UNL     1       8.229   9.257  17.934  0.00  0.00    +0.000 A 
ATOM     29  C   UNL     1       8.857   8.972  19.141  0.00  0.00    +0.000 A 
ATOM     30  C   UNL     1       9.502   9.994  19.841  0.00  0.00    +0.000 A 
ATOM     31  C   UNL     1       9.593  11.295  19.332  0.00  0.00    +0.000 A 
ATOM     32  C   UNL     1       8.920  11.602  18.141  0.00  0.00    +0.000 A 
ATOM     33  C   UNL     1       8.241  10.573  17.455  0.00  0.00    +0.000 A 
BRANCH  31  34
ATOM     34  O   UNL     1      10.378  12.097  20.119  0.00  0.00    +0.000 OA
ATOM     35  C   UNL     1      11.788  11.935  20.087  0.00  0.00    +0.000 C 
ENDBRANCH  31  34
BRANCH  32  36
ATOM     36  O   UNL     1       8.949  12.898  17.702  0.00  0.00    +0.000 OA
ATOM     37  C   UNL     1      10.181  13.409  17.212  0.00  0.00    +0.000 C 
ENDBRANCH  32  36
ENDBRANCH  27  28
ENDBRANCH  24  26
ENDBRANCH   2  24
TORSDOF 14
ENDMDL
MODEL 7
REMARK VINA RESULT:      -7.2      1.864      3.314
REMARK  Name = 
REMARK  19 active torsions:
REMARK  status: ('A' for Active; 'I' for Inactive)
REMARK    1  A    between atoms: C_1  and  C_2
REMARK    2  A    between atoms: C_2  and  O_3
REMARK    3  A    between atoms: O_3  and  C_4
REMARK    4  A    between atoms: C_4  and  O_5
REMARK    5  A    between atoms: C_6  and  C_7
REMARK    6  A    between atoms: C_8  and  C_9
REMARK    7  A    between atoms: C_8  and  C_23
REMARK    8  A    between atoms: C_9  and  C_11
REMARK    9  A    between atoms: C_12  and  C_13
REMARK   10  A    between atoms: C_16  and  O_17
REMARK   11  A    between atoms: O_17  and  C_18
REMARK   12  A    between atoms: C_19  and  O_20
REMARK   13  A    between atoms: O_20  and  C_21
REMARK   14  A    between atoms: C_23  and  C_25
REMARK   15  A    between atoms: C_26  and  C_27
REMARK   16  A    between atoms: C_30  and  O_31
REMARK   17  A    between atoms: O_31  and  C_32
REMARK   18  A    between atoms: C_33  and  O_34
REMARK   19  A    between atoms: O_34  and  C_35
REMARK                            x       y       z     vdW  Elec       q    Type
REMARK                         _______ _______ _______ _____ _____    ______ ____
ROOT
ATOM      1  C   UNL     1       7.274   5.095  16.476  0.00  0.00    +0.000 C 
ATOM      2  C   UNL     1       6.802   5.345  17.722  0.00  0.00    +0.000 C 
ENDROOT
BRANCH   1   4
ATOM      3  C   UNL     1       5.653   4.842  14.583  0.00  0.00    +0.000 C 
ATOM      4  C   UNL     1       6.637   4.378  15.375  0.00  0.00    +0.000 C 
BRANCH   3   5
ATOM      5  O   UNL     1       5.130   6.104  14.757  0.00  0.00    +0.000 OA
ATOM      6  H   UNL     1       4.195   5.976  14.982  0.00  0.00    +0.000 HD
ENDBRANCH   3   5
BRANCH   3   7
ATOM      7  O   UNL     1       5.247   4.069  13.514  0.00  0.00    +0.000 OA
BRANCH   7   9
ATOM      8  C   UNL     1       6.945   3.940  11.829  0.00  0.00    +0.000 C 
ATOM      9  C   UNL     1       6.230   3.193  12.955  0.00  0.00    +0.000 C 
ENDBRANCH   7   9
ENDBRANCH   3   7
ENDBRANCH   1   4
BRANCH   2  10
ATOM     10  C   UNL     1       5.445   4.882  18.177  0.00  0.00    +0.000 C 
ATOM     11  O   UNL     1       5.090   3.710  18.107  0.00  0.00    +0.000 OA
BRANCH  10  12
ATOM     12  C   UNL     1       4.526   5.919  18.740  0.00  0.00    +0.000 C 
ATOM     13  C   UNL     1       3.545   6.430  17.975  0.00  0.00    +0.000 C 
BRANCH  13  14
ATOM     14  C   UNL     1       2.657   7.491  18.457  0.00  0.00    +0.000 A 
ATOM     15  C   UNL     1       2.344   8.547  17.603  0.00  0.00    +0.000 A 
ATOM     16  C   UNL     1       1.534   9.592  18.048  0.00  0.00    +0.000 A 
ATOM     17  C   UNL     1       1.009   9.605  19.346  0.00  0.00    +0.000 A 
ATOM     18  C   UNL     1       1.284   8.525  20.205  0.00  0.00    +0.000 A 
ATOM     19  C   UNL     1       2.111   7.479  19.750  0.00  0.00    +0.000 A 
BRANCH  17  20
ATOM     20  O   UNL     1       0.259  10.728  19.590  0.00  0.00    +0.000 OA
ATOM     21  C   UNL     1       0.896  11.896  20.090  0.00  0.00    +0.000 C 
ENDBRANCH  17  20
BRANCH  18  22
ATOM     22  O   UNL     1       0.712   8.559  21.450  0.00  0.00    +0.000 OA
ATOM     23  C   UNL     1       1.426   9.171  22.506  0.00  0.00    +0.000 C 
ENDBRANCH  18  22
ENDBRANCH  13  14
ENDBRANCH  10  12
ENDBRANCH   2  10
BRANCH   2  24
ATOM     24  C   UNL     1       7.742   6.101  18.619  0.00  0.00    +0.000 C 
ATOM     25  O   UNL     1       8.368   5.543  19.517  0.00  0.00    +0.000 OA
BRANCH  24  26
ATOM     26  C   UNL     1       7.882   7.575  18.410  0.00  0.00    +0.000 C 
ATOM     27  C   UNL     1       8.744   8.269  19.172  0.00  0.00    +0.000 C 
BRANCH  27  28
ATOM     28  C   UNL     1       8.954   9.712  19.028  0.00  0.00    +0.000 A 
ATOM     29  C   UNL     1       8.679  10.350  17.824  0.00  0.00    +0.000 A 
ATOM     30  C   UNL     1       8.901  11.724  17.704  0.00  0.00    +0.000 A 
ATOM     31  C   UNL     1       9.338  12.499  18.786  0.00  0.00    +0.000 A 
ATOM     32  C   UNL     1       9.666  11.856  19.987  0.00  0.00    +0.000 A 
ATOM     33  C   UNL     1       9.471  10.462  20.093  0.00  0.00    +0.000 A 
BRANCH  31  34
ATOM     34  O   UNL     1       9.362  13.834  18.478  0.00  0.00    +0.000 OA
ATOM     35  C   UNL     1       8.226  14.634  18.765  0.00  0.00    +0.000 C 
ENDBRANCH  31  34
BRANCH  32  36
ATOM     36  O   UNL     1      10.170  12.617  21.007  0.00  0.00    +0.000 OA
ATOM     37  C   UNL     1       9.293  12.985  22.061  0.00  0.00    +0.000 C 
ENDBRANCH  32  36
ENDBRANCH  27  28
ENDBRANCH  24  26
ENDBRANCH   2  24
TORSDOF 14
ENDMDL
MODEL 8
REMARK VINA RESULT:      -7.2      1.095      1.760
REMARK  Name = 
REMARK  19 active torsions:
REMARK  status: ('A' for Active; 'I' for Inactive)
REMARK    1  A    between atoms: C_1  and  C_2
REMARK    2  A    between atoms: C_2  and  O_3
REMARK    3  A    between atoms: O_3  and  C_4
REMARK    4  A    between atoms: C_4  and  O_5
REMARK    5  A    between atoms: C_6  and  C_7
REMARK    6  A    between atoms: C_8  and  C_9
REMARK    7  A    between atoms: C_8  and  C_23
REMARK    8  A    between atoms: C_9  and  C_11
REMARK    9  A    between atoms: C_12  and  C_13
REMARK   10  A    between atoms: C_16  and  O_17
REMARK   11  A    between atoms: O_17  and  C_18
REMARK   12  A    between atoms: C_19  and  O_20
REMARK   13  A    between atoms: O_20  and  C_21
REMARK   14  A    between atoms: C_23  and  C_25
REMARK   15  A    between atoms: C_26  and  C_27
REMARK   16  A    between atoms: C_30  and  O_31
REMARK   17  A    between atoms: O_31  and  C_32
REMARK   18  A    between atoms: C_33  and  O_34
REMARK   19  A    between atoms: O_34  and  C_35
REMARK                            x       y       z     vdW  Elec       q    Type
REMARK                         _______ _______ _______ _____ _____    ______ ____
ROOT
ATOM      1  C   UNL     1       5.451   4.343  18.891  0.00  0.00    +0.000 C 
ATOM      2  C   UNL     1       5.830   5.186  17.899  0.00  0.00    +0.000 C 
ENDROOT
BRANCH   1   4
ATOM      3  C   UNL     1       3.575   2.703  18.638  0.00  0.00    +0.000 C 
ATOM      4  C   UNL     1       4.128   3.801  19.186  0.00  0.00    +0.000 C 
BRANCH   3   5
ATOM      5  O   UNL     1       4.248   1.959  17.694  0.00  0.00    +0.000 OA
ATOM      6  H   UNL     1       5.187   2.009  17.935  0.00  0.00    +0.000 HD
ENDBRANCH   3   5
BRANCH   3   7
ATOM      7  O   UNL     1       2.357   2.267  19.119  0.00  0.00    +0.000 OA
BRANCH   7   9
ATOM      8  C   UNL     1       1.035   3.364  20.788  0.00  0.00    +0.000 C 
ATOM      9  C   UNL     1       1.351   3.268  19.296  0.00  0.00    +0.000 C 
ENDBRANCH   7   9
ENDBRANCH   3   7
ENDBRANCH   1   4
BRANCH   2  10
ATOM     10  C   UNL     1       4.859   5.718  16.880  0.00  0.00    +0.000 C 
ATOM     11  O   UNL     1       5.056   5.631  15.672  0.00  0.00    +0.000 OA
BRANCH  10  12
ATOM     12  C   UNL     1       3.613   6.362  17.400  0.00  0.00    +0.000 C 
ATOM     13  C   UNL     1       3.654   7.626  17.856  0.00  0.00    +0.000 C 
BRANCH  13  14
ATOM     14  C   UNL     1       2.477   8.282  18.432  0.00  0.00    +0.000 A 
ATOM     15  C   UNL     1       1.763   9.190  17.652  0.00  0.00    +0.000 A 
ATOM     16  C   UNL     1       0.662   9.860  18.187  0.00  0.00    +0.000 A 
ATOM     17  C   UNL     1       0.242   9.635  19.503  0.00  0.00    +0.000 A 
ATOM     18  C   UNL     1       0.929   8.692  20.288  0.00  0.00    +0.000 A 
ATOM     19  C   UNL     1       2.044   8.026  19.743  0.00  0.00    +0.000 A 
BRANCH  17  20
ATOM     20  O   UNL     1      -0.841  10.408  19.840  0.00  0.00    +0.000 OA
ATOM     21  C   UNL     1      -1.064  11.633  19.155  0.00  0.00    +0.000 C 
ENDBRANCH  17  20
BRANCH  18  22
ATOM     22  O   UNL     1       0.454   8.472  21.554  0.00  0.00    +0.000 OA
ATOM     23  C   UNL     1       0.934   9.284  22.608  0.00  0.00    +0.000 C 
ENDBRANCH  18  22
ENDBRANCH  13  14
ENDBRANCH  10  12
ENDBRANCH   2  10
BRANCH   2  24
ATOM     24  C   UNL     1       7.285   5.563  17.904  0.00  0.00    +0.000 C 
ATOM     25  O   UNL     1       8.156   4.786  17.518  0.00  0.00    +0.000 OA
BRANCH  24  26
ATOM     26  C   UNL     1       7.660   6.915  18.422  0.00  0.00    +0.000 C 
ATOM     27  C   UNL     1       7.874   7.916  17.552  0.00  0.00    +0.000 C 
BRANCH  27  28
ATOM     28  C   UNL     1       8.235   9.274  17.970  0.00  0.00    +0.000 A 
ATOM     29  C   UNL     1       7.774  10.377  17.261  0.00  0.00    +0.000 A 
ATOM     30  C   UNL     1       8.143  11.662  17.667  0.00  0.00    +0.000 A 
ATOM     31  C   UNL     1       8.917  11.881  18.813  0.00  0.00    +0.000 A 
ATOM     32  C   UNL     1       9.427  10.772  19.504  0.00  0.00    +0.000 A 
ATOM     33  C   UNL     1       9.079   9.476  19.070  0.00  0.00    +0.000 A 
BRANCH  31  34
ATOM     34  O   UNL     1       9.047  13.216  19.093  0.00  0.00    +0.000 OA
ATOM     35  C   UNL     1       9.254  14.132  18.029  0.00  0.00    +0.000 C 
ENDBRANCH  31  34
BRANCH  32  36
ATOM     36  O   UNL     1      10.251  11.004  20.573  0.00  0.00    +0.000 OA
ATOM     37  C   UNL     1      11.342  11.895  20.393  0.00  0.00    +0.000 C 
ENDBRANCH  32  36
ENDBRANCH  27  28
ENDBRANCH  24  26
ENDBRANCH   2  24
TORSDOF 14
ENDMDL
MODEL 9
REMARK VINA RESULT:      -7.1      1.166      1.851
REMARK  Name = 
REMARK  19 active torsions:
REMARK  status: ('A' for Active; 'I' for Inactive)
REMARK    1  A    between atoms: C_1  and  C_2
REMARK    2  A    between atoms: C_2  and  O_3
REMARK    3  A    between atoms: O_3  and  C_4
REMARK    4  A    between atoms: C_4  and  O_5
REMARK    5  A    between atoms: C_6  and  C_7
REMARK    6  A    between atoms: C_8  and  C_9
REMARK    7  A    between atoms: C_8  and  C_23
REMARK    8  A    between atoms: C_9  and  C_11
REMARK    9  A    between atoms: C_12  and  C_13
REMARK   10  A    between atoms: C_16  and  O_17
REMARK   11  A    between atoms: O_17  and  C_18
REMARK   12  A    between atoms: C_19  and  O_20
REMARK   13  A    between atoms: O_20  and  C_21
REMARK   14  A    between atoms: C_23  and  C_25
REMARK   15  A    between atoms: C_26  and  C_27
REMARK   16  A    between atoms: C_30  and  O_31
REMARK   17  A    between atoms: O_31  and  C_32
REMARK   18  A    between atoms: C_33  and  O_34
REMARK   19  A    between atoms: O_34  and  C_35
REMARK                            x       y       z     vdW  Elec       q    Type
REMARK                         _______ _______ _______ _____ _____    ______ ____
ROOT
ATOM      1  C   UNL     1       5.611   4.657  17.545  0.00  0.00    +0.000 C 
ATOM      2  C   UNL     1       5.882   5.951  17.242  0.00  0.00    +0.000 C 
ENDROOT
BRANCH   1   4
ATOM      3  C   UNL     1       3.903   2.889  18.025  0.00  0.00    +0.000 C 
ATOM      4  C   UNL     1       4.412   3.875  17.262  0.00  0.00    +0.000 C 
BRANCH   3   5
ATOM      5  O   UNL     1       4.511   2.510  19.201  0.00  0.00    +0.000 OA
ATOM      6  H   UNL     1       5.310   3.055  19.276  0.00  0.00    +0.000 HD
ENDBRANCH   3   5
BRANCH   3   7
ATOM      7  O   UNL     1       2.694   2.332  17.663  0.00  0.00    +0.000 OA
BRANCH   7   9
ATOM      8  C   UNL     1       0.840   2.812  19.102  0.00  0.00    +0.000 C 
ATOM      9  C   UNL     1       1.906   1.784  18.723  0.00  0.00    +0.000 C 
ENDBRANCH   7   9
ENDBRANCH   3   7
ENDBRANCH   1   4
BRANCH   2  10
ATOM     10  C   UNL     1       4.902   6.829  16.513  0.00  0.00    +0.000 C 
ATOM     11  O   UNL     1       4.823   6.854  15.289  0.00  0.00    +0.000 OA
BRANCH  10  12
ATOM     12  C   UNL     1       4.000   7.683  17.348  0.00  0.00    +0.000 C 
ATOM     13  C   UNL     1       3.101   7.107  18.163  0.00  0.00    +0.000 C 
BRANCH  13  14
ATOM     14  C   UNL     1       2.153   7.896  18.955  0.00  0.00    +0.000 A 
ATOM     15  C   UNL     1       1.794   7.443  20.223  0.00  0.00    +0.000 A 
ATOM     16  C   UNL     1       0.863   8.152  20.984  0.00  0.00    +0.000 A 
ATOM     17  C   UNL     1       0.278   9.330  20.505  0.00  0.00    +0.000 A 
ATOM     18  C   UNL     1       0.662   9.821  19.243  0.00  0.00    +0.000 A 
ATOM     19  C   UNL     1       1.596   9.093  18.479  0.00  0.00    +0.000 A 
BRANCH  17  20
ATOM     20  O   UNL     1      -0.624   9.859  21.394  0.00  0.00    +0.000 OA
ATOM     21  C   UNL     1      -0.163  10.353  22.644  0.00  0.00    +0.000 C 
ENDBRANCH  17  20
BRANCH  18  22
ATOM     22  O   UNL     1       0.098  11.001  18.836  0.00  0.00    +0.000 OA
ATOM     23  C   UNL     1       0.917  12.151  18.756  0.00  0.00    +0.000 C 
ENDBRANCH  18  22
ENDBRANCH  13  14
ENDBRANCH  10  12
ENDBRANCH   2  10
BRANCH   2  24
ATOM     24  C   UNL     1       7.222   6.447  17.708  0.00  0.00    +0.000 C 
ATOM     25  O   UNL     1       8.184   5.692  17.833  0.00  0.00    +0.000 OA
BRANCH  24  26
ATOM     26  C   UNL     1       7.358   7.898  18.045  0.00  0.00    +0.000 C 
ATOM     27  C   UNL     1       8.584   8.433  18.170  0.00  0.00    +0.000 C 
BRANCH  27  28
ATOM     28  C   UNL     1       8.811   9.846  18.488  0.00  0.00    +0.000 A 
ATOM     29  C   UNL     1       9.482  10.209  19.649  0.00  0.00    +0.000 A 
ATOM     30  C   UNL     1       9.674  11.562  19.941  0.00  0.00    +0.000 A 
ATOM     31  C   UNL     1       9.262  12.572  19.063  0.00  0.00    +0.000 A 
ATOM     32  C   UNL     1       8.540  12.216  17.916  0.00  0.00    +0.000 A 
ATOM     33  C   UNL     1       8.320  10.850  17.643  0.00  0.00    +0.000 A 
BRANCH  31  34
ATOM     34  O   UNL     1       9.666  13.811  19.488  0.00  0.00    +0.000 OA
ATOM     35  C   UNL     1       9.683  14.098  20.877  0.00  0.00    +0.000 C 
ENDBRANCH  31  34
BRANCH  32  36
ATOM     36  O   UNL     1       8.073  13.221  17.112  0.00  0.00    +0.000 OA
ATOM     37  C   UNL     1       6.988  14.005  17.587  0.00  0.00    +0.000 C 
ENDBRANCH  32  36
ENDBRANCH  27  28
ENDBRANCH  24  26
ENDBRANCH   2  24
TORSDOF 14
ENDMDL
