MODEL 1
REMARK VINA RESULT:      -8.8      0.000      0.000
REMARK  Name = 
REMARK  5 active torsions:
REMARK  status: ('A' for Active; 'I' for Inactive)
REMARK    1  A    between atoms: C_1  and  C_2
REMARK    2  A    between atoms: C_6  and  S_7
REMARK    3  A    between atoms: S_7  and  N_10
REMARK    4  A    between atoms: C_14  and  C_15
REMARK    5  A    between atoms: C_28  and  C_30
REMARK                            x       y       z     vdW  Elec       q    Type
REMARK                         _______ _______ _______ _____ _____    ______ ____
ROOT
ATOM      1  S   UNL     1       0.788   9.061  20.869  0.00  0.00    +0.000 S 
ATOM      2  O   UNL     1      -0.413   8.314  21.171  0.00  0.00    +0.000 OA
ATOM      3  O   UNL     1       1.633   9.573  21.931  0.00  0.00    +0.000 OA
ENDROOT
BRANCH   1   9
ATOM      4  C   UNL     1       3.532   2.989  17.825  0.00  0.00    +0.000 C 
ATOM      5  C   UNL     1       4.209   4.204  18.469  0.00  0.00    +0.000 C 
ATOM      6  C   UNL     1       3.434   4.585  19.754  0.00  0.00    +0.000 C 
ATOM      7  C   UNL     1       2.947   5.959  19.443  0.00  0.00    +0.000 A 
ATOM      8  C   UNL     1       2.132   6.741  20.255  0.00  0.00    +0.000 A 
ATOM      9  C   UNL     1       1.808   8.029  19.824  0.00  0.00    +0.000 A 
ATOM     10  C   UNL     1       2.350   8.532  18.628  0.00  0.00    +0.000 A 
ATOM     11  C   UNL     1       3.166   7.722  17.822  0.00  0.00    +0.000 A 
ATOM     12  C   UNL     1       3.445   6.422  18.228  0.00  0.00    +0.000 A 
ATOM     13  N   UNL     1       4.229   5.418  17.598  0.00  0.00    +0.000 N 
ATOM     14  C   UNL     1       4.941   5.616  16.417  0.00  0.00    +0.000 C 
ATOM     15  O   UNL     1       4.893   6.641  15.743  0.00  0.00    +0.000 OA
BRANCH  14  16
ATOM     16  C   UNL     1       5.857   4.518  15.942  0.00  0.00    +0.000 C 
ATOM     17  C   UNL     1       5.772   4.035  14.506  0.00  0.00    +0.000 C 
ATOM     18  C   UNL     1       6.960   4.833  14.956  0.00  0.00    +0.000 C 
ENDBRANCH  14  16
ENDBRANCH   1   9
BRANCH   1  19
ATOM     19  N   UNL     1       0.347  10.381  19.857  0.00  0.00    +0.000 NA
ATOM     20  C   UNL     1      -1.066  10.391  19.413  0.00  0.00    +0.000 C 
ATOM     21  C   UNL     1      -1.271  11.445  18.327  0.00  0.00    +0.000 C 
ATOM     22  C   UNL     1      -0.840  12.830  18.807  0.00  0.00    +0.000 C 
ATOM     23  C   UNL     1       0.627  12.797  19.241  0.00  0.00    +0.000 C 
ATOM     24  C   UNL     1       0.842  11.712  20.310  0.00  0.00    +0.000 C 
BRANCH  23  25
ATOM     25  C   UNL     1       1.078  14.129  19.842  0.00  0.00    +0.000 C 
ATOM     26  O   UNL     1       0.320  14.756  20.586  0.00  0.00    +0.000 OA
ATOM     27  N   UNL     1       2.355  14.589  19.564  0.00  0.00    +0.000 N 
ATOM     28  C   UNL     1       2.910  15.666  20.384  0.00  0.00    +0.000 C 
ATOM     29  C   UNL     1       3.204  16.901  19.543  0.00  0.00    +0.000 C 
ATOM     30  C   UNL     1       4.096  16.545  18.355  0.00  0.00    +0.000 C 
ATOM     31  C   UNL     1       3.498  15.391  17.548  0.00  0.00    +0.000 C 
ATOM     32  C   UNL     1       3.194  14.182  18.438  0.00  0.00    +0.000 C 
ENDBRANCH  23  25
ENDBRANCH   1  19
TORSDOF 4
ENDMDL
MODEL 2
REMARK VINA RESULT:      -8.6      0.910      1.015
REMARK  Name = 
REMARK  5 active torsions:
REMARK  status: ('A' for Active; 'I' for Inactive)
REMARK    1  A    between atoms: C_1  and  C_2
REMARK    2  A    between atoms: C_6  and  S_7
REMARK    3  A    between atoms: S_7  and  N_10
REMARK    4  A    between atoms: C_14  and  C_15
REMARK    5  A    between atoms: C_28  and  C_30
REMARK                            x       y       z     vdW  Elec       q    Type
REMARK                         _______ _______ _______ _____ _____    ______ ____
ROOT
ATOM      1  S   UNL     1       0.845   8.761  21.008  0.00  0.00    +0.000 S 
ATOM      2  O   UNL     1      -0.413   8.059  21.145  0.00  0.00    +0.000 OA
ATOM      3  O   UNL     1       1.652   9.076  22.171  0.00  0.00    +0.000 OA
ENDROOT
BRANCH   1   9
ATOM      4  C   UNL     1       3.624   2.930  17.554  0.00  0.00    +0.000 C 
ATOM      5  C   UNL     1       4.294   4.108  18.269  0.00  0.00    +0.000 C 
ATOM      6  C   UNL     1       3.527   4.396  19.583  0.00  0.00    +0.000 C 
ATOM      7  C   UNL     1       3.023   5.781  19.366  0.00  0.00    +0.000 A 
ATOM      8  C   UNL     1       2.208   6.500  20.234  0.00  0.00    +0.000 A 
ATOM      9  C   UNL     1       1.866   7.810  19.890  0.00  0.00    +0.000 A 
ATOM     10  C   UNL     1       2.390   8.395  18.724  0.00  0.00    +0.000 A 
ATOM     11  C   UNL     1       3.208   7.648  17.860  0.00  0.00    +0.000 A 
ATOM     12  C   UNL     1       3.505   6.328  18.179  0.00  0.00    +0.000 A 
ATOM     13  N   UNL     1       4.293   5.376  17.478  0.00  0.00    +0.000 N 
ATOM     14  C   UNL     1       4.992   5.657  16.306  0.00  0.00    +0.000 C 
ATOM     15  O   UNL     1       4.926   6.723  15.700  0.00  0.00    +0.000 OA
BRANCH  14  16
ATOM     16  C   UNL     1       5.914   4.603  15.753  0.00  0.00    +0.000 C 
ATOM     17  C   UNL     1       5.724   4.105  14.332  0.00  0.00    +0.000 C 
ATOM     18  C   UNL     1       6.907   4.965  14.669  0.00  0.00    +0.000 C 
ENDBRANCH  14  16
ENDBRANCH   1   9
BRANCH   1  19
ATOM     19  N   UNL     1       0.540  10.226  20.159  0.00  0.00    +0.000 NA
ATOM     20  C   UNL     1      -0.790  10.315  19.511  0.00  0.00    +0.000 C 
ATOM     21  C   UNL     1      -0.845  11.527  18.584  0.00  0.00    +0.000 C 
ATOM     22  C   UNL     1      -0.516  12.818  19.335  0.00  0.00    +0.000 C 
ATOM     23  C   UNL     1       0.869  12.707  19.977  0.00  0.00    +0.000 C 
ATOM     24  C   UNL     1       0.938  11.466  20.884  0.00  0.00    +0.000 C 
BRANCH  23  25
ATOM     25  C   UNL     1       1.201  13.924  20.840  0.00  0.00    +0.000 C 
ATOM     26  O   UNL     1       0.943  13.912  22.046  0.00  0.00    +0.000 OA
ATOM     27  N   UNL     1       1.821  15.013  20.250  0.00  0.00    +0.000 N 
ATOM     28  C   UNL     1       2.438  16.024  21.108  0.00  0.00    +0.000 C 
ATOM     29  C   UNL     1       1.775  17.383  20.920  0.00  0.00    +0.000 C 
ATOM     30  C   UNL     1       1.774  17.783  19.446  0.00  0.00    +0.000 C 
ATOM     31  C   UNL     1       1.157  16.683  18.581  0.00  0.00    +0.000 C 
ATOM     32  C   UNL     1       1.836  15.331  18.823  0.00  0.00    +0.000 C 
ENDBRANCH  23  25
ENDBRANCH   1  19
TORSDOF 4
ENDMDL
MODEL 3
REMARK VINA RESULT:      -8.3      1.781      2.087
REMARK  Name = 
REMARK  5 active torsions:
REMARK  status: ('A' for Active; 'I' for Inactive)
REMARK    1  A    between atoms: C_1  and  C_2
REMARK    2  A    between atoms: C_6  and  S_7
REMARK    3  A    between atoms: S_7  and  N_10
REMARK    4  A    between atoms: C_14  and  C_15
REMARK    5  A    between atoms: C_28  and  C_30
REMARK                            x       y       z     vdW  Elec       q    Type
REMARK                         _______ _______ _______ _____ _____    ______ ____
ROOT
ATOM      1  S   UNL     1       0.544   9.167  21.008  0.00  0.00    +0.000 S 
ATOM      2  O   UNL     1      -0.506   8.345  21.570  0.00  0.00    +0.000 OA
ATOM      3  O   UNL     1       1.425   9.935  21.866  0.00  0.00    +0.000 OA
ENDROOT
BRANCH   1   9
ATOM      4  C   UNL     1       3.148   3.022  17.987  0.00  0.00    +0.000 C 
ATOM      5  C   UNL     1       3.847   4.186  18.698  0.00  0.00    +0.000 C 
ATOM      6  C   UNL     1       3.017   4.580  19.944  0.00  0.00    +0.000 C 
ATOM      7  C   UNL     1       2.621   5.984  19.638  0.00  0.00    +0.000 A 
ATOM      8  C   UNL     1       1.801   6.791  20.419  0.00  0.00    +0.000 A 
ATOM      9  C   UNL     1       1.570   8.104  20.001  0.00  0.00    +0.000 A 
ATOM     10  C   UNL     1       2.208   8.602  18.852  0.00  0.00    +0.000 A 
ATOM     11  C   UNL     1       3.028   7.766  18.076  0.00  0.00    +0.000 A 
ATOM     12  C   UNL     1       3.215   6.446  18.466  0.00  0.00    +0.000 A 
ATOM     13  N   UNL     1       3.982   5.415  17.859  0.00  0.00    +0.000 N 
ATOM     14  C   UNL     1       4.773   5.599  16.727  0.00  0.00    +0.000 C 
ATOM     15  O   UNL     1       4.819   6.640  16.076  0.00  0.00    +0.000 OA
BRANCH  14  16
ATOM     16  C   UNL     1       5.658   4.465  16.281  0.00  0.00    +0.000 C 
ATOM     17  C   UNL     1       5.749   4.115  14.807  0.00  0.00    +0.000 C 
ATOM     18  C   UNL     1       6.917   4.757  15.494  0.00  0.00    +0.000 C 
ENDBRANCH  14  16
ENDBRANCH   1   9
BRANCH   1  19
ATOM     19  N   UNL     1      -0.178  10.247  19.881  0.00  0.00    +0.000 NA
ATOM     20  C   UNL     1      -1.130   9.625  18.931  0.00  0.00    +0.000 C 
ATOM     21  C   UNL     1      -1.501  10.616  17.831  0.00  0.00    +0.000 C 
ATOM     22  C   UNL     1      -2.078  11.906  18.414  0.00  0.00    +0.000 C 
ATOM     23  C   UNL     1      -1.068  12.538  19.376  0.00  0.00    +0.000 C 
ATOM     24  C   UNL     1      -0.666  11.529  20.465  0.00  0.00    +0.000 C 
BRANCH  23  25
ATOM     25  C   UNL     1      -1.638  13.770  20.080  0.00  0.00    +0.000 C 
ATOM     26  O   UNL     1      -2.685  13.678  20.727  0.00  0.00    +0.000 OA
ATOM     27  N   UNL     1      -0.943  14.965  20.003  0.00  0.00    +0.000 N 
ATOM     28  C   UNL     1      -1.290  16.043  20.929  0.00  0.00    +0.000 C 
ATOM     29  C   UNL     1      -1.791  17.272  20.181  0.00  0.00    +0.000 C 
ATOM     30  C   UNL     1      -0.780  17.708  19.122  0.00  0.00    +0.000 C 
ATOM     31  C   UNL     1      -0.417  16.542  18.200  0.00  0.00    +0.000 C 
ATOM     32  C   UNL     1       0.055  15.321  18.996  0.00  0.00    +0.000 C 
ENDBRANCH  23  25
ENDBRANCH   1  19
TORSDOF 4
ENDMDL
MODEL 4
REMARK VINA RESULT:      -8.2      1.396      1.663
REMARK  Name = 
REMARK  5 active torsions:
REMARK  status: ('A' for Active; 'I' for Inactive)
REMARK    1  A    between atoms: C_1  and  C_2
REMARK    2  A    between atoms: C_6  and  S_7
REMARK    3  A    between atoms: S_7  and  N_10
REMARK    4  A    between atoms: C_14  and  C_15
REMARK    5  A    between atoms: C_28  and  C_30
REMARK                            x       y       z     vdW  Elec       q    Type
REMARK                         _______ _______ _______ _____ _____    ______ ____
ROOT
ATOM      1  S   UNL     1       0.356   9.897  20.187  0.00  0.00    +0.000 S 
ATOM      2  O   UNL     1      -0.972   9.613  19.687  0.00  0.00    +0.000 OA
ATOM      3  O   UNL     1       0.646   9.829  21.607  0.00  0.00    +0.000 OA
ENDROOT
BRANCH   1   9
ATOM      4  C   UNL     1       3.526   3.620  18.138  0.00  0.00    +0.000 C 
ATOM      5  C   UNL     1       4.111   4.933  18.667  0.00  0.00    +0.000 C 
ATOM      6  C   UNL     1       3.230   5.437  19.837  0.00  0.00    +0.000 C 
ATOM      7  C   UNL     1       2.721   6.739  19.321  0.00  0.00    +0.000 A 
ATOM      8  C   UNL     1       1.821   7.579  19.968  0.00  0.00    +0.000 A 
ATOM      9  C   UNL     1       1.485   8.789  19.356  0.00  0.00    +0.000 A 
ATOM     10  C   UNL     1       2.096   9.162  18.146  0.00  0.00    +0.000 A 
ATOM     11  C   UNL     1       2.998   8.294  17.508  0.00  0.00    +0.000 A 
ATOM     12  C   UNL     1       3.291   7.069  18.094  0.00  0.00    +0.000 A 
ATOM     13  N   UNL     1       4.154   6.029  17.652  0.00  0.00    +0.000 N 
ATOM     14  C   UNL     1       4.944   6.110  16.508  0.00  0.00    +0.000 C 
ATOM     15  O   UNL     1       4.910   7.040  15.707  0.00  0.00    +0.000 OA
BRANCH  14  16
ATOM     16  C   UNL     1       5.930   5.002  16.241  0.00  0.00    +0.000 C 
ATOM     17  C   UNL     1       5.677   4.025  15.108  0.00  0.00    +0.000 C 
ATOM     18  C   UNL     1       6.778   5.036  14.988  0.00  0.00    +0.000 C 
ENDBRANCH  14  16
ENDBRANCH   1   9
BRANCH   1  19
ATOM     19  N   UNL     1       0.807  11.460  19.626  0.00  0.00    +0.000 NA
ATOM     20  C   UNL     1      -0.302  12.281  19.087  0.00  0.00    +0.000 C 
ATOM     21  C   UNL     1       0.251  13.522  18.389  0.00  0.00    +0.000 C 
ATOM     22  C   UNL     1       1.131  14.344  19.331  0.00  0.00    +0.000 C 
ATOM     23  C   UNL     1       2.279  13.478  19.857  0.00  0.00    +0.000 C 
ATOM     24  C   UNL     1       1.725  12.210  20.529  0.00  0.00    +0.000 C 
BRANCH  23  25
ATOM     25  C   UNL     1       3.124  14.215  20.897  0.00  0.00    +0.000 C 
ATOM     26  O   UNL     1       2.758  14.250  22.074  0.00  0.00    +0.000 OA
ATOM     27  N   UNL     1       4.311  14.806  20.496  0.00  0.00    +0.000 N 
ATOM     28  C   UNL     1       5.276  15.213  21.517  0.00  0.00    +0.000 C 
ATOM     29  C   UNL     1       5.509  16.718  21.484  0.00  0.00    +0.000 C 
ATOM     30  C   UNL     1       5.910  17.171  20.081  0.00  0.00    +0.000 C 
ATOM     31  C   UNL     1       4.896  16.692  19.041  0.00  0.00    +0.000 C 
ATOM     32  C   UNL     1       4.673  15.178  19.129  0.00  0.00    +0.000 C 
ENDBRANCH  23  25
ENDBRANCH   1  19
TORSDOF 4
ENDMDL
MODEL 5
REMARK VINA RESULT:      -7.9      1.237      1.553
REMARK  Name = 
REMARK  5 active torsions:
REMARK  status: ('A' for Active; 'I' for Inactive)
REMARK    1  A    between atoms: C_1  and  C_2
REMARK    2  A    between atoms: C_6  and  S_7
REMARK    3  A    between atoms: S_7  and  N_10
REMARK    4  A    between atoms: C_14  and  C_15
REMARK    5  A    between atoms: C_28  and  C_30
REMARK                            x       y       z     vdW  Elec       q    Type
REMARK                         _______ _______ _______ _____ _____    ______ ____
ROOT
ATOM      1  S   UNL     1       0.653   8.970  21.218  0.00  0.00    +0.000 S 
ATOM      2  O   UNL     1      -0.545   8.215  21.516  0.00  0.00    +0.000 OA
ATOM      3  O   UNL     1       1.521   9.438  22.281  0.00  0.00    +0.000 OA
ENDROOT
BRANCH   1   9
ATOM      4  C   UNL     1       3.211   3.022  17.791  0.00  0.00    +0.000 C 
ATOM      5  C   UNL     1       3.924   4.164  18.523  0.00  0.00    +0.000 C 
ATOM      6  C   UNL     1       3.148   4.485  19.823  0.00  0.00    +0.000 C 
ATOM      7  C   UNL     1       2.715   5.894  19.603  0.00  0.00    +0.000 A 
ATOM      8  C   UNL     1       1.920   6.648  20.459  0.00  0.00    +0.000 A 
ATOM      9  C   UNL     1       1.647   7.974  20.115  0.00  0.00    +0.000 A 
ATOM     10  C   UNL     1       2.221   8.537  18.961  0.00  0.00    +0.000 A 
ATOM     11  C   UNL     1       3.017   7.754  18.109  0.00  0.00    +0.000 A 
ATOM     12  C   UNL     1       3.244   6.420  18.428  0.00  0.00    +0.000 A 
ATOM     13  N   UNL     1       3.999   5.433  17.737  0.00  0.00    +0.000 N 
ATOM     14  C   UNL     1       4.732   5.685  16.579  0.00  0.00    +0.000 C 
ATOM     15  O   UNL     1       4.728   6.755  15.977  0.00  0.00    +0.000 OA
BRANCH  14  16
ATOM     16  C   UNL     1       5.612   4.589  16.039  0.00  0.00    +0.000 C 
ATOM     17  C   UNL     1       5.558   4.237  14.564  0.00  0.00    +0.000 C 
ATOM     18  C   UNL     1       6.764   4.934  15.120  0.00  0.00    +0.000 C 
ENDBRANCH  14  16
ENDBRANCH   1   9
BRANCH   1  19
ATOM     19  N   UNL     1       0.197  10.328  20.266  0.00  0.00    +0.000 NA
ATOM     20  C   UNL     1      -0.888  10.077  19.288  0.00  0.00    +0.000 C 
ATOM     21  C   UNL     1      -1.024  11.263  18.335  0.00  0.00    +0.000 C 
ATOM     22  C   UNL     1      -1.267  12.565  19.099  0.00  0.00    +0.000 C 
ATOM     23  C   UNL     1      -0.124  12.810  20.086  0.00  0.00    +0.000 C 
ATOM     24  C   UNL     1       0.038  11.601  21.024  0.00  0.00    +0.000 C 
BRANCH  23  25
ATOM     25  C   UNL     1      -0.373  14.038  20.961  0.00  0.00    +0.000 C 
ATOM     26  O   UNL     1      -1.527  14.429  21.157  0.00  0.00    +0.000 OA
ATOM     27  N   UNL     1       0.709  14.672  21.548  0.00  0.00    +0.000 N 
ATOM     28  C   UNL     1       0.467  15.621  22.635  0.00  0.00    +0.000 C 
ATOM     29  C   UNL     1       0.940  17.019  22.260  0.00  0.00    +0.000 C 
ATOM     30  C   UNL     1       2.401  16.993  21.817  0.00  0.00    +0.000 C 
ATOM     31  C   UNL     1       2.618  15.962  20.707  0.00  0.00    +0.000 C 
ATOM     32  C   UNL     1       2.103  14.579  21.118  0.00  0.00    +0.000 C 
ENDBRANCH  23  25
ENDBRANCH   1  19
TORSDOF 4
ENDMDL
MODEL 6
REMARK VINA RESULT:      -7.9      2.356      3.468
REMARK  Name = 
REMARK  5 active torsions:
REMARK  status: ('A' for Active; 'I' for Inactive)
REMARK    1  A    between atoms: C_1  and  C_2
REMARK    2  A    between atoms: C_6  and  S_7
REMARK    3  A    between atoms: S_7  and  N_10
REMARK    4  A    between atoms: C_14  and  C_15
REMARK    5  A    between atoms: C_28  and  C_30
REMARK                            x       y       z     vdW  Elec       q    Type
REMARK                         _______ _______ _______ _____ _____    ______ ____
ROOT
ATOM      1  S   UNL     1       0.595   8.804  21.413  0.00  0.00    +0.000 S 
ATOM      2  O   UNL     1      -0.597   8.040  21.713  0.00  0.00    +0.000 OA
ATOM      3  O   UNL     1       1.477   9.252  22.473  0.00  0.00    +0.000 OA
ENDROOT
BRANCH   1   9
ATOM      4  C   UNL     1       3.035   2.959  17.733  0.00  0.00    +0.000 C 
ATOM      5  C   UNL     1       3.769   4.046  18.526  0.00  0.00    +0.000 C 
ATOM      6  C   UNL     1       2.986   4.325  19.832  0.00  0.00    +0.000 C 
ATOM      7  C   UNL     1       2.593   5.754  19.675  0.00  0.00    +0.000 A 
ATOM      8  C   UNL     1       1.808   6.488  20.558  0.00  0.00    +0.000 A 
ATOM      9  C   UNL     1       1.575   7.836  20.274  0.00  0.00    +0.000 A 
ATOM     10  C   UNL     1       2.177   8.438  19.155  0.00  0.00    +0.000 A 
ATOM     11  C   UNL     1       2.962   7.674  18.274  0.00  0.00    +0.000 A 
ATOM     12  C   UNL     1       3.150   6.321  18.532  0.00  0.00    +0.000 A 
ATOM     13  N   UNL     1       3.886   5.348  17.803  0.00  0.00    +0.000 N 
ATOM     14  C   UNL     1       4.639   5.635  16.666  0.00  0.00    +0.000 C 
ATOM     15  O   UNL     1       4.671   6.732  16.115  0.00  0.00    +0.000 OA
BRANCH  14  16
ATOM     16  C   UNL     1       5.496   4.542  16.083  0.00  0.00    +0.000 C 
ATOM     17  C   UNL     1       5.608   4.394  14.576  0.00  0.00    +0.000 C 
ATOM     18  C   UNL     1       6.780   4.897  15.365  0.00  0.00    +0.000 C 
ENDBRANCH  14  16
ENDBRANCH   1   9
BRANCH   1  19
ATOM     19  N   UNL     1       0.121  10.182  20.497  0.00  0.00    +0.000 NA
ATOM     20  C   UNL     1      -0.858   9.915  19.417  0.00  0.00    +0.000 C 
ATOM     21  C   UNL     1      -1.001  11.142  18.520  0.00  0.00    +0.000 C 
ATOM     22  C   UNL     1      -1.401  12.377  19.326  0.00  0.00    +0.000 C 
ATOM     23  C   UNL     1      -0.365  12.642  20.421  0.00  0.00    +0.000 C 
ATOM     24  C   UNL     1      -0.194  11.394  21.305  0.00  0.00    +0.000 C 
BRANCH  23  25
ATOM     25  C   UNL     1      -0.776  13.797  21.334  0.00  0.00    +0.000 C 
ATOM     26  O   UNL     1       0.005  14.731  21.534  0.00  0.00    +0.000 OA
ATOM     27  N   UNL     1      -2.042  13.787  21.896  0.00  0.00    +0.000 N 
ATOM     28  C   UNL     1      -2.563  15.021  22.484  0.00  0.00    +0.000 C 
ATOM     29  C   UNL     1      -2.831  14.849  23.974  0.00  0.00    +0.000 C 
ATOM     30  C   UNL     1      -3.743  13.648  24.222  0.00  0.00    +0.000 C 
ATOM     31  C   UNL     1      -3.182  12.389  23.558  0.00  0.00    +0.000 C 
ATOM     32  C   UNL     1      -2.902  12.617  22.069  0.00  0.00    +0.000 C 
ENDBRANCH  23  25
ENDBRANCH   1  19
TORSDOF 4
ENDMDL
MODEL 7
REMARK VINA RESULT:      -7.9      1.693      2.572
REMARK  Name = 
REMARK  5 active torsions:
REMARK  status: ('A' for Active; 'I' for Inactive)
REMARK    1  A    between atoms: C_1  and  C_2
REMARK    2  A    between atoms: C_6  and  S_7
REMARK    3  A    between atoms: S_7  and  N_10
REMARK    4  A    between atoms: C_14  and  C_15
REMARK    5  A    between atoms: C_28  and  C_30
REMARK                            x       y       z     vdW  Elec       q    Type
REMARK                         _______ _______ _______ _____ _____    ______ ____
ROOT
ATOM      1  S   UNL     1       0.787   8.894  20.951  0.00  0.00    +0.000 S 
ATOM      2  O   UNL     1      -0.428   8.151  21.204  0.00  0.00    +0.000 OA
ATOM      3  O   UNL     1       1.629   9.340  22.045  0.00  0.00    +0.000 OA
ENDROOT
BRANCH   1   9
ATOM      4  C   UNL     1       3.486   2.940  17.645  0.00  0.00    +0.000 C 
ATOM      5  C   UNL     1       4.172   4.117  18.347  0.00  0.00    +0.000 C 
ATOM      6  C   UNL     1       3.393   4.446  19.644  0.00  0.00    +0.000 C 
ATOM      7  C   UNL     1       2.922   5.838  19.395  0.00  0.00    +0.000 A 
ATOM      8  C   UNL     1       2.111   6.591  20.238  0.00  0.00    +0.000 A 
ATOM      9  C   UNL     1       1.802   7.901  19.865  0.00  0.00    +0.000 A 
ATOM     10  C   UNL     1       2.356   8.453  18.696  0.00  0.00    +0.000 A 
ATOM     11  C   UNL     1       3.168   7.671  17.857  0.00  0.00    +0.000 A 
ATOM     12  C   UNL     1       3.432   6.351  18.205  0.00  0.00    +0.000 A 
ATOM     13  N   UNL     1       4.209   5.370  17.533  0.00  0.00    +0.000 N 
ATOM     14  C   UNL     1       4.929   5.614  16.366  0.00  0.00    +0.000 C 
ATOM     15  O   UNL     1       4.895   6.670  15.739  0.00  0.00    +0.000 OA
BRANCH  14  16
ATOM     16  C   UNL     1       5.836   4.529  15.846  0.00  0.00    +0.000 C 
ATOM     17  C   UNL     1       5.727   4.085  14.398  0.00  0.00    +0.000 C 
ATOM     18  C   UNL     1       6.922   4.871  14.849  0.00  0.00    +0.000 C 
ENDBRANCH  14  16
ENDBRANCH   1   9
BRANCH   1  19
ATOM     19  N   UNL     1       0.375  10.270  20.002  0.00  0.00    +0.000 NA
ATOM     20  C   UNL     1      -0.931  10.189  19.308  0.00  0.00    +0.000 C 
ATOM     21  C   UNL     1      -1.068  11.333  18.306  0.00  0.00    +0.000 C 
ATOM     22  C   UNL     1      -0.894  12.691  18.985  0.00  0.00    +0.000 C 
ATOM     23  C   UNL     1       0.470  12.755  19.676  0.00  0.00    +0.000 C 
ATOM     24  C   UNL     1       0.624  11.584  20.661  0.00  0.00    +0.000 C 
BRANCH  23  25
ATOM     25  C   UNL     1       0.650  14.049  20.472  0.00  0.00    +0.000 C 
ATOM     26  O   UNL     1       1.679  14.715  20.337  0.00  0.00    +0.000 OA
ATOM     27  N   UNL     1      -0.371  14.465  21.311  0.00  0.00    +0.000 N 
ATOM     28  C   UNL     1      -0.357  15.841  21.808  0.00  0.00    +0.000 C 
ATOM     29  C   UNL     1      -0.250  15.875  23.327  0.00  0.00    +0.000 C 
ATOM     30  C   UNL     1      -1.351  15.029  23.965  0.00  0.00    +0.000 C 
ATOM     31  C   UNL     1      -1.354  13.611  23.388  0.00  0.00    +0.000 C 
ATOM     32  C   UNL     1      -1.435  13.627  21.859  0.00  0.00    +0.000 C 
ENDBRANCH  23  25
ENDBRANCH   1  19
TORSDOF 4
ENDMDL
MODEL 8
REMARK VINA RESULT:      -7.8      3.556      5.442
REMARK  Name = 
REMARK  5 active torsions:
REMARK  status: ('A' for Active; 'I' for Inactive)
REMARK    1  A    between atoms: C_1  and  C_2
REMARK    2  A    between atoms: C_6  and  S_7
REMARK    3  A    between atoms: S_7  and  N_10
REMARK    4  A    between atoms: C_14  and  C_15
REMARK    5  A    between atoms: C_28  and  C_30
REMARK                            x       y       z     vdW  Elec       q    Type
REMARK                         _______ _______ _______ _____ _____    ______ ____
ROOT
ATOM      1  S   UNL     1       0.092  11.885  19.253  0.00  0.00    +0.000 S 
ATOM      2  O   UNL     1       1.106  12.877  19.539  0.00  0.00    +0.000 OA
ATOM      3  O   UNL     1      -0.801  12.040  18.121  0.00  0.00    +0.000 OA
ENDROOT
BRANCH   1   9
ATOM      4  C   UNL     1       1.429   4.720  19.984  0.00  0.00    +0.000 C 
ATOM      5  C   UNL     1       2.318   5.951  20.193  0.00  0.00    +0.000 C 
ATOM      6  C   UNL     1       1.500   7.039  20.930  0.00  0.00    +0.000 C 
ATOM      7  C   UNL     1       1.473   8.151  19.939  0.00  0.00    +0.000 A 
ATOM      8  C   UNL     1       0.801   9.361  20.084  0.00  0.00    +0.000 A 
ATOM      9  C   UNL     1       0.923  10.313  19.070  0.00  0.00    +0.000 A 
ATOM     10  C   UNL     1       1.757  10.066  17.965  0.00  0.00    +0.000 A 
ATOM     11  C   UNL     1       2.421   8.835  17.837  0.00  0.00    +0.000 A 
ATOM     12  C   UNL     1       2.258   7.870  18.824  0.00  0.00    +0.000 A 
ATOM     13  N   UNL     1       2.810   6.564  18.922  0.00  0.00    +0.000 N 
ATOM     14  C   UNL     1       3.718   6.033  18.007  0.00  0.00    +0.000 C 
ATOM     15  O   UNL     1       4.062   6.593  16.970  0.00  0.00    +0.000 OA
BRANCH  14  16
ATOM     16  C   UNL     1       4.345   4.699  18.316  0.00  0.00    +0.000 C 
ATOM     17  C   UNL     1       3.875   3.457  17.581  0.00  0.00    +0.000 C 
ATOM     18  C   UNL     1       5.230   4.029  17.287  0.00  0.00    +0.000 C 
ENDBRANCH  14  16
ENDBRANCH   1   9
BRANCH   1  19
ATOM     19  N   UNL     1      -0.869  11.693  20.667  0.00  0.00    +0.000 NA
ATOM     20  C   UNL     1      -0.112  11.427  21.913  0.00  0.00    +0.000 C 
ATOM     21  C   UNL     1      -1.067  11.020  23.034  0.00  0.00    +0.000 C 
ATOM     22  C   UNL     1      -2.141  12.083  23.263  0.00  0.00    +0.000 C 
ATOM     23  C   UNL     1      -2.920  12.324  21.967  0.00  0.00    +0.000 C 
ATOM     24  C   UNL     1      -1.956  12.700  20.829  0.00  0.00    +0.000 C 
BRANCH  23  25
ATOM     25  C   UNL     1      -3.930  13.463  22.107  0.00  0.00    +0.000 C 
ATOM     26  O   UNL     1      -3.721  14.374  22.912  0.00  0.00    +0.000 OA
ATOM     27  N   UNL     1      -5.052  13.464  21.295  0.00  0.00    +0.000 N 
ATOM     28  C   UNL     1      -5.838  14.693  21.180  0.00  0.00    +0.000 C 
ATOM     29  C   UNL     1      -7.258  14.487  21.691  0.00  0.00    +0.000 C 
ATOM     30  C   UNL     1      -7.916  13.300  20.991  0.00  0.00    +0.000 C 
ATOM     31  C   UNL     1      -7.045  12.047  21.102  0.00  0.00    +0.000 C 
ATOM     32  C   UNL     1      -5.620  12.308  20.603  0.00  0.00    +0.000 C 
ENDBRANCH  23  25
ENDBRANCH   1  19
TORSDOF 4
ENDMDL
MODEL 9
REMARK VINA RESULT:      -7.8      3.281      5.455
REMARK  Name = 
REMARK  5 active torsions:
REMARK  status: ('A' for Active; 'I' for Inactive)
REMARK    1  A    between atoms: C_1  and  C_2
REMARK    2  A    between atoms: C_6  and  S_7
REMARK    3  A    between atoms: S_7  and  N_10
REMARK    4  A    between atoms: C_14  and  C_15
REMARK    5  A    between atoms: C_28  and  C_30
REMARK                            x       y       z     vdW  Elec       q    Type
REMARK                         _______ _______ _______ _____ _____    ______ ____
ROOT
ATOM      1  S   UNL     1       0.254  12.176  19.345  0.00  0.00    +0.000 S 
ATOM      2  O   UNL     1       1.293  13.057  19.831  0.00  0.00    +0.000 OA
ATOM      3  O   UNL     1      -0.454  12.469  18.113  0.00  0.00    +0.000 OA
ENDROOT
BRANCH   1   9
ATOM      4  C   UNL     1       1.152   4.959  20.227  0.00  0.00    +0.000 C 
ATOM      5  C   UNL     1       2.127   6.134  20.367  0.00  0.00    +0.000 C 
ATOM      6  C   UNL     1       1.409   7.292  21.104  0.00  0.00    +0.000 C 
ATOM      7  C   UNL     1       1.416   8.378  20.083  0.00  0.00    +0.000 A 
ATOM      8  C   UNL     1       0.830   9.632  20.220  0.00  0.00    +0.000 A 
ATOM      9  C   UNL     1       0.973  10.548  19.175  0.00  0.00    +0.000 A 
ATOM     10  C   UNL     1       1.746  10.219  18.047  0.00  0.00    +0.000 A 
ATOM     11  C   UNL     1       2.324   8.944  17.929  0.00  0.00    +0.000 A 
ATOM     12  C   UNL     1       2.137   8.017  18.948  0.00  0.00    +0.000 A 
ATOM     13  N   UNL     1       2.607   6.681  19.062  0.00  0.00    +0.000 N 
ATOM     14  C   UNL     1       3.442   6.068  18.130  0.00  0.00    +0.000 C 
ATOM     15  O   UNL     1       3.781   6.577  17.065  0.00  0.00    +0.000 OA
BRANCH  14  16
ATOM     16  C   UNL     1       3.993   4.704  18.452  0.00  0.00    +0.000 C 
ATOM     17  C   UNL     1       3.442   3.481  17.742  0.00  0.00    +0.000 C 
ATOM     18  C   UNL     1       4.825   3.968  17.425  0.00  0.00    +0.000 C 
ENDBRANCH  14  16
ENDBRANCH   1   9
BRANCH   1  19
ATOM     19  N   UNL     1      -0.911  11.994  20.598  0.00  0.00    +0.000 NA
ATOM     20  C   UNL     1      -0.410  12.254  21.968  0.00  0.00    +0.000 C 
ATOM     21  C   UNL     1      -1.445  11.814  23.001  0.00  0.00    +0.000 C 
ATOM     22  C   UNL     1      -2.789  12.505  22.771  0.00  0.00    +0.000 C 
ATOM     23  C   UNL     1      -3.293  12.204  21.357  0.00  0.00    +0.000 C 
ATOM     24  C   UNL     1      -2.237  12.614  20.316  0.00  0.00    +0.000 C 
BRANCH  23  25
ATOM     25  C   UNL     1      -4.578  12.966  21.031  0.00  0.00    +0.000 C 
ATOM     26  O   UNL     1      -5.112  13.668  21.893  0.00  0.00    +0.000 OA
ATOM     27  N   UNL     1      -5.101  12.877  19.751  0.00  0.00    +0.000 N 
ATOM     28  C   UNL     1      -6.116  13.845  19.336  0.00  0.00    +0.000 C 
ATOM     29  C   UNL     1      -7.431  13.153  19.001  0.00  0.00    +0.000 C 
ATOM     30  C   UNL     1      -7.212  12.049  17.967  0.00  0.00    +0.000 C 
ATOM     31  C   UNL     1      -6.117  11.083  18.423  0.00  0.00    +0.000 C 
ATOM     32  C   UNL     1      -4.824  11.824  18.775  0.00  0.00    +0.000 C 
ENDBRANCH  23  25
ENDBRANCH   1  19
TORSDOF 4
ENDMDL
