MODEL 1
REMARK VINA RESULT:      -7.3      0.000      0.000
REMARK  Name = 
REMARK  2 active torsions:
REMARK  status: ('A' for Active; 'I' for Inactive)
REMARK    1  A    between atoms: C_11  and  C_12
REMARK    2  A    between atoms: C_12  and  C_13
REMARK                            x       y       z     vdW  Elec       q    Type
REMARK                         _______ _______ _______ _____ _____    ______ ____
ROOT
ATOM      1  N   UNL     1       0.636  10.846  22.056  0.00  0.00    +0.000 NA
ATOM      2  C   UNL     1      -0.185  11.087  21.101  0.00  0.00    +0.000 C 
ATOM      3  S   UNL     1      -1.430  12.267  21.355  0.00  0.00    +0.000 S 
ATOM      4  C   UNL     1      -2.018  12.128  19.659  0.00  0.00    +0.000 C 
ATOM      5  C   UNL     1      -1.145  11.104  18.969  0.00  0.00    +0.000 C 
ATOM      6  O   UNL     1      -1.360  10.809  17.798  0.00  0.00    +0.000 OA
ATOM      7  N   UNL     1      -0.200  10.580  19.836  0.00  0.00    +0.000 N 
ATOM      8  C   UNL     1       0.704   9.645  19.357  0.00  0.00    +0.000 A 
ATOM      9  N   UNL     1       1.079   9.513  18.103  0.00  0.00    +0.000 NA
ATOM     10  C   UNL     1       1.974   8.471  17.970  0.00  0.00    +0.000 A 
ATOM     11  C   UNL     1       2.238   7.765  19.123  0.00  0.00    +0.000 A 
ATOM     12  S   UNL     1       1.376   8.471  20.421  0.00  0.00    +0.000 S 
ATOM     13  H   UNL     1       0.358  11.429  22.855  0.00  0.00    +0.000 HD
ENDROOT
BRANCH  11  14
ATOM     14  C   UNL     1       3.090   6.549  19.318  0.00  0.00    +0.000 C 
BRANCH  14  15
ATOM     15  C   UNL     1       2.294   5.278  19.112  0.00  0.00    +0.000 A 
ATOM     16  C   UNL     1       1.591   4.699  20.180  0.00  0.00    +0.000 A 
ATOM     17  C   UNL     1       0.950   3.470  20.018  0.00  0.00    +0.000 A 
ATOM     18  C   UNL     1       1.009   2.823  18.790  0.00  0.00    +0.000 A 
ATOM     19  F   UNL     1       0.416   1.631  18.644  0.00  0.00    +0.000 F 
ATOM     20  C   UNL     1       1.683   3.387  17.714  0.00  0.00    +0.000 A 
ATOM     21  C   UNL     1       2.324   4.616  17.872  0.00  0.00    +0.000 A 
ENDBRANCH  14  15
ENDBRANCH  11  14
TORSDOF 2
ENDMDL
MODEL 2
REMARK VINA RESULT:      -7.3      0.292      1.118
REMARK  Name = 
REMARK  2 active torsions:
REMARK  status: ('A' for Active; 'I' for Inactive)
REMARK    1  A    between atoms: C_11  and  C_12
REMARK    2  A    between atoms: C_12  and  C_13
REMARK                            x       y       z     vdW  Elec       q    Type
REMARK                         _______ _______ _______ _____ _____    ______ ____
ROOT
ATOM      1  N   UNL     1       0.356  10.982  22.039  0.00  0.00    +0.000 NA
ATOM      2  C   UNL     1      -0.459  11.157  21.064  0.00  0.00    +0.000 C 
ATOM      3  S   UNL     1      -1.777  12.264  21.275  0.00  0.00    +0.000 S 
ATOM      4  C   UNL     1      -2.324  12.062  19.571  0.00  0.00    +0.000 C 
ATOM      5  C   UNL     1      -1.379  11.081  18.916  0.00  0.00    +0.000 C 
ATOM      6  O   UNL     1      -1.554  10.754  17.747  0.00  0.00    +0.000 OA
ATOM      7  N   UNL     1      -0.421  10.629  19.808  0.00  0.00    +0.000 N 
ATOM      8  C   UNL     1       0.546   9.742  19.363  0.00  0.00    +0.000 A 
ATOM      9  N   UNL     1       0.952   9.611  18.118  0.00  0.00    +0.000 NA
ATOM     10  C   UNL     1       1.909   8.622  18.020  0.00  0.00    +0.000 A 
ATOM     11  C   UNL     1       2.194   7.953  19.190  0.00  0.00    +0.000 A 
ATOM     12  S   UNL     1       1.267   8.629  20.459  0.00  0.00    +0.000 S 
ATOM     13  H   UNL     1       0.029  11.560  22.822  0.00  0.00    +0.000 HD
ENDROOT
BRANCH  11  14
ATOM     14  C   UNL     1       3.112   6.794  19.422  0.00  0.00    +0.000 C 
BRANCH  14  15
ATOM     15  C   UNL     1       2.391   5.474  19.250  0.00  0.00    +0.000 A 
ATOM     16  C   UNL     1       2.264   4.895  17.977  0.00  0.00    +0.000 A 
ATOM     17  C   UNL     1       1.505   3.737  17.803  0.00  0.00    +0.000 A 
ATOM     18  C   UNL     1       0.877   3.158  18.899  0.00  0.00    +0.000 A 
ATOM     19  F   UNL     1       0.127   2.062  18.724  0.00  0.00    +0.000 F 
ATOM     20  C   UNL     1       1.005   3.704  20.169  0.00  0.00    +0.000 A 
ATOM     21  C   UNL     1       1.764   4.861  20.348  0.00  0.00    +0.000 A 
ENDBRANCH  14  15
ENDBRANCH  11  14
TORSDOF 2
ENDMDL
MODEL 3
REMARK VINA RESULT:      -7.2      2.006      2.522
REMARK  Name = 
REMARK  2 active torsions:
REMARK  status: ('A' for Active; 'I' for Inactive)
REMARK    1  A    between atoms: C_11  and  C_12
REMARK    2  A    between atoms: C_12  and  C_13
REMARK                            x       y       z     vdW  Elec       q    Type
REMARK                         _______ _______ _______ _____ _____    ______ ____
ROOT
ATOM      1  N   UNL     1      -0.752  10.274  17.544  0.00  0.00    +0.000 NA
ATOM      2  C   UNL     1      -0.541  10.698  18.736  0.00  0.00    +0.000 C 
ATOM      3  S   UNL     1      -1.461  12.051  19.310  0.00  0.00    +0.000 S 
ATOM      4  C   UNL     1      -0.736  11.949  20.955  0.00  0.00    +0.000 C 
ATOM      5  C   UNL     1       0.237  10.792  20.939  0.00  0.00    +0.000 C 
ATOM      6  O   UNL     1       0.886  10.526  21.946  0.00  0.00    +0.000 OA
ATOM      7  N   UNL     1       0.291  10.194  19.691  0.00  0.00    +0.000 N 
ATOM      8  C   UNL     1       1.115   9.095  19.507  0.00  0.00    +0.000 A 
ATOM      9  N   UNL     1       1.513   8.269  20.451  0.00  0.00    +0.000 NA
ATOM     10  C   UNL     1       2.342   7.297  19.929  0.00  0.00    +0.000 A 
ATOM     11  C   UNL     1       2.627   7.418  18.587  0.00  0.00    +0.000 A 
ATOM     12  S   UNL     1       1.779   8.763  17.955  0.00  0.00    +0.000 S 
ATOM     13  H   UNL     1      -1.464  10.883  17.123  0.00  0.00    +0.000 HD
ENDROOT
BRANCH  11  14
ATOM     14  C   UNL     1       3.536   6.593  17.731  0.00  0.00    +0.000 C 
BRANCH  14  15
ATOM     15  C   UNL     1       3.412   5.119  18.053  0.00  0.00    +0.000 A 
ATOM     16  C   UNL     1       4.415   4.464  18.785  0.00  0.00    +0.000 A 
ATOM     17  C   UNL     1       4.355   3.085  18.987  0.00  0.00    +0.000 A 
ATOM     18  C   UNL     1       3.292   2.361  18.459  0.00  0.00    +0.000 A 
ATOM     19  F   UNL     1       3.251   1.033  18.630  0.00  0.00    +0.000 F 
ATOM     20  C   UNL     1       2.280   2.991  17.747  0.00  0.00    +0.000 A 
ATOM     21  C   UNL     1       2.336   4.371  17.545  0.00  0.00    +0.000 A 
ENDBRANCH  14  15
ENDBRANCH  11  14
TORSDOF 2
ENDMDL
MODEL 4
REMARK VINA RESULT:      -7.1      3.616      4.725
REMARK  Name = 
REMARK  2 active torsions:
REMARK  status: ('A' for Active; 'I' for Inactive)
REMARK    1  A    between atoms: C_11  and  C_12
REMARK    2  A    between atoms: C_12  and  C_13
REMARK                            x       y       z     vdW  Elec       q    Type
REMARK                         _______ _______ _______ _____ _____    ______ ____
ROOT
ATOM      1  N   UNL     1       2.159   8.684  17.392  0.00  0.00    +0.000 NA
ATOM      2  C   UNL     1       1.766   9.026  18.564  0.00  0.00    +0.000 C 
ATOM      3  S   UNL     1       1.100  10.613  18.783  0.00  0.00    +0.000 S 
ATOM      4  C   UNL     1       0.706  10.294  20.511  0.00  0.00    +0.000 C 
ATOM      5  C   UNL     1       1.151   8.882  20.815  0.00  0.00    +0.000 C 
ATOM      6  O   UNL     1       1.012   8.428  21.946  0.00  0.00    +0.000 OA
ATOM      7  N   UNL     1       1.734   8.287  19.708  0.00  0.00    +0.000 N 
ATOM      8  C   UNL     1       2.173   6.976  19.803  0.00  0.00    +0.000 A 
ATOM      9  N   UNL     1       1.720   6.075  20.648  0.00  0.00    +0.000 NA
ATOM     10  C   UNL     1       2.391   4.880  20.490  0.00  0.00    +0.000 A 
ATOM     11  C   UNL     1       3.406   4.886  19.558  0.00  0.00    +0.000 A 
ATOM     12  S   UNL     1       3.476   6.429  18.821  0.00  0.00    +0.000 S 
ATOM     13  H   UNL     1       2.012   9.488  16.770  0.00  0.00    +0.000 HD
ENDROOT
BRANCH  11  14
ATOM     14  C   UNL     1       4.368   3.800  19.193  0.00  0.00    +0.000 C 
BRANCH  14  15
ATOM     15  C   UNL     1       5.174   4.164  17.965  0.00  0.00    +0.000 A 
ATOM     16  C   UNL     1       4.642   3.963  16.681  0.00  0.00    +0.000 A 
ATOM     17  C   UNL     1       5.425   4.194  15.549  0.00  0.00    +0.000 A 
ATOM     18  C   UNL     1       6.736   4.628  15.701  0.00  0.00    +0.000 A 
ATOM     19  F   UNL     1       7.495   4.824  14.614  0.00  0.00    +0.000 F 
ATOM     20  C   UNL     1       7.276   4.851  16.960  0.00  0.00    +0.000 A 
ATOM     21  C   UNL     1       6.496   4.622  18.094  0.00  0.00    +0.000 A 
ENDBRANCH  14  15
ENDBRANCH  11  14
TORSDOF 2
ENDMDL
MODEL 5
REMARK VINA RESULT:      -7.0      3.377      4.279
REMARK  Name = 
REMARK  2 active torsions:
REMARK  status: ('A' for Active; 'I' for Inactive)
REMARK    1  A    between atoms: C_11  and  C_12
REMARK    2  A    between atoms: C_12  and  C_13
REMARK                            x       y       z     vdW  Elec       q    Type
REMARK                         _______ _______ _______ _____ _____    ______ ____
ROOT
ATOM      1  N   UNL     1      -0.206  10.385  17.695  0.00  0.00    +0.000 NA
ATOM      2  C   UNL     1       0.065  10.705  18.907  0.00  0.00    +0.000 C 
ATOM      3  S   UNL     1      -0.585  12.184  19.539  0.00  0.00    +0.000 S 
ATOM      4  C   UNL     1       0.080  11.868  21.182  0.00  0.00    +0.000 C 
ATOM      5  C   UNL     1       0.811  10.546  21.118  0.00  0.00    +0.000 C 
ATOM      6  O   UNL     1       1.380  10.114  22.115  0.00  0.00    +0.000 OA
ATOM      7  N   UNL     1       0.768  10.006  19.843  0.00  0.00    +0.000 N 
ATOM      8  C   UNL     1       1.365   8.777  19.613  0.00  0.00    +0.000 A 
ATOM      9  N   UNL     1       1.580   7.848  20.519  0.00  0.00    +0.000 NA
ATOM     10  C   UNL     1       2.214   6.758  19.958  0.00  0.00    +0.000 A 
ATOM     11  C   UNL     1       2.538   6.881  18.625  0.00  0.00    +0.000 A 
ATOM     12  S   UNL     1       1.977   8.393  18.051  0.00  0.00    +0.000 S 
ATOM     13  H   UNL     1      -0.780  11.138  17.298  0.00  0.00    +0.000 HD
ENDROOT
BRANCH  11  14
ATOM     14  C   UNL     1       3.283   5.935  17.737  0.00  0.00    +0.000 C 
BRANCH  14  15
ATOM     15  C   UNL     1       4.776   6.013  17.975  0.00  0.00    +0.000 A 
ATOM     16  C   UNL     1       5.362   5.322  19.047  0.00  0.00    +0.000 A 
ATOM     17  C   UNL     1       6.718   5.483  19.333  0.00  0.00    +0.000 A 
ATOM     18  C   UNL     1       7.489   6.331  18.546  0.00  0.00    +0.000 A 
ATOM     19  F   UNL     1       8.784   6.505  18.838  0.00  0.00    +0.000 F 
ATOM     20  C   UNL     1       6.933   7.010  17.469  0.00  0.00    +0.000 A 
ATOM     21  C   UNL     1       5.578   6.851  17.180  0.00  0.00    +0.000 A 
ENDBRANCH  14  15
ENDBRANCH  11  14
TORSDOF 2
ENDMDL
MODEL 6
REMARK VINA RESULT:      -6.9      1.189      1.258
REMARK  Name = 
REMARK  2 active torsions:
REMARK  status: ('A' for Active; 'I' for Inactive)
REMARK    1  A    between atoms: C_11  and  C_12
REMARK    2  A    between atoms: C_12  and  C_13
REMARK                            x       y       z     vdW  Elec       q    Type
REMARK                         _______ _______ _______ _____ _____    ______ ____
ROOT
ATOM      1  N   UNL     1       1.300   9.428  22.570  0.00  0.00    +0.000 NA
ATOM      2  C   UNL     1       0.379  10.018  21.901  0.00  0.00    +0.000 C 
ATOM      3  S   UNL     1      -0.804  10.949  22.763  0.00  0.00    +0.000 S 
ATOM      4  C   UNL     1      -1.588  11.509  21.242  0.00  0.00    +0.000 C 
ATOM      5  C   UNL     1      -0.823  10.889  20.094  0.00  0.00    +0.000 C 
ATOM      6  O   UNL     1      -1.179  11.100  18.939  0.00  0.00    +0.000 OA
ATOM      7  N   UNL     1       0.206  10.081  20.550  0.00  0.00    +0.000 N 
ATOM      8  C   UNL     1       1.029   9.457  19.628  0.00  0.00    +0.000 A 
ATOM      9  N   UNL     1       1.252   9.867  18.398  0.00  0.00    +0.000 NA
ATOM     10  C   UNL     1       2.104   9.001  17.743  0.00  0.00    +0.000 A 
ATOM     11  C   UNL     1       2.486   7.889  18.460  0.00  0.00    +0.000 A 
ATOM     12  S   UNL     1       1.796   7.968  20.023  0.00  0.00    +0.000 S 
ATOM     13  H   UNL     1       1.129   9.618  23.565  0.00  0.00    +0.000 HD
ENDROOT
BRANCH  11  14
ATOM     14  C   UNL     1       3.330   6.728  18.034  0.00  0.00    +0.000 C 
BRANCH  14  15
ATOM     15  C   UNL     1       2.777   5.421  18.561  0.00  0.00    +0.000 A 
ATOM     16  C   UNL     1       3.340   4.818  19.698  0.00  0.00    +0.000 A 
ATOM     17  C   UNL     1       2.905   3.561  20.118  0.00  0.00    +0.000 A 
ATOM     18  C   UNL     1       1.907   2.908  19.404  0.00  0.00    +0.000 A 
ATOM     19  F   UNL     1       1.509   1.689  19.793  0.00  0.00    +0.000 F 
ATOM     20  C   UNL     1       1.323   3.494  18.289  0.00  0.00    +0.000 A 
ATOM     21  C   UNL     1       1.755   4.752  17.866  0.00  0.00    +0.000 A 
ENDBRANCH  14  15
ENDBRANCH  11  14
TORSDOF 2
ENDMDL
MODEL 7
REMARK VINA RESULT:      -6.9      1.794      2.354
REMARK  Name = 
REMARK  2 active torsions:
REMARK  status: ('A' for Active; 'I' for Inactive)
REMARK    1  A    between atoms: C_11  and  C_12
REMARK    2  A    between atoms: C_12  and  C_13
REMARK                            x       y       z     vdW  Elec       q    Type
REMARK                         _______ _______ _______ _____ _____    ______ ____
ROOT
ATOM      1  N   UNL     1      -0.772  11.134  17.977  0.00  0.00    +0.000 NA
ATOM      2  C   UNL     1      -0.674  11.397  19.228  0.00  0.00    +0.000 C 
ATOM      3  S   UNL     1      -1.540  12.762  19.858  0.00  0.00    +0.000 S 
ATOM      4  C   UNL     1      -1.035  12.403  21.549  0.00  0.00    +0.000 C 
ATOM      5  C   UNL     1      -0.170  11.164  21.500  0.00  0.00    +0.000 C 
ATOM      6  O   UNL     1       0.324  10.724  22.532  0.00  0.00    +0.000 OA
ATOM      7  N   UNL     1      -0.013  10.708  20.201  0.00  0.00    +0.000 N 
ATOM      8  C   UNL     1       0.730   9.561  19.977  0.00  0.00    +0.000 A 
ATOM      9  N   UNL     1       0.936   8.598  20.850  0.00  0.00    +0.000 NA
ATOM     10  C   UNL     1       1.738   7.614  20.309  0.00  0.00    +0.000 A 
ATOM     11  C   UNL     1       2.196   7.856  19.033  0.00  0.00    +0.000 A 
ATOM     12  S   UNL     1       1.551   9.341  18.481  0.00  0.00    +0.000 S 
ATOM     13  H   UNL     1      -1.372  11.854  17.556  0.00  0.00    +0.000 HD
ENDROOT
BRANCH  11  14
ATOM     14  C   UNL     1       3.130   7.047  18.189  0.00  0.00    +0.000 C 
BRANCH  14  15
ATOM     15  C   UNL     1       2.928   5.563  18.409  0.00  0.00    +0.000 A 
ATOM     16  C   UNL     1       1.837   4.900  17.824  0.00  0.00    +0.000 A 
ATOM     17  C   UNL     1       1.589   3.558  18.117  0.00  0.00    +0.000 A 
ATOM     18  C   UNL     1       2.431   2.880  18.990  0.00  0.00    +0.000 A 
ATOM     19  F   UNL     1       2.175   1.599  19.290  0.00  0.00    +0.000 F 
ATOM     20  C   UNL     1       3.526   3.511  19.565  0.00  0.00    +0.000 A 
ATOM     21  C   UNL     1       3.778   4.852  19.274  0.00  0.00    +0.000 A 
ENDBRANCH  14  15
ENDBRANCH  11  14
TORSDOF 2
ENDMDL
MODEL 8
REMARK VINA RESULT:      -6.9      3.597      4.698
REMARK  Name = 
REMARK  2 active torsions:
REMARK  status: ('A' for Active; 'I' for Inactive)
REMARK    1  A    between atoms: C_11  and  C_12
REMARK    2  A    between atoms: C_12  and  C_13
REMARK                            x       y       z     vdW  Elec       q    Type
REMARK                         _______ _______ _______ _____ _____    ______ ____
ROOT
ATOM      1  N   UNL     1       2.287   8.601  17.358  0.00  0.00    +0.000 NA
ATOM      2  C   UNL     1       1.843   8.947  18.511  0.00  0.00    +0.000 C 
ATOM      3  S   UNL     1       1.148  10.526  18.691  0.00  0.00    +0.000 S 
ATOM      4  C   UNL     1       0.688  10.215  20.404  0.00  0.00    +0.000 C 
ATOM      5  C   UNL     1       1.139   8.811  20.737  0.00  0.00    +0.000 C 
ATOM      6  O   UNL     1       0.962   8.363  21.865  0.00  0.00    +0.000 OA
ATOM      7  N   UNL     1       1.774   8.215  19.659  0.00  0.00    +0.000 N 
ATOM      8  C   UNL     1       2.227   6.912  19.782  0.00  0.00    +0.000 A 
ATOM      9  N   UNL     1       1.752   6.011  20.615  0.00  0.00    +0.000 NA
ATOM     10  C   UNL     1       2.445   4.823  20.494  0.00  0.00    +0.000 A 
ATOM     11  C   UNL     1       3.496   4.837  19.603  0.00  0.00    +0.000 A 
ATOM     12  S   UNL     1       3.575   6.375  18.857  0.00  0.00    +0.000 S 
ATOM     13  H   UNL     1       2.155   9.399  16.725  0.00  0.00    +0.000 HD
ENDROOT
BRANCH  11  14
ATOM     14  C   UNL     1       4.486   3.761  19.286  0.00  0.00    +0.000 C 
BRANCH  14  15
ATOM     15  C   UNL     1       5.242   4.064  18.010  0.00  0.00    +0.000 A 
ATOM     16  C   UNL     1       6.528   4.626  18.062  0.00  0.00    +0.000 A 
ATOM     17  C   UNL     1       7.179   5.007  16.889  0.00  0.00    +0.000 A 
ATOM     18  C   UNL     1       6.547   4.825  15.664  0.00  0.00    +0.000 A 
ATOM     19  F   UNL     1       7.162   5.217  14.541  0.00  0.00    +0.000 F 
ATOM     20  C   UNL     1       5.283   4.254  15.588  0.00  0.00    +0.000 A 
ATOM     21  C   UNL     1       4.630   3.870  16.760  0.00  0.00    +0.000 A 
ENDBRANCH  14  15
ENDBRANCH  11  14
TORSDOF 2
ENDMDL
MODEL 9
REMARK VINA RESULT:      -6.9      3.697      7.066
REMARK  Name = 
REMARK  2 active torsions:
REMARK  status: ('A' for Active; 'I' for Inactive)
REMARK    1  A    between atoms: C_11  and  C_12
REMARK    2  A    between atoms: C_12  and  C_13
REMARK                            x       y       z     vdW  Elec       q    Type
REMARK                         _______ _______ _______ _____ _____    ______ ____
ROOT
ATOM      1  N   UNL     1       4.320   7.033  17.346  0.00  0.00    +0.000 NA
ATOM      2  C   UNL     1       3.795   6.166  18.131  0.00  0.00    +0.000 C 
ATOM      3  S   UNL     1       4.414   4.546  18.109  0.00  0.00    +0.000 S 
ATOM      4  C   UNL     1       3.339   4.032  19.459  0.00  0.00    +0.000 C 
ATOM      5  C   UNL     1       2.519   5.238  19.857  0.00  0.00    +0.000 C 
ATOM      6  O   UNL     1       1.683   5.141  20.750  0.00  0.00    +0.000 OA
ATOM      7  N   UNL     1       2.818   6.336  19.067  0.00  0.00    +0.000 N 
ATOM      8  C   UNL     1       2.176   7.538  19.315  0.00  0.00    +0.000 A 
ATOM      9  N   UNL     1       1.655   7.905  20.466  0.00  0.00    +0.000 NA
ATOM     10  C   UNL     1       1.073   9.152  20.361  0.00  0.00    +0.000 A 
ATOM     11  C   UNL     1       1.098   9.715  19.104  0.00  0.00    +0.000 A 
ATOM     12  S   UNL     1       1.929   8.666  18.039  0.00  0.00    +0.000 S 
ATOM     13  H   UNL     1       5.046   6.555  16.799  0.00  0.00    +0.000 HD
ENDROOT
BRANCH  11  14
ATOM     14  C   UNL     1       0.502  11.003  18.628  0.00  0.00    +0.000 C 
BRANCH  14  15
ATOM     15  C   UNL     1      -0.984  10.865  18.379  0.00  0.00    +0.000 A 
ATOM     16  C   UNL     1      -1.464   9.937  17.440  0.00  0.00    +0.000 A 
ATOM     17  C   UNL     1      -2.824   9.887  17.130  0.00  0.00    +0.000 A 
ATOM     18  C   UNL     1      -3.703  10.762  17.759  0.00  0.00    +0.000 A 
ATOM     19  F   UNL     1      -5.003  10.730  17.440  0.00  0.00    +0.000 F 
ATOM     20  C   UNL     1      -3.252  11.674  18.704  0.00  0.00    +0.000 A 
ATOM     21  C   UNL     1      -1.893  11.726  19.017  0.00  0.00    +0.000 A 
ENDBRANCH  14  15
ENDBRANCH  11  14
TORSDOF 2
ENDMDL
