MODEL 1
REMARK VINA RESULT:      -4.1      0.000      0.000
REMARK  Name = 
REMARK  4 active torsions:
REMARK  status: ('A' for Active; 'I' for Inactive)
REMARK    1  A    between atoms: C_1  and  C_2
REMARK    2  A    between atoms: C_2  and  C_3
REMARK    3  A    between atoms: C_3  and  C_5
REMARK    4  A    between atoms: C_5  and  O_7
REMARK                            x       y       z     vdW  Elec       q    Type
REMARK                         _______ _______ _______ _____ _____    ______ ____
ROOT
ATOM      1  C   UNL     1       6.883   4.717  14.870  0.00  0.00    +0.000 C 
ATOM      2  O   UNL     1       7.775   5.455  14.460  0.00  0.00    +0.000 OA
ENDROOT
BRANCH   1   4
ATOM      3  C   UNL     1       6.189   3.567  12.743  0.00  0.00    +0.000 C 
ATOM      4  C   UNL     1       5.735   4.165  14.063  0.00  0.00    +0.000 C 
ENDBRANCH   1   4
BRANCH   1   5
ATOM      5  C   UNL     1       6.932   4.314  16.341  0.00  0.00    +0.000 C 
ATOM      6  O   UNL     1       7.864   4.577  17.074  0.00  0.00    +0.000 OA
BRANCH   5   7
ATOM      7  O   UNL     1       5.819   3.640  16.688  0.00  0.00    +0.000 OA
ATOM      8  H   UNL     1       5.955   3.226  17.574  0.00  0.00    +0.000 HD
ENDBRANCH   5   7
ENDBRANCH   1   5
TORSDOF 3
ENDMDL
MODEL 2
REMARK VINA RESULT:      -3.9      1.044      1.152
REMARK  Name = 
REMARK  4 active torsions:
REMARK  status: ('A' for Active; 'I' for Inactive)
REMARK    1  A    between atoms: C_1  and  C_2
REMARK    2  A    between atoms: C_2  and  C_3
REMARK    3  A    between atoms: C_3  and  C_5
REMARK    4  A    between atoms: C_5  and  O_7
REMARK                            x       y       z     vdW  Elec       q    Type
REMARK                         _______ _______ _______ _____ _____    ______ ____
ROOT
ATOM      1  C   UNL     1       7.081   4.901  14.404  0.00  0.00    +0.000 C 
ATOM      2  O   UNL     1       7.883   5.509  13.700  0.00  0.00    +0.000 OA
ENDROOT
BRANCH   1   4
ATOM      3  C   UNL     1       6.241   3.498  12.493  0.00  0.00    +0.000 C 
ATOM      4  C   UNL     1       6.022   3.938  13.930  0.00  0.00    +0.000 C 
ENDBRANCH   1   4
BRANCH   1   5
ATOM      5  C   UNL     1       7.156   5.139  15.909  0.00  0.00    +0.000 C 
ATOM      6  O   UNL     1       7.811   4.448  16.663  0.00  0.00    +0.000 OA
BRANCH   5   7
ATOM      7  O   UNL     1       6.404   6.200  16.262  0.00  0.00    +0.000 OA
ATOM      8  H   UNL     1       6.966   7.011  16.252  0.00  0.00    +0.000 HD
ENDBRANCH   5   7
ENDBRANCH   1   5
TORSDOF 3
ENDMDL
MODEL 3
REMARK VINA RESULT:      -3.9      2.437      2.809
REMARK  Name = 
REMARK  4 active torsions:
REMARK  status: ('A' for Active; 'I' for Inactive)
REMARK    1  A    between atoms: C_1  and  C_2
REMARK    2  A    between atoms: C_2  and  C_3
REMARK    3  A    between atoms: C_3  and  C_5
REMARK    4  A    between atoms: C_5  and  O_7
REMARK                            x       y       z     vdW  Elec       q    Type
REMARK                         _______ _______ _______ _____ _____    ______ ____
ROOT
ATOM      1  C   UNL     1       6.688   5.689  16.706  0.00  0.00    +0.000 C 
ATOM      2  O   UNL     1       7.497   6.526  16.318  0.00  0.00    +0.000 OA
ENDROOT
BRANCH   1   4
ATOM      3  C   UNL     1       4.477   6.814  17.120  0.00  0.00    +0.000 C 
ATOM      4  C   UNL     1       5.206   5.677  16.427  0.00  0.00    +0.000 C 
ENDBRANCH   1   4
BRANCH   1   5
ATOM      5  C   UNL     1       7.226   4.542  17.557  0.00  0.00    +0.000 C 
ATOM      6  O   UNL     1       8.372   4.145  17.495  0.00  0.00    +0.000 OA
BRANCH   5   7
ATOM      7  O   UNL     1       6.263   4.052  18.361  0.00  0.00    +0.000 OA
ATOM      8  H   UNL     1       6.204   3.075  18.237  0.00  0.00    +0.000 HD
ENDBRANCH   5   7
ENDBRANCH   1   5
TORSDOF 3
ENDMDL
MODEL 4
REMARK VINA RESULT:      -3.9      1.454      2.861
REMARK  Name = 
REMARK  4 active torsions:
REMARK  status: ('A' for Active; 'I' for Inactive)
REMARK    1  A    between atoms: C_1  and  C_2
REMARK    2  A    between atoms: C_2  and  C_3
REMARK    3  A    between atoms: C_3  and  C_5
REMARK    4  A    between atoms: C_5  and  O_7
REMARK                            x       y       z     vdW  Elec       q    Type
REMARK                         _______ _______ _______ _____ _____    ______ ____
ROOT
ATOM      1  C   UNL     1       6.945   4.454  16.347  0.00  0.00    +0.000 C 
ATOM      2  O   UNL     1       7.987   4.253  16.964  0.00  0.00    +0.000 OA
ENDROOT
BRANCH   1   4
ATOM      3  C   UNL     1       4.888   5.890  16.524  0.00  0.00    +0.000 C 
ATOM      4  C   UNL     1       5.565   4.596  16.938  0.00  0.00    +0.000 C 
ENDBRANCH   1   4
BRANCH   1   5
ATOM      5  C   UNL     1       7.047   4.574  14.828  0.00  0.00    +0.000 C 
ATOM      6  O   UNL     1       7.669   5.454  14.268  0.00  0.00    +0.000 OA
BRANCH   5   7
ATOM      7  O   UNL     1       6.359   3.586  14.225  0.00  0.00    +0.000 OA
ATOM      8  H   UNL     1       6.149   3.857  13.300  0.00  0.00    +0.000 HD
ENDBRANCH   5   7
ENDBRANCH   1   5
TORSDOF 3
ENDMDL
MODEL 5
REMARK VINA RESULT:      -3.9      2.984      3.857
REMARK  Name = 
REMARK  4 active torsions:
REMARK  status: ('A' for Active; 'I' for Inactive)
REMARK    1  A    between atoms: C_1  and  C_2
REMARK    2  A    between atoms: C_2  and  C_3
REMARK    3  A    between atoms: C_3  and  C_5
REMARK    4  A    between atoms: C_5  and  O_7
REMARK                            x       y       z     vdW  Elec       q    Type
REMARK                         _______ _______ _______ _____ _____    ______ ____
ROOT
ATOM      1  C   UNL     1       7.299   4.992  17.718  0.00  0.00    +0.000 C 
ATOM      2  O   UNL     1       8.007   4.407  16.903  0.00  0.00    +0.000 OA
ENDROOT
BRANCH   1   4
ATOM      3  C   UNL     1       7.645   7.482  17.800  0.00  0.00    +0.000 C 
ATOM      4  C   UNL     1       7.697   6.173  18.567  0.00  0.00    +0.000 C 
ENDBRANCH   1   4
BRANCH   1   5
ATOM      5  C   UNL     1       5.872   4.480  17.896  0.00  0.00    +0.000 C 
ATOM      6  O   UNL     1       4.981   4.696  17.099  0.00  0.00    +0.000 OA
BRANCH   5   7
ATOM      7  O   UNL     1       5.757   3.777  19.038  0.00  0.00    +0.000 OA
ATOM      8  H   UNL     1       5.982   4.361  19.802  0.00  0.00    +0.000 HD
ENDBRANCH   5   7
ENDBRANCH   1   5
TORSDOF 3
ENDMDL
MODEL 6
REMARK VINA RESULT:      -3.8      2.876      3.758
REMARK  Name = 
REMARK  4 active torsions:
REMARK  status: ('A' for Active; 'I' for Inactive)
REMARK    1  A    between atoms: C_1  and  C_2
REMARK    2  A    between atoms: C_2  and  C_3
REMARK    3  A    between atoms: C_3  and  C_5
REMARK    4  A    between atoms: C_5  and  O_7
REMARK                            x       y       z     vdW  Elec       q    Type
REMARK                         _______ _______ _______ _____ _____    ______ ____
ROOT
ATOM      1  C   UNL     1       7.315   5.960  17.245  0.00  0.00    +0.000 C 
ATOM      2  O   UNL     1       7.375   6.077  16.024  0.00  0.00    +0.000 OA
ENDROOT
BRANCH   1   4
ATOM      3  C   UNL     1       7.912   8.360  17.701  0.00  0.00    +0.000 C 
ATOM      4  C   UNL     1       7.805   6.955  18.266  0.00  0.00    +0.000 C 
ENDBRANCH   1   4
BRANCH   1   5
ATOM      5  C   UNL     1       6.684   4.682  17.792  0.00  0.00    +0.000 C 
ATOM      6  O   UNL     1       6.482   4.491  18.974  0.00  0.00    +0.000 OA
BRANCH   5   7
ATOM      7  O   UNL     1       6.398   3.827  16.792  0.00  0.00    +0.000 OA
ATOM      8  H   UNL     1       7.096   3.130  16.754  0.00  0.00    +0.000 HD
ENDBRANCH   5   7
ENDBRANCH   1   5
TORSDOF 3
ENDMDL
MODEL 7
REMARK VINA RESULT:      -3.8      2.565      2.797
REMARK  Name = 
REMARK  4 active torsions:
REMARK  status: ('A' for Active; 'I' for Inactive)
REMARK    1  A    between atoms: C_1  and  C_2
REMARK    2  A    between atoms: C_2  and  C_3
REMARK    3  A    between atoms: C_3  and  C_5
REMARK    4  A    between atoms: C_5  and  O_7
REMARK                            x       y       z     vdW  Elec       q    Type
REMARK                         _______ _______ _______ _____ _____    ______ ____
ROOT
ATOM      1  C   UNL     1       6.735   5.725  16.912  0.00  0.00    +0.000 C 
ATOM      2  O   UNL     1       7.516   6.205  16.095  0.00  0.00    +0.000 OA
ENDROOT
BRANCH   1   4
ATOM      3  C   UNL     1       4.561   4.479  16.697  0.00  0.00    +0.000 C 
ATOM      4  C   UNL     1       5.230   5.828  16.883  0.00  0.00    +0.000 C 
ENDBRANCH   1   4
BRANCH   1   5
ATOM      5  C   UNL     1       7.337   4.944  18.077  0.00  0.00    +0.000 C 
ATOM      6  O   UNL     1       7.027   5.129  19.236  0.00  0.00    +0.000 OA
BRANCH   5   7
ATOM      7  O   UNL     1       8.239   4.047  17.634  0.00  0.00    +0.000 OA
ATOM      8  H   UNL     1       8.231   3.260  18.229  0.00  0.00    +0.000 HD
ENDBRANCH   5   7
ENDBRANCH   1   5
TORSDOF 3
ENDMDL
MODEL 8
REMARK VINA RESULT:      -3.8      3.342      4.214
REMARK  Name = 
REMARK  4 active torsions:
REMARK  status: ('A' for Active; 'I' for Inactive)
REMARK    1  A    between atoms: C_1  and  C_2
REMARK    2  A    between atoms: C_2  and  C_3
REMARK    3  A    between atoms: C_3  and  C_5
REMARK    4  A    between atoms: C_5  and  O_7
REMARK                            x       y       z     vdW  Elec       q    Type
REMARK                         _______ _______ _______ _____ _____    ______ ____
ROOT
ATOM      1  C   UNL     1       7.260   5.558  17.865  0.00  0.00    +0.000 C 
ATOM      2  O   UNL     1       7.910   4.709  17.261  0.00  0.00    +0.000 OA
ENDROOT
BRANCH   1   4
ATOM      3  C   UNL     1       7.871   7.991  17.682  0.00  0.00    +0.000 C 
ATOM      4  C   UNL     1       6.854   6.915  17.345  0.00  0.00    +0.000 C 
ENDBRANCH   1   4
BRANCH   1   5
ATOM      5  C   UNL     1       6.813   5.215  19.283  0.00  0.00    +0.000 C 
ATOM      6  O   UNL     1       5.742   4.702  19.540  0.00  0.00    +0.000 OA
BRANCH   5   7
ATOM      7  O   UNL     1       7.759   5.559  20.177  0.00  0.00    +0.000 OA
ATOM      8  H   UNL     1       7.773   6.541  20.271  0.00  0.00    +0.000 HD
ENDBRANCH   5   7
ENDBRANCH   1   5
TORSDOF 3
ENDMDL
MODEL 9
REMARK VINA RESULT:      -3.8      1.612      2.013
REMARK  Name = 
REMARK  4 active torsions:
REMARK  status: ('A' for Active; 'I' for Inactive)
REMARK    1  A    between atoms: C_1  and  C_2
REMARK    2  A    between atoms: C_2  and  C_3
REMARK    3  A    between atoms: C_3  and  C_5
REMARK    4  A    between atoms: C_5  and  O_7
REMARK                            x       y       z     vdW  Elec       q    Type
REMARK                         _______ _______ _______ _____ _____    ______ ____
ROOT
ATOM      1  C   UNL     1       6.611   5.074  16.526  0.00  0.00    +0.000 C 
ATOM      2  O   UNL     1       6.668   6.256  16.197  0.00  0.00    +0.000 OA
ENDROOT
BRANCH   1   4
ATOM      3  C   UNL     1       6.258   4.079  14.243  0.00  0.00    +0.000 C 
ATOM      4  C   UNL     1       5.991   3.951  15.732  0.00  0.00    +0.000 C 
ENDBRANCH   1   4
BRANCH   1   5
ATOM      5  C   UNL     1       7.225   4.694  17.870  0.00  0.00    +0.000 C 
ATOM      6  O   UNL     1       6.733   4.997  18.939  0.00  0.00    +0.000 OA
BRANCH   5   7
ATOM      7  O   UNL     1       8.363   3.996  17.694  0.00  0.00    +0.000 OA
ATOM      8  H   UNL     1       8.588   3.982  16.733  0.00  0.00    +0.000 HD
ENDBRANCH   5   7
ENDBRANCH   1   5
TORSDOF 3
ENDMDL
