MODEL 1
REMARK VINA RESULT:      -8.6      0.000      0.000
REMARK  Name = 
REMARK  7 active torsions:
REMARK  status: ('A' for Active; 'I' for Inactive)
REMARK    1  A    between atoms: C_2  and  C_11
REMARK    2  A    between atoms: N_3  and  C_4
REMARK    3  A    between atoms: C_4  and  C_5
REMARK    4  A    between atoms: C_13  and  C_14
REMARK    5  A    between atoms: C_20  and  C_22
REMARK    6  A    between atoms: C_22  and  C_23
REMARK    7  A    between atoms: C_23  and  C_24
REMARK                            x       y       z     vdW  Elec       q    Type
REMARK                         _______ _______ _______ _____ _____    ______ ____
ROOT
ATOM      1  C   UNL     1       6.133   4.470  16.917  0.00  0.00    +0.000 A 
ATOM      2  C   UNL     1       4.803   4.038  17.125  0.00  0.00    +0.000 A 
ATOM      3  C   UNL     1       4.705   3.856  18.484  0.00  0.00    +0.000 A 
ATOM      4  O   UNL     1       5.908   4.129  19.058  0.00  0.00    +0.000 OA
ATOM      5  N   UNL     1       6.814   4.506  18.077  0.00  0.00    +0.000 NA
ENDROOT
BRANCH   3   6
ATOM      6  C   UNL     1       3.534   3.599  19.371  0.00  0.00    +0.000 C 
ATOM      7  C   UNL     1       2.757   2.417  18.740  0.00  0.00    +0.000 C 
ATOM      8  C   UNL     1       1.517   2.023  19.528  0.00  0.00    +0.000 C 
ATOM      9  C   UNL     1       0.654   3.243  19.804  0.00  0.00    +0.000 C 
ATOM     10  C   UNL     1       1.472   4.324  20.495  0.00  0.00    +0.000 C 
ATOM     11  N   UNL     1       2.618   4.730  19.670  0.00  0.00    +0.000 N 
ATOM     12  C   UNL     1       3.043   6.061  19.612  0.00  0.00    +0.000 C 
ATOM     13  O   UNL     1       4.187   6.392  19.299  0.00  0.00    +0.000 OA
BRANCH  12  14
ATOM     14  C   UNL     1       2.045   7.150  19.985  0.00  0.00    +0.000 C 
BRANCH  14  15
ATOM     15  C   UNL     1       1.985   8.254  18.929  0.00  0.00    +0.000 C 
BRANCH  15  16
ATOM     16  C   UNL     1       0.951   9.292  19.296  0.00  0.00    +0.000 A 
ATOM     17  C   UNL     1       0.587   9.476  20.637  0.00  0.00    +0.000 A 
ATOM     18  C   UNL     1      -0.392  10.409  20.982  0.00  0.00    +0.000 A 
ATOM     19  C   UNL     1      -1.019  11.163  19.991  0.00  0.00    +0.000 A 
ATOM     20  C   UNL     1      -0.670  10.982  18.653  0.00  0.00    +0.000 A 
ATOM     21  C   UNL     1       0.310  10.049  18.305  0.00  0.00    +0.000 A 
ENDBRANCH  15  16
ENDBRANCH  14  15
ENDBRANCH  12  14
ENDBRANCH   3   6
BRANCH   1  23
ATOM     22  O   UNL     1       7.675   5.687  15.610  0.00  0.00    +0.000 OA
ATOM     23  C   UNL     1       6.713   4.926  15.656  0.00  0.00    +0.000 C 
ATOM     24  N   UNL     1       6.127   4.381  14.538  0.00  0.00    +0.000 N 
ATOM     25  H   UNL     1       5.282   3.835  14.683  0.00  0.00    +0.000 HD
BRANCH  24  26
ATOM     26  C   UNL     1       6.579   4.686  13.208  0.00  0.00    +0.000 C 
BRANCH  26  27
ATOM     27  C   UNL     1       6.468   3.490  12.315  0.00  0.00    +0.000 A 
ATOM     28  C   UNL     1       7.598   2.893  11.751  0.00  0.00    +0.000 A 
ATOM     29  C   UNL     1       7.450   1.764  10.950  0.00  0.00    +0.000 A 
ATOM     30  C   UNL     1       6.172   1.270  10.751  0.00  0.00    +0.000 A 
ATOM     31  N   UNL     1       5.059   1.811  11.284  0.00  0.00    +0.000 NA
ATOM     32  C   UNL     1       5.232   2.903  12.062  0.00  0.00    +0.000 A 
ENDBRANCH  26  27
ENDBRANCH  24  26
ENDBRANCH   1  23
TORSDOF 7
ENDMDL
MODEL 2
REMARK VINA RESULT:      -8.6      2.775      9.128
REMARK  Name = 
REMARK  7 active torsions:
REMARK  status: ('A' for Active; 'I' for Inactive)
REMARK    1  A    between atoms: C_2  and  C_11
REMARK    2  A    between atoms: N_3  and  C_4
REMARK    3  A    between atoms: C_4  and  C_5
REMARK    4  A    between atoms: C_13  and  C_14
REMARK    5  A    between atoms: C_20  and  C_22
REMARK    6  A    between atoms: C_22  and  C_23
REMARK    7  A    between atoms: C_23  and  C_24
REMARK                            x       y       z     vdW  Elec       q    Type
REMARK                         _______ _______ _______ _____ _____    ______ ____
ROOT
ATOM      1  C   UNL     1       1.747   8.546  18.823  0.00  0.00    +0.000 A 
ATOM      2  C   UNL     1       1.842   7.619  17.761  0.00  0.00    +0.000 A 
ATOM      3  C   UNL     1       2.270   6.455  18.353  0.00  0.00    +0.000 A 
ATOM      4  O   UNL     1       2.454   6.673  19.683  0.00  0.00    +0.000 OA
ATOM      5  N   UNL     1       2.137   7.989  19.984  0.00  0.00    +0.000 NA
ENDROOT
BRANCH   3   6
ATOM      6  C   UNL     1       2.385   5.059  17.836  0.00  0.00    +0.000 C 
ATOM      7  C   UNL     1       1.581   4.164  18.811  0.00  0.00    +0.000 C 
ATOM      8  C   UNL     1       1.596   2.692  18.427  0.00  0.00    +0.000 C 
ATOM      9  C   UNL     1       3.023   2.219  18.198  0.00  0.00    +0.000 C 
ATOM     10  C   UNL     1       3.716   3.103  17.172  0.00  0.00    +0.000 C 
ATOM     11  N   UNL     1       3.745   4.504  17.613  0.00  0.00    +0.000 N 
ATOM     12  C   UNL     1       4.848   5.326  17.365  0.00  0.00    +0.000 C 
ATOM     13  O   UNL     1       4.780   6.555  17.327  0.00  0.00    +0.000 OA
BRANCH  12  14
ATOM     14  C   UNL     1       6.193   4.661  17.097  0.00  0.00    +0.000 C 
BRANCH  14  15
ATOM     15  C   UNL     1       7.038   5.465  16.108  0.00  0.00    +0.000 C 
BRANCH  15  16
ATOM     16  C   UNL     1       6.928   4.888  14.716  0.00  0.00    +0.000 A 
ATOM     17  C   UNL     1       7.746   5.375  13.689  0.00  0.00    +0.000 A 
ATOM     18  C   UNL     1       7.628   4.872  12.392  0.00  0.00    +0.000 A 
ATOM     19  C   UNL     1       6.688   3.882  12.110  0.00  0.00    +0.000 A 
ATOM     20  C   UNL     1       5.863   3.395  13.124  0.00  0.00    +0.000 A 
ATOM     21  C   UNL     1       5.980   3.897  14.422  0.00  0.00    +0.000 A 
ENDBRANCH  15  16
ENDBRANCH  14  15
ENDBRANCH  12  14
ENDBRANCH   3   6
BRANCH   1  23
ATOM     22  O   UNL     1       1.906  10.871  18.453  0.00  0.00    +0.000 OA
ATOM     23  C   UNL     1       1.211   9.903  18.749  0.00  0.00    +0.000 C 
ATOM     24  N   UNL     1      -0.143   9.986  18.978  0.00  0.00    +0.000 N 
ATOM     25  H   UNL     1      -0.605   9.142  19.303  0.00  0.00    +0.000 HD
BRANCH  24  26
ATOM     26  C   UNL     1      -0.856  11.233  18.920  0.00  0.00    +0.000 C 
BRANCH  26  27
ATOM     27  C   UNL     1      -2.090  11.107  18.082  0.00  0.00    +0.000 A 
ATOM     28  C   UNL     1      -3.298  11.692  18.468  0.00  0.00    +0.000 A 
ATOM     29  C   UNL     1      -4.412  11.573  17.643  0.00  0.00    +0.000 A 
ATOM     30  C   UNL     1      -4.272  10.875  16.456  0.00  0.00    +0.000 A 
ATOM     31  N   UNL     1      -3.124  10.304  16.044  0.00  0.00    +0.000 NA
ATOM     32  C   UNL     1      -2.056  10.440  16.861  0.00  0.00    +0.000 A 
ENDBRANCH  26  27
ENDBRANCH  24  26
ENDBRANCH   1  23
TORSDOF 7
ENDMDL
MODEL 3
REMARK VINA RESULT:      -8.4      2.573      9.790
REMARK  Name = 
REMARK  7 active torsions:
REMARK  status: ('A' for Active; 'I' for Inactive)
REMARK    1  A    between atoms: C_2  and  C_11
REMARK    2  A    between atoms: N_3  and  C_4
REMARK    3  A    between atoms: C_4  and  C_5
REMARK    4  A    between atoms: C_13  and  C_14
REMARK    5  A    between atoms: C_20  and  C_22
REMARK    6  A    between atoms: C_22  and  C_23
REMARK    7  A    between atoms: C_23  and  C_24
REMARK                            x       y       z     vdW  Elec       q    Type
REMARK                         _______ _______ _______ _____ _____    ______ ____
ROOT
ATOM      1  C   UNL     1       1.777   8.448  18.832  0.00  0.00    +0.000 A 
ATOM      2  C   UNL     1       1.835   7.498  17.788  0.00  0.00    +0.000 A 
ATOM      3  C   UNL     1       2.185   6.322  18.407  0.00  0.00    +0.000 A 
ATOM      4  O   UNL     1       2.361   6.554  19.736  0.00  0.00    +0.000 OA
ATOM      5  N   UNL     1       2.115   7.891  20.009  0.00  0.00    +0.000 NA
ENDROOT
BRANCH   3   6
ATOM      6  C   UNL     1       2.228   4.913  17.917  0.00  0.00    +0.000 C 
ATOM      7  C   UNL     1       1.456   4.064  18.957  0.00  0.00    +0.000 C 
ATOM      8  C   UNL     1       1.405   2.584  18.606  0.00  0.00    +0.000 C 
ATOM      9  C   UNL     1       2.801   2.062  18.306  0.00  0.00    +0.000 C 
ATOM     10  C   UNL     1       3.458   2.902  17.221  0.00  0.00    +0.000 C 
ATOM     11  N   UNL     1       3.555   4.311  17.628  0.00  0.00    +0.000 N 
ATOM     12  C   UNL     1       4.665   5.093  17.297  0.00  0.00    +0.000 C 
ATOM     13  O   UNL     1       4.633   6.322  17.235  0.00  0.00    +0.000 OA
BRANCH  12  14
ATOM     14  C   UNL     1       5.972   4.381  16.967  0.00  0.00    +0.000 C 
BRANCH  14  15
ATOM     15  C   UNL     1       6.898   5.255  16.120  0.00  0.00    +0.000 C 
BRANCH  15  16
ATOM     16  C   UNL     1       6.883   4.810  14.676  0.00  0.00    +0.000 A 
ATOM     17  C   UNL     1       7.754   5.401  13.752  0.00  0.00    +0.000 A 
ATOM     18  C   UNL     1       7.725   5.020  12.409  0.00  0.00    +0.000 A 
ATOM     19  C   UNL     1       6.821   4.050  11.978  0.00  0.00    +0.000 A 
ATOM     20  C   UNL     1       5.944   3.461  12.888  0.00  0.00    +0.000 A 
ATOM     21  C   UNL     1       5.973   3.840  14.233  0.00  0.00    +0.000 A 
ENDBRANCH  15  16
ENDBRANCH  14  15
ENDBRANCH  12  14
ENDBRANCH   3   6
BRANCH   1  23
ATOM     22  O   UNL     1       1.988  10.705  18.177  0.00  0.00    +0.000 OA
ATOM     23  C   UNL     1       1.320   9.832  18.725  0.00  0.00    +0.000 C 
ATOM     24  N   UNL     1       0.062  10.051  19.235  0.00  0.00    +0.000 N 
ATOM     25  H   UNL     1      -0.365   9.284  19.746  0.00  0.00    +0.000 HD
BRANCH  24  26
ATOM     26  C   UNL     1      -0.568  11.342  19.195  0.00  0.00    +0.000 C 
BRANCH  26  27
ATOM     27  C   UNL     1      -0.984  11.779  20.565  0.00  0.00    +0.000 A 
ATOM     28  C   UNL     1      -2.041  12.671  20.759  0.00  0.00    +0.000 A 
ATOM     29  C   UNL     1      -2.410  13.027  22.052  0.00  0.00    +0.000 A 
ATOM     30  C   UNL     1      -1.709  12.467  23.107  0.00  0.00    +0.000 A 
ATOM     31  N   UNL     1      -0.691  11.597  22.963  0.00  0.00    +0.000 NA
ATOM     32  C   UNL     1      -0.356  11.264  21.697  0.00  0.00    +0.000 A 
ENDBRANCH  26  27
ENDBRANCH  24  26
ENDBRANCH   1  23
TORSDOF 7
ENDMDL
MODEL 4
REMARK VINA RESULT:      -8.4      0.847      1.357
REMARK  Name = 
REMARK  7 active torsions:
REMARK  status: ('A' for Active; 'I' for Inactive)
REMARK    1  A    between atoms: C_2  and  C_11
REMARK    2  A    between atoms: N_3  and  C_4
REMARK    3  A    between atoms: C_4  and  C_5
REMARK    4  A    between atoms: C_13  and  C_14
REMARK    5  A    between atoms: C_20  and  C_22
REMARK    6  A    between atoms: C_22  and  C_23
REMARK    7  A    between atoms: C_23  and  C_24
REMARK                            x       y       z     vdW  Elec       q    Type
REMARK                         _______ _______ _______ _____ _____    ______ ____
ROOT
ATOM      1  C   UNL     1       6.209   4.473  17.172  0.00  0.00    +0.000 A 
ATOM      2  C   UNL     1       4.869   4.099  17.419  0.00  0.00    +0.000 A 
ATOM      3  C   UNL     1       4.781   4.006  18.788  0.00  0.00    +0.000 A 
ATOM      4  O   UNL     1       5.999   4.274  19.332  0.00  0.00    +0.000 OA
ATOM      5  N   UNL     1       6.905   4.559  18.320  0.00  0.00    +0.000 NA
ENDROOT
BRANCH   3   6
ATOM      6  C   UNL     1       3.612   3.843  19.701  0.00  0.00    +0.000 C 
ATOM      7  C   UNL     1       2.890   2.545  19.262  0.00  0.00    +0.000 C 
ATOM      8  C   UNL     1       1.660   2.229  20.098  0.00  0.00    +0.000 C 
ATOM      9  C   UNL     1       0.744   3.440  20.175  0.00  0.00    +0.000 C 
ATOM     10  C   UNL     1       1.511   4.650  20.688  0.00  0.00    +0.000 C 
ATOM     11  N   UNL     1       2.648   4.968  19.813  0.00  0.00    +0.000 N 
ATOM     12  C   UNL     1       3.019   6.289  19.546  0.00  0.00    +0.000 C 
ATOM     13  O   UNL     1       4.151   6.615  19.190  0.00  0.00    +0.000 OA
BRANCH  12  14
ATOM     14  C   UNL     1       1.973   7.381  19.740  0.00  0.00    +0.000 C 
BRANCH  14  15
ATOM     15  C   UNL     1       1.934   8.347  18.556  0.00  0.00    +0.000 C 
BRANCH  15  16
ATOM     16  C   UNL     1       1.265   9.645  18.944  0.00  0.00    +0.000 A 
ATOM     17  C   UNL     1       1.715  10.856  18.403  0.00  0.00    +0.000 A 
ATOM     18  C   UNL     1       1.125  12.063  18.781  0.00  0.00    +0.000 A 
ATOM     19  C   UNL     1       0.083  12.070  19.708  0.00  0.00    +0.000 A 
ATOM     20  C   UNL     1      -0.368  10.871  20.259  0.00  0.00    +0.000 A 
ATOM     21  C   UNL     1       0.221   9.662  19.880  0.00  0.00    +0.000 A 
ENDBRANCH  15  16
ENDBRANCH  14  15
ENDBRANCH  12  14
ENDBRANCH   3   6
BRANCH   1  23
ATOM     22  O   UNL     1       7.634   5.711  15.757  0.00  0.00    +0.000 OA
ATOM     23  C   UNL     1       6.789   4.829  15.879  0.00  0.00    +0.000 C 
ATOM     24  N   UNL     1       6.350   4.052  14.833  0.00  0.00    +0.000 N 
ATOM     25  H   UNL     1       5.585   3.413  15.026  0.00  0.00    +0.000 HD
BRANCH  24  26
ATOM     26  C   UNL     1       6.828   4.233  13.489  0.00  0.00    +0.000 C 
BRANCH  26  27
ATOM     27  C   UNL     1       6.022   3.426  12.520  0.00  0.00    +0.000 A 
ATOM     28  C   UNL     1       4.746   3.827  12.119  0.00  0.00    +0.000 A 
ATOM     29  C   UNL     1       4.045   3.059  11.193  0.00  0.00    +0.000 A 
ATOM     30  C   UNL     1       4.654   1.919  10.697  0.00  0.00    +0.000 A 
ATOM     31  N   UNL     1       5.886   1.504  11.052  0.00  0.00    +0.000 NA
ATOM     32  C   UNL     1       6.547   2.270  11.947  0.00  0.00    +0.000 A 
ENDBRANCH  26  27
ENDBRANCH  24  26
ENDBRANCH   1  23
TORSDOF 7
ENDMDL
MODEL 5
REMARK VINA RESULT:      -8.2      3.218      8.820
REMARK  Name = 
REMARK  7 active torsions:
REMARK  status: ('A' for Active; 'I' for Inactive)
REMARK    1  A    between atoms: C_2  and  C_11
REMARK    2  A    between atoms: N_3  and  C_4
REMARK    3  A    between atoms: C_4  and  C_5
REMARK    4  A    between atoms: C_13  and  C_14
REMARK    5  A    between atoms: C_20  and  C_22
REMARK    6  A    between atoms: C_22  and  C_23
REMARK    7  A    between atoms: C_23  and  C_24
REMARK                            x       y       z     vdW  Elec       q    Type
REMARK                         _______ _______ _______ _____ _____    ______ ____
ROOT
ATOM      1  C   UNL     1       1.854   8.687  18.513  0.00  0.00    +0.000 A 
ATOM      2  C   UNL     1       2.583   7.581  19.007  0.00  0.00    +0.000 A 
ATOM      3  C   UNL     1       3.459   7.264  17.997  0.00  0.00    +0.000 A 
ATOM      4  O   UNL     1       3.251   8.102  16.946  0.00  0.00    +0.000 OA
ATOM      5  N   UNL     1       2.235   8.994  17.260  0.00  0.00    +0.000 NA
ENDROOT
BRANCH   3   6
ATOM      6  C   UNL     1       4.625   6.333  17.946  0.00  0.00    +0.000 C 
ATOM      7  C   UNL     1       5.755   7.086  17.201  0.00  0.00    +0.000 C 
ATOM      8  C   UNL     1       7.030   6.269  17.059  0.00  0.00    +0.000 C 
ATOM      9  C   UNL     1       6.721   4.900  16.475  0.00  0.00    +0.000 C 
ATOM     10  C   UNL     1       5.660   4.197  17.310  0.00  0.00    +0.000 C 
ATOM     11  N   UNL     1       4.420   4.983  17.362  0.00  0.00    +0.000 N 
ATOM     12  C   UNL     1       3.164   4.369  17.342  0.00  0.00    +0.000 C 
ATOM     13  O   UNL     1       2.145   4.899  17.786  0.00  0.00    +0.000 OA
BRANCH  12  14
ATOM     14  C   UNL     1       3.063   2.961  16.768  0.00  0.00    +0.000 C 
BRANCH  14  15
ATOM     15  C   UNL     1       3.303   1.893  17.835  0.00  0.00    +0.000 C 
BRANCH  15  16
ATOM     16  C   UNL     1       2.635   2.275  19.136  0.00  0.00    +0.000 A 
ATOM     17  C   UNL     1       3.409   2.511  20.279  0.00  0.00    +0.000 A 
ATOM     18  C   UNL     1       2.799   2.832  21.493  0.00  0.00    +0.000 A 
ATOM     19  C   UNL     1       1.410   2.913  21.576  0.00  0.00    +0.000 A 
ATOM     20  C   UNL     1       0.629   2.671  20.446  0.00  0.00    +0.000 A 
ATOM     21  C   UNL     1       1.238   2.351  19.230  0.00  0.00    +0.000 A 
ENDBRANCH  15  16
ENDBRANCH  14  15
ENDBRANCH  12  14
ENDBRANCH   3   6
BRANCH   1  23
ATOM     22  O   UNL     1       0.927   9.617  20.473  0.00  0.00    +0.000 OA
ATOM     23  C   UNL     1       0.882   9.488  19.252  0.00  0.00    +0.000 C 
ATOM     24  N   UNL     1      -0.041  10.127  18.458  0.00  0.00    +0.000 N 
ATOM     25  H   UNL     1      -0.045   9.881  17.473  0.00  0.00    +0.000 HD
BRANCH  24  26
ATOM     26  C   UNL     1      -1.060  10.983  19.001  0.00  0.00    +0.000 C 
BRANCH  26  27
ATOM     27  C   UNL     1      -2.250  11.041  18.096  0.00  0.00    +0.000 A 
ATOM     28  C   UNL     1      -2.264  10.385  16.864  0.00  0.00    +0.000 A 
ATOM     29  C   UNL     1      -3.404  10.443  16.067  0.00  0.00    +0.000 A 
ATOM     30  C   UNL     1      -4.494  11.153  16.541  0.00  0.00    +0.000 A 
ATOM     31  N   UNL     1      -4.523  11.792  17.727  0.00  0.00    +0.000 NA
ATOM     32  C   UNL     1      -3.406  11.715  18.482  0.00  0.00    +0.000 A 
ENDBRANCH  26  27
ENDBRANCH  24  26
ENDBRANCH   1  23
TORSDOF 7
ENDMDL
MODEL 6
REMARK VINA RESULT:      -8.2      1.055      1.235
REMARK  Name = 
REMARK  7 active torsions:
REMARK  status: ('A' for Active; 'I' for Inactive)
REMARK    1  A    between atoms: C_2  and  C_11
REMARK    2  A    between atoms: N_3  and  C_4
REMARK    3  A    between atoms: C_4  and  C_5
REMARK    4  A    between atoms: C_13  and  C_14
REMARK    5  A    between atoms: C_20  and  C_22
REMARK    6  A    between atoms: C_22  and  C_23
REMARK    7  A    between atoms: C_23  and  C_24
REMARK                            x       y       z     vdW  Elec       q    Type
REMARK                         _______ _______ _______ _____ _____    ______ ____
ROOT
ATOM      1  C   UNL     1       6.295   4.693  17.054  0.00  0.00    +0.000 A 
ATOM      2  C   UNL     1       4.918   4.562  17.342  0.00  0.00    +0.000 A 
ATOM      3  C   UNL     1       4.862   4.400  18.706  0.00  0.00    +0.000 A 
ATOM      4  O   UNL     1       6.127   4.400  19.206  0.00  0.00    +0.000 OA
ATOM      5  N   UNL     1       7.034   4.574  18.171  0.00  0.00    +0.000 NA
ENDROOT
BRANCH   3   6
ATOM      6  C   UNL     1       3.717   4.401  19.662  0.00  0.00    +0.000 C 
ATOM      7  C   UNL     1       3.086   2.988  19.593  0.00  0.00    +0.000 C 
ATOM      8  C   UNL     1       1.890   2.817  20.516  0.00  0.00    +0.000 C 
ATOM      9  C   UNL     1       0.890   3.943  20.304  0.00  0.00    +0.000 C 
ATOM     10  C   UNL     1       1.572   5.293  20.467  0.00  0.00    +0.000 C 
ATOM     11  N   UNL     1       2.675   5.449  19.508  0.00  0.00    +0.000 N 
ATOM     12  C   UNL     1       2.947   6.678  18.900  0.00  0.00    +0.000 C 
ATOM     13  O   UNL     1       4.050   6.975  18.440  0.00  0.00    +0.000 OA
BRANCH  12  14
ATOM     14  C   UNL     1       1.827   7.709  18.834  0.00  0.00    +0.000 C 
BRANCH  14  15
ATOM     15  C   UNL     1       2.247   8.956  18.054  0.00  0.00    +0.000 C 
BRANCH  15  16
ATOM     16  C   UNL     1       1.281  10.092  18.298  0.00  0.00    +0.000 A 
ATOM     17  C   UNL     1      -0.100   9.859  18.256  0.00  0.00    +0.000 A 
ATOM     18  C   UNL     1      -1.000  10.909  18.448  0.00  0.00    +0.000 A 
ATOM     19  C   UNL     1      -0.528  12.200  18.677  0.00  0.00    +0.000 A 
ATOM     20  C   UNL     1       0.845  12.445  18.713  0.00  0.00    +0.000 A 
ATOM     21  C   UNL     1       1.747  11.395  18.523  0.00  0.00    +0.000 A 
ENDBRANCH  15  16
ENDBRANCH  14  15
ENDBRANCH  12  14
ENDBRANCH   3   6
BRANCH   1  23
ATOM     22  O   UNL     1       7.691   5.932  15.610  0.00  0.00    +0.000 OA
ATOM     23  C   UNL     1       6.885   5.017  15.757  0.00  0.00    +0.000 C 
ATOM     24  N   UNL     1       6.507   4.172  14.740  0.00  0.00    +0.000 N 
ATOM     25  H   UNL     1       5.768   3.506  14.949  0.00  0.00    +0.000 HD
BRANCH  24  26
ATOM     26  C   UNL     1       7.005   4.313  13.399  0.00  0.00    +0.000 C 
BRANCH  26  27
ATOM     27  C   UNL     1       6.248   3.437  12.451  0.00  0.00    +0.000 A 
ATOM     28  C   UNL     1       6.830   2.302  11.883  0.00  0.00    +0.000 A 
ATOM     29  C   UNL     1       6.079   1.501  11.028  0.00  0.00    +0.000 A 
ATOM     30  C   UNL     1       4.766   1.865  10.779  0.00  0.00    +0.000 A 
ATOM     31  N   UNL     1       4.167   2.946  11.314  0.00  0.00    +0.000 NA
ATOM     32  C   UNL     1       4.917   3.703  12.145  0.00  0.00    +0.000 A 
ENDBRANCH  26  27
ENDBRANCH  24  26
ENDBRANCH   1  23
TORSDOF 7
ENDMDL
MODEL 7
REMARK VINA RESULT:      -8.1      3.599      6.717
REMARK  Name = 
REMARK  7 active torsions:
REMARK  status: ('A' for Active; 'I' for Inactive)
REMARK    1  A    between atoms: C_2  and  C_11
REMARK    2  A    between atoms: N_3  and  C_4
REMARK    3  A    between atoms: C_4  and  C_5
REMARK    4  A    between atoms: C_13  and  C_14
REMARK    5  A    between atoms: C_20  and  C_22
REMARK    6  A    between atoms: C_22  and  C_23
REMARK    7  A    between atoms: C_23  and  C_24
REMARK                            x       y       z     vdW  Elec       q    Type
REMARK                         _______ _______ _______ _____ _____    ______ ____
ROOT
ATOM      1  C   UNL     1       2.342   8.061  18.208  0.00  0.00    +0.000 A 
ATOM      2  C   UNL     1       1.610   8.683  19.245  0.00  0.00    +0.000 A 
ATOM      3  C   UNL     1       1.294   9.925  18.750  0.00  0.00    +0.000 A 
ATOM      4  O   UNL     1       1.828  10.058  17.506  0.00  0.00    +0.000 OA
ATOM      5  N   UNL     1       2.498   8.893  17.162  0.00  0.00    +0.000 NA
ENDROOT
BRANCH   3   6
ATOM      6  C   UNL     1       0.381  10.994  19.252  0.00  0.00    +0.000 C 
ATOM      7  C   UNL     1       0.719  11.189  20.751  0.00  0.00    +0.000 C 
ATOM      8  C   UNL     1      -0.131  12.255  21.425  0.00  0.00    +0.000 C 
ATOM      9  C   UNL     1      -1.607  12.002  21.160  0.00  0.00    +0.000 C 
ATOM     10  C   UNL     1      -1.865  11.902  19.664  0.00  0.00    +0.000 C 
ATOM     11  N   UNL     1      -1.081  10.814  19.063  0.00  0.00    +0.000 N 
ATOM     12  C   UNL     1      -1.601  10.016  18.039  0.00  0.00    +0.000 C 
ATOM     13  O   UNL     1      -0.898   9.400  17.238  0.00  0.00    +0.000 OA
BRANCH  12  14
ATOM     14  C   UNL     1      -3.116   9.935  17.893  0.00  0.00    +0.000 C 
BRANCH  14  15
ATOM     15  C   UNL     1      -3.654  11.001  16.939  0.00  0.00    +0.000 C 
BRANCH  15  16
ATOM     16  C   UNL     1      -4.988  11.526  17.417  0.00  0.00    +0.000 A 
ATOM     17  C   UNL     1      -5.631  10.920  18.504  0.00  0.00    +0.000 A 
ATOM     18  C   UNL     1      -6.878  11.376  18.932  0.00  0.00    +0.000 A 
ATOM     19  C   UNL     1      -7.497  12.438  18.274  0.00  0.00    +0.000 A 
ATOM     20  C   UNL     1      -6.869  13.044  17.185  0.00  0.00    +0.000 A 
ATOM     21  C   UNL     1      -5.620  12.588  16.756  0.00  0.00    +0.000 A 
ENDBRANCH  15  16
ENDBRANCH  14  15
ENDBRANCH  12  14
ENDBRANCH   3   6
BRANCH   1  23
ATOM     22  O   UNL     1       2.057   5.739  17.900  0.00  0.00    +0.000 OA
ATOM     23  C   UNL     1       2.802   6.674  18.178  0.00  0.00    +0.000 C 
ATOM     24  N   UNL     1       4.146   6.522  18.428  0.00  0.00    +0.000 N 
ATOM     25  H   UNL     1       4.651   7.348  18.736  0.00  0.00    +0.000 HD
BRANCH  24  26
ATOM     26  C   UNL     1       4.788   5.237  18.415  0.00  0.00    +0.000 C 
BRANCH  26  27
ATOM     27  C   UNL     1       5.526   5.019  17.130  0.00  0.00    +0.000 A 
ATOM     28  C   UNL     1       5.065   4.121  16.165  0.00  0.00    +0.000 A 
ATOM     29  C   UNL     1       5.768   3.973  14.974  0.00  0.00    +0.000 A 
ATOM     30  C   UNL     1       6.908   4.738  14.791  0.00  0.00    +0.000 A 
ATOM     31  N   UNL     1       7.380   5.620  15.692  0.00  0.00    +0.000 NA
ATOM     32  C   UNL     1       6.675   5.749  16.838  0.00  0.00    +0.000 A 
ENDBRANCH  26  27
ENDBRANCH  24  26
ENDBRANCH   1  23
TORSDOF 7
ENDMDL
MODEL 8
REMARK VINA RESULT:      -8.1      2.601      9.030
REMARK  Name = 
REMARK  7 active torsions:
REMARK  status: ('A' for Active; 'I' for Inactive)
REMARK    1  A    between atoms: C_2  and  C_11
REMARK    2  A    between atoms: N_3  and  C_4
REMARK    3  A    between atoms: C_4  and  C_5
REMARK    4  A    between atoms: C_13  and  C_14
REMARK    5  A    between atoms: C_20  and  C_22
REMARK    6  A    between atoms: C_22  and  C_23
REMARK    7  A    between atoms: C_23  and  C_24
REMARK                            x       y       z     vdW  Elec       q    Type
REMARK                         _______ _______ _______ _____ _____    ______ ____
ROOT
ATOM      1  C   UNL     1       1.685   7.799  19.917  0.00  0.00    +0.000 A 
ATOM      2  C   UNL     1       1.873   7.044  18.737  0.00  0.00    +0.000 A 
ATOM      3  C   UNL     1       2.259   5.801  19.177  0.00  0.00    +0.000 A 
ATOM      4  O   UNL     1       2.333   5.812  20.535  0.00  0.00    +0.000 OA
ATOM      5  N   UNL     1       1.983   7.069  21.008  0.00  0.00    +0.000 NA
ENDROOT
BRANCH   3   6
ATOM      6  C   UNL     1       2.426   4.501  18.464  0.00  0.00    +0.000 C 
ATOM      7  C   UNL     1       1.907   3.404  19.427  0.00  0.00    +0.000 C 
ATOM      8  C   UNL     1       2.008   2.000  18.850  0.00  0.00    +0.000 C 
ATOM      9  C   UNL     1       3.413   1.741  18.329  0.00  0.00    +0.000 C 
ATOM     10  C   UNL     1       3.814   2.818  17.332  0.00  0.00    +0.000 C 
ATOM     11  N   UNL     1       3.774   4.152  17.949  0.00  0.00    +0.000 N 
ATOM     12  C   UNL     1       4.723   5.130  17.637  0.00  0.00    +0.000 C 
ATOM     13  O   UNL     1       4.522   6.337  17.777  0.00  0.00    +0.000 OA
BRANCH  12  14
ATOM     14  C   UNL     1       6.061   4.676  17.064  0.00  0.00    +0.000 C 
BRANCH  14  15
ATOM     15  C   UNL     1       6.553   5.611  15.959  0.00  0.00    +0.000 C 
BRANCH  15  16
ATOM     16  C   UNL     1       6.471   4.937  14.610  0.00  0.00    +0.000 A 
ATOM     17  C   UNL     1       5.377   4.119  14.300  0.00  0.00    +0.000 A 
ATOM     18  C   UNL     1       5.308   3.465  13.068  0.00  0.00    +0.000 A 
ATOM     19  C   UNL     1       6.335   3.619  12.139  0.00  0.00    +0.000 A 
ATOM     20  C   UNL     1       7.433   4.424  12.439  0.00  0.00    +0.000 A 
ATOM     21  C   UNL     1       7.503   5.080  13.671  0.00  0.00    +0.000 A 
ENDBRANCH  15  16
ENDBRANCH  14  15
ENDBRANCH  12  14
ENDBRANCH   3   6
BRANCH   1  23
ATOM     22  O   UNL     1       1.054   9.756  21.074  0.00  0.00    +0.000 OA
ATOM     23  C   UNL     1       1.147   9.154  20.008  0.00  0.00    +0.000 C 
ATOM     24  N   UNL     1       0.815   9.709  18.794  0.00  0.00    +0.000 N 
ATOM     25  H   UNL     1       0.845   9.095  17.986  0.00  0.00    +0.000 HD
BRANCH  24  26
ATOM     26  C   UNL     1       0.296  11.045  18.678  0.00  0.00    +0.000 C 
BRANCH  26  27
ATOM     27  C   UNL     1      -1.181  11.027  18.436  0.00  0.00    +0.000 A 
ATOM     28  C   UNL     1      -1.768  10.108  17.564  0.00  0.00    +0.000 A 
ATOM     29  C   UNL     1      -3.149  10.109  17.392  0.00  0.00    +0.000 A 
ATOM     30  C   UNL     1      -3.893  11.031  18.108  0.00  0.00    +0.000 A 
ATOM     31  N   UNL     1      -3.367  11.928  18.965  0.00  0.00    +0.000 NA
ATOM     32  C   UNL     1      -2.025  11.900  19.118  0.00  0.00    +0.000 A 
ENDBRANCH  26  27
ENDBRANCH  24  26
ENDBRANCH   1  23
TORSDOF 7
ENDMDL
MODEL 9
REMARK VINA RESULT:      -7.9      3.531      5.677
REMARK  Name = 
REMARK  7 active torsions:
REMARK  status: ('A' for Active; 'I' for Inactive)
REMARK    1  A    between atoms: C_2  and  C_11
REMARK    2  A    between atoms: N_3  and  C_4
REMARK    3  A    between atoms: C_4  and  C_5
REMARK    4  A    between atoms: C_13  and  C_14
REMARK    5  A    between atoms: C_20  and  C_22
REMARK    6  A    between atoms: C_22  and  C_23
REMARK    7  A    between atoms: C_23  and  C_24
REMARK                            x       y       z     vdW  Elec       q    Type
REMARK                         _______ _______ _______ _____ _____    ______ ____
ROOT
ATOM      1  C   UNL     1       6.710   5.754  18.100  0.00  0.00    +0.000 A 
ATOM      2  C   UNL     1       5.569   5.007  17.730  0.00  0.00    +0.000 A 
ATOM      3  C   UNL     1       5.206   4.337  18.874  0.00  0.00    +0.000 A 
ATOM      4  O   UNL     1       6.090   4.635  19.864  0.00  0.00    +0.000 OA
ATOM      5  N   UNL     1       7.046   5.518  19.382  0.00  0.00    +0.000 NA
ENDROOT
BRANCH   3   6
ATOM      6  C   UNL     1       3.992   3.540  19.218  0.00  0.00    +0.000 C 
ATOM      7  C   UNL     1       3.787   2.533  18.060  0.00  0.00    +0.000 C 
ATOM      8  C   UNL     1       2.576   1.633  18.252  0.00  0.00    +0.000 C 
ATOM      9  C   UNL     1       1.342   2.465  18.564  0.00  0.00    +0.000 C 
ATOM     10  C   UNL     1       1.601   3.368  19.761  0.00  0.00    +0.000 C 
ATOM     11  N   UNL     1       2.732   4.272  19.507  0.00  0.00    +0.000 N 
ATOM     12  C   UNL     1       2.732   5.591  19.970  0.00  0.00    +0.000 C 
ATOM     13  O   UNL     1       3.760   6.242  20.157  0.00  0.00    +0.000 OA
BRANCH  12  14
ATOM     14  C   UNL     1       1.390   6.240  20.288  0.00  0.00    +0.000 C 
BRANCH  14  15
ATOM     15  C   UNL     1       1.561   7.566  21.029  0.00  0.00    +0.000 C 
BRANCH  15  16
ATOM     16  C   UNL     1       1.031   8.714  20.202  0.00  0.00    +0.000 A 
ATOM     17  C   UNL     1      -0.047   9.477  20.670  0.00  0.00    +0.000 A 
ATOM     18  C   UNL     1      -0.565  10.518  19.898  0.00  0.00    +0.000 A 
ATOM     19  C   UNL     1      -0.013  10.803  18.650  0.00  0.00    +0.000 A 
ATOM     20  C   UNL     1       1.055  10.045  18.170  0.00  0.00    +0.000 A 
ATOM     21  C   UNL     1       1.575   9.003  18.942  0.00  0.00    +0.000 A 
ENDBRANCH  15  16
ENDBRANCH  14  15
ENDBRANCH  12  14
ENDBRANCH   3   6
BRANCH   1  23
ATOM     22  O   UNL     1       7.650   6.553  16.089  0.00  0.00    +0.000 OA
ATOM     23  C   UNL     1       7.410   6.739  17.279  0.00  0.00    +0.000 C 
ATOM     24  N   UNL     1       7.716   7.906  17.939  0.00  0.00    +0.000 N 
ATOM     25  H   UNL     1       7.556   7.921  18.942  0.00  0.00    +0.000 HD
BRANCH  24  26
ATOM     26  C   UNL     1       8.379   9.004  17.289  0.00  0.00    +0.000 C 
BRANCH  26  27
ATOM     27  C   UNL     1       8.764  10.059  18.279  0.00  0.00    +0.000 A 
ATOM     28  C   UNL     1       8.800  11.411  17.929  0.00  0.00    +0.000 A 
ATOM     29  C   UNL     1       9.137  12.359  18.889  0.00  0.00    +0.000 A 
ATOM     30  C   UNL     1       9.418  11.917  20.171  0.00  0.00    +0.000 A 
ATOM     31  N   UNL     1       9.387  10.625  20.550  0.00  0.00    +0.000 NA
ATOM     32  C   UNL     1       9.051   9.725  19.599  0.00  0.00    +0.000 A 
ENDBRANCH  26  27
ENDBRANCH  24  26
ENDBRANCH   1  23
TORSDOF 7
ENDMDL
