MODEL 1
REMARK VINA RESULT:      -6.9      0.000      0.000
REMARK  Name = 
REMARK  7 active torsions:
REMARK  status: ('A' for Active; 'I' for Inactive)
REMARK    1  A    between atoms: C_2  and  C_4
REMARK    2  A    between atoms: C_4  and  O_5
REMARK    3  A    between atoms: O_5  and  C_6
REMARK    4  A    between atoms: C_8  and  O_9
REMARK    5  A    between atoms: O_9  and  P_10
REMARK    6  A    between atoms: P_10  and  O_13
REMARK    7  A    between atoms: C_15  and  C_16
REMARK                            x       y       z     vdW  Elec       q    Type
REMARK                         _______ _______ _______ _____ _____    ______ ____
ROOT
ATOM      1  C   UNL     1       2.447   3.783  18.476  0.00  0.00    +0.000 A 
ATOM      2  C   UNL     1       3.547   3.339  17.748  0.00  0.00    +0.000 A 
ATOM      3  C   UNL     1       4.412   4.269  17.132  0.00  0.00    +0.000 A 
ATOM      4  C   UNL     1       4.187   5.641  17.236  0.00  0.00    +0.000 A 
ATOM      5  C   UNL     1       3.091   6.102  17.984  0.00  0.00    +0.000 A 
ATOM      6  C   UNL     1       2.270   5.161  18.613  0.00  0.00    +0.000 A 
ENDROOT
BRANCH   5   7
ATOM      7  C   UNL     1       2.734   7.564  18.124  0.00  0.00    +0.000 C 
ATOM      8  O   UNL     1       2.238   7.896  19.257  0.00  0.00    +0.000 OA
ATOM      9  O   UNL     1       2.971   8.336  17.151  0.00  0.00    +0.000 OA
ENDBRANCH   5   7
BRANCH   1  10
ATOM     10  O   UNL     1       1.568   2.858  19.031  0.00  0.00    +0.000 OA
BRANCH  10  11
ATOM     11  C   UNL     1       1.112   3.340  20.297  0.00  0.00    +0.000 C 
BRANCH  11  13
ATOM     12  O   UNL     1       3.055   2.590  21.343  0.00  0.00    +0.000 OA
ATOM     13  C   UNL     1       1.805   2.754  21.508  0.00  0.00    +0.000 C 
ATOM     14  O   UNL     1       1.141   2.294  22.486  0.00  0.00    +0.000 OA
ENDBRANCH  11  13
ENDBRANCH  10  11
ENDBRANCH   1  10
BRANCH   3  15
ATOM     15  O   UNL     1       5.497   3.731  16.484  0.00  0.00    +0.000 OA
BRANCH  15  16
ATOM     16  P   UNL     1       6.593   4.679  15.541  0.00  0.00    +0.000 P 
ATOM     17  O   UNL     1       7.772   4.369  16.470  0.00  0.00    +0.000 OA
ATOM     18  O   UNL     1       6.421   3.768  14.316  0.00  0.00    +0.000 OA
BRANCH  16  19
ATOM     19  O   UNL     1       7.689   5.628  14.598  0.00  0.00    +0.000 OA
ATOM     20  H   UNL     1       7.207   6.470  14.698  0.00  0.00    +0.000 HD
ENDBRANCH  16  19
ENDBRANCH  15  16
ENDBRANCH   3  15
TORSDOF 7
ENDMDL
MODEL 2
REMARK VINA RESULT:      -6.9      1.399      2.198
REMARK  Name = 
REMARK  7 active torsions:
REMARK  status: ('A' for Active; 'I' for Inactive)
REMARK    1  A    between atoms: C_2  and  C_4
REMARK    2  A    between atoms: C_4  and  O_5
REMARK    3  A    between atoms: O_5  and  C_6
REMARK    4  A    between atoms: C_8  and  O_9
REMARK    5  A    between atoms: O_9  and  P_10
REMARK    6  A    between atoms: P_10  and  O_13
REMARK    7  A    between atoms: C_15  and  C_16
REMARK                            x       y       z     vdW  Elec       q    Type
REMARK                         _______ _______ _______ _____ _____    ______ ____
ROOT
ATOM      1  C   UNL     1       3.330   5.547  19.503  0.00  0.00    +0.000 A 
ATOM      2  C   UNL     1       4.206   5.310  18.447  0.00  0.00    +0.000 A 
ATOM      3  C   UNL     1       4.310   6.241  17.392  0.00  0.00    +0.000 A 
ATOM      4  C   UNL     1       3.546   7.407  17.380  0.00  0.00    +0.000 A 
ATOM      5  C   UNL     1       2.672   7.666  18.449  0.00  0.00    +0.000 A 
ATOM      6  C   UNL     1       2.614   6.745  19.500  0.00  0.00    +0.000 A 
ENDROOT
BRANCH   5   7
ATOM      7  C   UNL     1       1.770   8.876  18.512  0.00  0.00    +0.000 C 
ATOM      8  O   UNL     1       1.738   9.586  17.447  0.00  0.00    +0.000 OA
ATOM      9  O   UNL     1       1.110   9.078  19.571  0.00  0.00    +0.000 OA
ENDBRANCH   5   7
BRANCH   1  10
ATOM     10  O   UNL     1       3.192   4.596  20.510  0.00  0.00    +0.000 OA
BRANCH  10  11
ATOM     11  C   UNL     1       1.821   4.532  20.914  0.00  0.00    +0.000 C 
BRANCH  11  13
ATOM     12  O   UNL     1       1.413   2.516  22.011  0.00  0.00    +0.000 OA
ATOM     13  C   UNL     1       1.207   3.149  20.926  0.00  0.00    +0.000 C 
ATOM     14  O   UNL     1       0.727   2.634  19.872  0.00  0.00    +0.000 OA
ENDBRANCH  11  13
ENDBRANCH  10  11
ENDBRANCH   1  10
BRANCH   3  15
ATOM     15  O   UNL     1       5.242   5.941  16.427  0.00  0.00    +0.000 OA
BRANCH  15  16
ATOM     16  P   UNL     1       6.678   5.035  16.758  0.00  0.00    +0.000 P 
ATOM     17  O   UNL     1       6.208   3.848  15.908  0.00  0.00    +0.000 OA
ATOM     18  O   UNL     1       7.566   6.075  16.060  0.00  0.00    +0.000 OA
BRANCH  16  19
ATOM     19  O   UNL     1       8.112   4.128  17.088  0.00  0.00    +0.000 OA
ATOM     20  H   UNL     1       7.977   4.072  18.053  0.00  0.00    +0.000 HD
ENDBRANCH  16  19
ENDBRANCH  15  16
ENDBRANCH   3  15
TORSDOF 7
ENDMDL
MODEL 3
REMARK VINA RESULT:      -6.9      1.290      1.982
REMARK  Name = 
REMARK  7 active torsions:
REMARK  status: ('A' for Active; 'I' for Inactive)
REMARK    1  A    between atoms: C_2  and  C_4
REMARK    2  A    between atoms: C_4  and  O_5
REMARK    3  A    between atoms: O_5  and  C_6
REMARK    4  A    between atoms: C_8  and  O_9
REMARK    5  A    between atoms: O_9  and  P_10
REMARK    6  A    between atoms: P_10  and  O_13
REMARK    7  A    between atoms: C_15  and  C_16
REMARK                            x       y       z     vdW  Elec       q    Type
REMARK                         _______ _______ _______ _____ _____    ______ ____
ROOT
ATOM      1  C   UNL     1       2.790   4.967  18.281  0.00  0.00    +0.000 A 
ATOM      2  C   UNL     1       3.989   4.932  17.574  0.00  0.00    +0.000 A 
ATOM      3  C   UNL     1       4.574   6.130  17.113  0.00  0.00    +0.000 A 
ATOM      4  C   UNL     1       3.973   7.366  17.351  0.00  0.00    +0.000 A 
ATOM      5  C   UNL     1       2.772   7.416  18.079  0.00  0.00    +0.000 A 
ATOM      6  C   UNL     1       2.231   6.217  18.555  0.00  0.00    +0.000 A 
ENDROOT
BRANCH   5   7
ATOM      7  C   UNL     1       2.018   8.695  18.354  0.00  0.00    +0.000 C 
ATOM      8  O   UNL     1       1.480   8.770  19.514  0.00  0.00    +0.000 OA
ATOM      9  O   UNL     1       1.996   9.585  17.457  0.00  0.00    +0.000 OA
ENDBRANCH   5   7
BRANCH   1  10
ATOM     10  O   UNL     1       2.190   3.777  18.681  0.00  0.00    +0.000 OA
BRANCH  10  11
ATOM     11  C   UNL     1       1.790   3.887  20.050  0.00  0.00    +0.000 C 
BRANCH  11  13
ATOM     12  O   UNL     1       2.132   3.114  22.222  0.00  0.00    +0.000 OA
ATOM     13  C   UNL     1       2.564   3.031  21.028  0.00  0.00    +0.000 C 
ATOM     14  O   UNL     1       3.650   2.469  20.693  0.00  0.00    +0.000 OA
ENDBRANCH  11  13
ENDBRANCH  10  11
ENDBRANCH   1  10
BRANCH   3  15
ATOM     15  O   UNL     1       5.783   5.992  16.475  0.00  0.00    +0.000 OA
BRANCH  15  16
ATOM     16  P   UNL     1       7.060   4.997  17.086  0.00  0.00    +0.000 P 
ATOM     17  O   UNL     1       7.489   4.562  15.680  0.00  0.00    +0.000 OA
ATOM     18  O   UNL     1       7.792   6.205  17.689  0.00  0.00    +0.000 OA
BRANCH  16  19
ATOM     19  O   UNL     1       8.335   4.002  17.697  0.00  0.00    +0.000 OA
ATOM     20  H   UNL     1       8.940   4.138  16.943  0.00  0.00    +0.000 HD
ENDBRANCH  16  19
ENDBRANCH  15  16
ENDBRANCH   3  15
TORSDOF 7
ENDMDL
MODEL 4
REMARK VINA RESULT:      -6.9      2.868      6.599
REMARK  Name = 
REMARK  7 active torsions:
REMARK  status: ('A' for Active; 'I' for Inactive)
REMARK    1  A    between atoms: C_2  and  C_4
REMARK    2  A    between atoms: C_4  and  O_5
REMARK    3  A    between atoms: O_5  and  C_6
REMARK    4  A    between atoms: C_8  and  O_9
REMARK    5  A    between atoms: O_9  and  P_10
REMARK    6  A    between atoms: P_10  and  O_13
REMARK    7  A    between atoms: C_15  and  C_16
REMARK                            x       y       z     vdW  Elec       q    Type
REMARK                         _______ _______ _______ _____ _____    ______ ____
ROOT
ATOM      1  C   UNL     1       5.609   4.043  16.665  0.00  0.00    +0.000 A 
ATOM      2  C   UNL     1       4.346   3.962  17.245  0.00  0.00    +0.000 A 
ATOM      3  C   UNL     1       4.122   4.500  18.530  0.00  0.00    +0.000 A 
ATOM      4  C   UNL     1       5.148   5.118  19.243  0.00  0.00    +0.000 A 
ATOM      5  C   UNL     1       6.422   5.223  18.660  0.00  0.00    +0.000 A 
ATOM      6  C   UNL     1       6.609   4.713  17.372  0.00  0.00    +0.000 A 
ENDROOT
BRANCH   5   7
ATOM      7  C   UNL     1       7.611   5.835  19.363  0.00  0.00    +0.000 C 
ATOM      8  O   UNL     1       7.924   5.287  20.478  0.00  0.00    +0.000 OA
ATOM      9  O   UNL     1       8.210   6.797  18.803  0.00  0.00    +0.000 OA
ENDBRANCH   5   7
BRANCH   1  10
ATOM     10  O   UNL     1       5.836   3.459  15.422  0.00  0.00    +0.000 OA
BRANCH  10  11
ATOM     11  C   UNL     1       5.742   4.460  14.405  0.00  0.00    +0.000 C 
BRANCH  11  13
ATOM     12  O   UNL     1       7.810   5.468  14.035  0.00  0.00    +0.000 OA
ATOM     13  C   UNL     1       6.975   4.640  13.549  0.00  0.00    +0.000 C 
ATOM     14  O   UNL     1       7.038   4.158  12.378  0.00  0.00    +0.000 OA
ENDBRANCH  11  13
ENDBRANCH  10  11
ENDBRANCH   1  10
BRANCH   3  15
ATOM     15  O   UNL     1       2.830   4.417  18.990  0.00  0.00    +0.000 OA
BRANCH  15  16
ATOM     16  P   UNL     1       2.429   3.819  20.563  0.00  0.00    +0.000 P 
ATOM     17  O   UNL     1       0.991   4.345  20.473  0.00  0.00    +0.000 OA
ATOM     18  O   UNL     1       2.659   2.362  20.132  0.00  0.00    +0.000 OA
BRANCH  16  19
ATOM     19  O   UNL     1       2.028   3.221  22.135  0.00  0.00    +0.000 OA
ATOM     20  H   UNL     1       2.643   3.800  22.623  0.00  0.00    +0.000 HD
ENDBRANCH  16  19
ENDBRANCH  15  16
ENDBRANCH   3  15
TORSDOF 7
ENDMDL
MODEL 5
REMARK VINA RESULT:      -6.8      1.726      2.301
REMARK  Name = 
REMARK  7 active torsions:
REMARK  status: ('A' for Active; 'I' for Inactive)
REMARK    1  A    between atoms: C_2  and  C_4
REMARK    2  A    between atoms: C_4  and  O_5
REMARK    3  A    between atoms: O_5  and  C_6
REMARK    4  A    between atoms: C_8  and  O_9
REMARK    5  A    between atoms: O_9  and  P_10
REMARK    6  A    between atoms: P_10  and  O_13
REMARK    7  A    between atoms: C_15  and  C_16
REMARK                            x       y       z     vdW  Elec       q    Type
REMARK                         _______ _______ _______ _____ _____    ______ ____
ROOT
ATOM      1  C   UNL     1       2.788   4.444  17.515  0.00  0.00    +0.000 A 
ATOM      2  C   UNL     1       4.159   4.384  17.280  0.00  0.00    +0.000 A 
ATOM      3  C   UNL     1       4.945   5.552  17.376  0.00  0.00    +0.000 A 
ATOM      4  C   UNL     1       4.375   6.781  17.705  0.00  0.00    +0.000 A 
ATOM      5  C   UNL     1       2.996   6.850  17.963  0.00  0.00    +0.000 A 
ATOM      6  C   UNL     1       2.245   5.672  17.896  0.00  0.00    +0.000 A 
ENDROOT
BRANCH   5   7
ATOM      7  C   UNL     1       2.273   8.137  18.285  0.00  0.00    +0.000 C 
ATOM      8  O   UNL     1       1.823   8.224  19.481  0.00  0.00    +0.000 OA
ATOM      9  O   UNL     1       2.190   9.021  17.385  0.00  0.00    +0.000 OA
ENDBRANCH   5   7
BRANCH   1  10
ATOM     10  O   UNL     1       2.012   3.299  17.362  0.00  0.00    +0.000 OA
BRANCH  10  11
ATOM     11  C   UNL     1       2.523   2.265  18.206  0.00  0.00    +0.000 C 
BRANCH  11  13
ATOM     12  O   UNL     1       3.430   2.430  20.347  0.00  0.00    +0.000 OA
ATOM     13  C   UNL     1       2.341   2.483  19.692  0.00  0.00    +0.000 C 
ATOM     14  O   UNL     1       1.186   2.505  20.216  0.00  0.00    +0.000 OA
ENDBRANCH  11  13
ENDBRANCH  10  11
ENDBRANCH   1  10
BRANCH   3  15
ATOM     15  O   UNL     1       6.293   5.376  17.179  0.00  0.00    +0.000 OA
BRANCH  15  16
ATOM     16  P   UNL     1       7.432   5.306  18.480  0.00  0.00    +0.000 P 
ATOM     17  O   UNL     1       8.252   4.205  17.797  0.00  0.00    +0.000 OA
ATOM     18  O   UNL     1       7.885   6.754  18.239  0.00  0.00    +0.000 OA
BRANCH  16  19
ATOM     19  O   UNL     1       8.570   5.236  19.780  0.00  0.00    +0.000 OA
ATOM     20  H   UNL     1       8.169   4.466  20.224  0.00  0.00    +0.000 HD
ENDBRANCH  16  19
ENDBRANCH  15  16
ENDBRANCH   3  15
TORSDOF 7
ENDMDL
MODEL 6
REMARK VINA RESULT:      -6.8      2.455      5.261
REMARK  Name = 
REMARK  7 active torsions:
REMARK  status: ('A' for Active; 'I' for Inactive)
REMARK    1  A    between atoms: C_2  and  C_4
REMARK    2  A    between atoms: C_4  and  O_5
REMARK    3  A    between atoms: O_5  and  C_6
REMARK    4  A    between atoms: C_8  and  O_9
REMARK    5  A    between atoms: O_9  and  P_10
REMARK    6  A    between atoms: P_10  and  O_13
REMARK    7  A    between atoms: C_15  and  C_16
REMARK                            x       y       z     vdW  Elec       q    Type
REMARK                         _______ _______ _______ _____ _____    ______ ____
ROOT
ATOM      1  C   UNL     1       4.706   6.161  17.185  0.00  0.00    +0.000 A 
ATOM      2  C   UNL     1       4.501   5.054  18.004  0.00  0.00    +0.000 A 
ATOM      3  C   UNL     1       3.480   5.073  18.977  0.00  0.00    +0.000 A 
ATOM      4  C   UNL     1       2.660   6.189  19.142  0.00  0.00    +0.000 A 
ATOM      5  C   UNL     1       2.844   7.305  18.309  0.00  0.00    +0.000 A 
ATOM      6  C   UNL     1       3.840   7.247  17.329  0.00  0.00    +0.000 A 
ENDROOT
BRANCH   5   7
ATOM      7  C   UNL     1       2.040   8.578  18.432  0.00  0.00    +0.000 C 
ATOM      8  O   UNL     1       2.017   9.309  17.381  0.00  0.00    +0.000 OA
ATOM      9  O   UNL     1       1.444   8.808  19.522  0.00  0.00    +0.000 OA
ENDBRANCH   5   7
BRANCH   1  10
ATOM     10  O   UNL     1       5.752   6.156  16.268  0.00  0.00    +0.000 OA
BRANCH  10  11
ATOM     11  C   UNL     1       6.976   5.867  16.949  0.00  0.00    +0.000 C 
BRANCH  11  13
ATOM     12  O   UNL     1       8.107   6.754  18.783  0.00  0.00    +0.000 OA
ATOM     13  C   UNL     1       7.634   7.042  17.638  0.00  0.00    +0.000 C 
ATOM     14  O   UNL     1       7.520   8.219  17.181  0.00  0.00    +0.000 OA
ENDBRANCH  11  13
ENDBRANCH  10  11
ENDBRANCH   1  10
BRANCH   3  15
ATOM     15  O   UNL     1       3.325   3.912  19.696  0.00  0.00    +0.000 OA
BRANCH  15  16
ATOM     16  P   UNL     1       3.773   2.359  19.080  0.00  0.00    +0.000 P 
ATOM     17  O   UNL     1       4.757   2.109  20.229  0.00  0.00    +0.000 OA
ATOM     18  O   UNL     1       2.349   1.812  19.258  0.00  0.00    +0.000 OA
BRANCH  16  19
ATOM     19  O   UNL     1       4.222   0.807  18.464  0.00  0.00    +0.000 OA
ATOM     20  H   UNL     1       5.180   0.913  18.609  0.00  0.00    +0.000 HD
ENDBRANCH  16  19
ENDBRANCH  15  16
ENDBRANCH   3  15
TORSDOF 7
ENDMDL
MODEL 7
REMARK VINA RESULT:      -6.8      1.650      2.267
REMARK  Name = 
REMARK  7 active torsions:
REMARK  status: ('A' for Active; 'I' for Inactive)
REMARK    1  A    between atoms: C_2  and  C_4
REMARK    2  A    between atoms: C_4  and  O_5
REMARK    3  A    between atoms: O_5  and  C_6
REMARK    4  A    between atoms: C_8  and  O_9
REMARK    5  A    between atoms: O_9  and  P_10
REMARK    6  A    between atoms: P_10  and  O_13
REMARK    7  A    between atoms: C_15  and  C_16
REMARK                            x       y       z     vdW  Elec       q    Type
REMARK                         _______ _______ _______ _____ _____    ______ ____
ROOT
ATOM      1  C   UNL     1       2.407   4.532  17.714  0.00  0.00    +0.000 A 
ATOM      2  C   UNL     1       3.760   4.403  17.413  0.00  0.00    +0.000 A 
ATOM      3  C   UNL     1       4.599   5.537  17.420  0.00  0.00    +0.000 A 
ATOM      4  C   UNL     1       4.098   6.803  17.724  0.00  0.00    +0.000 A 
ATOM      5  C   UNL     1       2.739   6.943  18.048  0.00  0.00    +0.000 A 
ATOM      6  C   UNL     1       1.936   5.798  18.068  0.00  0.00    +0.000 A 
ENDROOT
BRANCH   5   7
ATOM      7  C   UNL     1       2.088   8.273  18.350  0.00  0.00    +0.000 C 
ATOM      8  O   UNL     1       2.051   9.095  17.369  0.00  0.00    +0.000 OA
ATOM      9  O   UNL     1       1.617   8.462  19.508  0.00  0.00    +0.000 OA
ENDBRANCH   5   7
BRANCH   1  10
ATOM     10  O   UNL     1       1.576   3.418  17.648  0.00  0.00    +0.000 OA
BRANCH  10  11
ATOM     11  C   UNL     1       2.134   2.365  18.440  0.00  0.00    +0.000 C 
BRANCH  11  13
ATOM     12  O   UNL     1       0.830   2.854  20.309  0.00  0.00    +0.000 OA
ATOM     13  C   UNL     1       2.004   2.534  19.937  0.00  0.00    +0.000 C 
ATOM     14  O   UNL     1       3.027   2.552  20.687  0.00  0.00    +0.000 OA
ENDBRANCH  11  13
ENDBRANCH  10  11
ENDBRANCH   1  10
BRANCH   3  15
ATOM     15  O   UNL     1       5.926   5.294  17.163  0.00  0.00    +0.000 OA
BRANCH  15  16
ATOM     16  P   UNL     1       7.207   6.018  18.073  0.00  0.00    +0.000 P 
ATOM     17  O   UNL     1       7.872   4.664  18.347  0.00  0.00    +0.000 OA
ATOM     18  O   UNL     1       7.711   6.801  16.852  0.00  0.00    +0.000 OA
BRANCH  16  19
ATOM     19  O   UNL     1       8.487   6.741  18.983  0.00  0.00    +0.000 OA
ATOM     20  H   UNL     1       7.911   7.282  19.555  0.00  0.00    +0.000 HD
ENDBRANCH  16  19
ENDBRANCH  15  16
ENDBRANCH   3  15
TORSDOF 7
ENDMDL
MODEL 8
REMARK VINA RESULT:      -6.8      1.311      4.424
REMARK  Name = 
REMARK  7 active torsions:
REMARK  status: ('A' for Active; 'I' for Inactive)
REMARK    1  A    between atoms: C_2  and  C_4
REMARK    2  A    between atoms: C_4  and  O_5
REMARK    3  A    between atoms: O_5  and  C_6
REMARK    4  A    between atoms: C_8  and  O_9
REMARK    5  A    between atoms: O_9  and  P_10
REMARK    6  A    between atoms: P_10  and  O_13
REMARK    7  A    between atoms: C_15  and  C_16
REMARK                            x       y       z     vdW  Elec       q    Type
REMARK                         _______ _______ _______ _____ _____    ______ ____
ROOT
ATOM      1  C   UNL     1       3.357   6.278  17.734  0.00  0.00    +0.000 A 
ATOM      2  C   UNL     1       4.385   5.629  17.055  0.00  0.00    +0.000 A 
ATOM      3  C   UNL     1       4.420   4.220  17.001  0.00  0.00    +0.000 A 
ATOM      4  C   UNL     1       3.437   3.450  17.622  0.00  0.00    +0.000 A 
ATOM      5  C   UNL     1       2.384   4.093  18.295  0.00  0.00    +0.000 A 
ATOM      6  C   UNL     1       2.353   5.491  18.303  0.00  0.00    +0.000 A 
ENDROOT
BRANCH   5   7
ATOM      7  C   UNL     1       1.294   3.353  19.035  0.00  0.00    +0.000 C 
ATOM      8  O   UNL     1       1.021   2.188  18.578  0.00  0.00    +0.000 OA
ATOM      9  O   UNL     1       0.765   3.910  20.039  0.00  0.00    +0.000 OA
ENDBRANCH   5   7
BRANCH   1  10
ATOM     10  O   UNL     1       3.362   7.666  17.830  0.00  0.00    +0.000 OA
BRANCH  10  11
ATOM     11  C   UNL     1       2.152   8.101  18.456  0.00  0.00    +0.000 C 
BRANCH  11  13
ATOM     12  O   UNL     1       2.439  10.216  17.521  0.00  0.00    +0.000 OA
ATOM     13  C   UNL     1       1.561   9.384  17.916  0.00  0.00    +0.000 C 
ATOM     14  O   UNL     1       0.328   9.648  18.053  0.00  0.00    +0.000 OA
ENDBRANCH  11  13
ENDBRANCH  10  11
ENDBRANCH   1  10
BRANCH   3  15
ATOM     15  O   UNL     1       5.443   3.680  16.261  0.00  0.00    +0.000 OA
BRANCH  15  16
ATOM     16  P   UNL     1       6.582   4.646  15.388  0.00  0.00    +0.000 P 
ATOM     17  O   UNL     1       7.714   4.326  16.372  0.00  0.00    +0.000 OA
ATOM     18  O   UNL     1       6.475   3.752  14.144  0.00  0.00    +0.000 OA
BRANCH  16  19
ATOM     19  O   UNL     1       7.721   5.612  14.516  0.00  0.00    +0.000 OA
ATOM     20  H   UNL     1       7.058   6.120  14.012  0.00  0.00    +0.000 HD
ENDBRANCH  16  19
ENDBRANCH  15  16
ENDBRANCH   3  15
TORSDOF 7
ENDMDL
MODEL 9
REMARK VINA RESULT:      -6.8      1.061      1.701
REMARK  Name = 
REMARK  7 active torsions:
REMARK  status: ('A' for Active; 'I' for Inactive)
REMARK    1  A    between atoms: C_2  and  C_4
REMARK    2  A    between atoms: C_4  and  O_5
REMARK    3  A    between atoms: O_5  and  C_6
REMARK    4  A    between atoms: C_8  and  O_9
REMARK    5  A    between atoms: O_9  and  P_10
REMARK    6  A    between atoms: P_10  and  O_13
REMARK    7  A    between atoms: C_15  and  C_16
REMARK                            x       y       z     vdW  Elec       q    Type
REMARK                         _______ _______ _______ _____ _____    ______ ____
ROOT
ATOM      1  C   UNL     1       2.498   4.119  17.789  0.00  0.00    +0.000 A 
ATOM      2  C   UNL     1       3.831   3.879  17.468  0.00  0.00    +0.000 A 
ATOM      3  C   UNL     1       4.750   4.948  17.409  0.00  0.00    +0.000 A 
ATOM      4  C   UNL     1       4.349   6.259  17.666  0.00  0.00    +0.000 A 
ATOM      5  C   UNL     1       3.010   6.512  18.009  0.00  0.00    +0.000 A 
ATOM      6  C   UNL     1       2.128   5.431  18.096  0.00  0.00    +0.000 A 
ENDROOT
BRANCH   5   7
ATOM      7  C   UNL     1       2.465   7.898  18.264  0.00  0.00    +0.000 C 
ATOM      8  O   UNL     1       2.517   8.695  17.263  0.00  0.00    +0.000 OA
ATOM      9  O   UNL     1       1.984   8.154  19.405  0.00  0.00    +0.000 OA
ENDBRANCH   5   7
BRANCH   1  10
ATOM     10  O   UNL     1       1.587   3.067  17.789  0.00  0.00    +0.000 OA
BRANCH  10  11
ATOM     11  C   UNL     1       1.997   2.088  18.747  0.00  0.00    +0.000 C 
BRANCH  11  13
ATOM     12  O   UNL     1       0.748   2.956  20.513  0.00  0.00    +0.000 OA
ATOM     13  C   UNL     1       1.896   2.509  20.197  0.00  0.00    +0.000 C 
ATOM     14  O   UNL     1       2.927   2.588  20.931  0.00  0.00    +0.000 OA
ENDBRANCH  11  13
ENDBRANCH  10  11
ENDBRANCH   1  10
BRANCH   3  15
ATOM     15  O   UNL     1       6.050   4.598  17.138  0.00  0.00    +0.000 OA
BRANCH  15  16
ATOM     16  P   UNL     1       6.841   4.999  15.653  0.00  0.00    +0.000 P 
ATOM     17  O   UNL     1       5.511   5.182  14.912  0.00  0.00    +0.000 OA
ATOM     18  O   UNL     1       7.471   6.261  16.261  0.00  0.00    +0.000 OA
BRANCH  16  19
ATOM     19  O   UNL     1       7.632   5.400  14.168  0.00  0.00    +0.000 OA
ATOM     20  H   UNL     1       7.064   6.164  13.954  0.00  0.00    +0.000 HD
ENDBRANCH  16  19
ENDBRANCH  15  16
ENDBRANCH   3  15
TORSDOF 7
ENDMDL
