MODEL 1
REMARK VINA RESULT:      -8.1      0.000      0.000
REMARK  Name = 
REMARK  4 active torsions:
REMARK  status: ('A' for Active; 'I' for Inactive)
REMARK    1  A    between atoms: N_1  and  C_2
REMARK    2  A    between atoms: N_10  and  C_11
REMARK    3  A    between atoms: C_11  and  C_12
REMARK    4  A    between atoms: C_12  and  C_14
REMARK                            x       y       z     vdW  Elec       q    Type
REMARK                         _______ _______ _______ _____ _____    ______ ____
ROOT
ATOM      1  C   UNL     1       4.473   3.275  17.451  0.00  0.00    +0.000 C 
ENDROOT
BRANCH   1  10
ATOM      2  C   UNL     1       7.505   7.045  17.712  0.00  0.00    +0.000 A 
ATOM      3  N   UNL     1       8.035   6.694  18.906  0.00  0.00    +0.000 NA
ATOM      4  C   UNL     1       7.602   5.558  19.493  0.00  0.00    +0.000 A 
ATOM      5  N   UNL     1       6.685   4.676  19.039  0.00  0.00    +0.000 NA
ATOM      6  C   UNL     1       6.203   5.058  17.844  0.00  0.00    +0.000 A 
ATOM      7  C   UNL     1       6.553   6.192  17.126  0.00  0.00    +0.000 A 
ATOM      8  N   UNL     1       5.859   6.248  15.935  0.00  0.00    +0.000 NA
ATOM      9  C   UNL     1       5.080   5.187  15.945  0.00  0.00    +0.000 A 
ATOM     10  N   UNL     1       5.252   4.437  17.079  0.00  0.00    +0.000 N 
BRANCH   2  11
ATOM     11  N   UNL     1       7.933   8.232  17.131  0.00  0.00    +0.000 N 
ATOM     12  H   UNL     1       7.202   8.694  16.607  0.00  0.00    +0.000 HD
ATOM     13  H   UNL     1       8.519   8.795  17.734  0.00  0.00    +0.000 HD
ENDBRANCH   2  11
ENDBRANCH   1  10
BRANCH   1  14
ATOM     14  C   UNL     1       3.024   3.609  17.748  0.00  0.00    +0.000 C 
ATOM     15  O   UNL     1       2.129   3.088  17.078  0.00  0.00    +0.000 OA
BRANCH  14  16
ATOM     16  C   UNL     1       2.717   4.533  18.847  0.00  0.00    +0.000 A 
ATOM     17  C   UNL     1       2.615   4.177  20.181  0.00  0.00    +0.000 A 
ATOM     18  N   UNL     1       2.272   5.284  20.907  0.00  0.00    +0.000 N 
ATOM     19  C   UNL     1       2.159   6.376  20.082  0.00  0.00    +0.000 A 
ATOM     20  C   UNL     1       1.813   7.693  20.398  0.00  0.00    +0.000 A 
ATOM     21  C   UNL     1       1.776   8.622  19.356  0.00  0.00    +0.000 A 
ATOM     22  C   UNL     1       2.085   8.243  18.053  0.00  0.00    +0.000 A 
ATOM     23  C   UNL     1       2.425   6.914  17.754  0.00  0.00    +0.000 A 
ATOM     24  C   UNL     1       2.455   5.947  18.785  0.00  0.00    +0.000 A 
ATOM     25  H   UNL     1       2.116   5.303  21.904  0.00  0.00    +0.000 HD
ENDBRANCH  14  16
ENDBRANCH   1  14
TORSDOF 4
ENDMDL
MODEL 2
REMARK VINA RESULT:      -7.4      3.108      6.719
REMARK  Name = 
REMARK  4 active torsions:
REMARK  status: ('A' for Active; 'I' for Inactive)
REMARK    1  A    between atoms: N_1  and  C_2
REMARK    2  A    between atoms: N_10  and  C_11
REMARK    3  A    between atoms: C_11  and  C_12
REMARK    4  A    between atoms: C_12  and  C_14
REMARK                            x       y       z     vdW  Elec       q    Type
REMARK                         _______ _______ _______ _____ _____    ______ ____
ROOT
ATOM      1  C   UNL     1       4.259   3.041  16.919  0.00  0.00    +0.000 C 
ENDROOT
BRANCH   1  10
ATOM      2  C   UNL     1       1.556   2.712  20.927  0.00  0.00    +0.000 A 
ATOM      3  N   UNL     1       0.370   2.812  20.284  0.00  0.00    +0.000 NA
ATOM      4  C   UNL     1       0.375   2.923  18.939  0.00  0.00    +0.000 A 
ATOM      5  N   UNL     1       1.435   2.939  18.101  0.00  0.00    +0.000 NA
ATOM      6  C   UNL     1       2.587   2.817  18.785  0.00  0.00    +0.000 A 
ATOM      7  C   UNL     1       2.734   2.696  20.159  0.00  0.00    +0.000 A 
ATOM      8  N   UNL     1       4.066   2.582  20.498  0.00  0.00    +0.000 NA
ATOM      9  C   UNL     1       4.716   2.665  19.357  0.00  0.00    +0.000 A 
ATOM     10  N   UNL     1       3.865   2.810  18.293  0.00  0.00    +0.000 N 
BRANCH   2  11
ATOM     11  N   UNL     1       1.543   2.632  22.314  0.00  0.00    +0.000 N 
ATOM     12  H   UNL     1       0.797   3.173  22.728  0.00  0.00    +0.000 HD
ATOM     13  H   UNL     1       1.714   1.700  22.671  0.00  0.00    +0.000 HD
ENDBRANCH   2  11
ENDBRANCH   1  10
BRANCH   1  14
ATOM     14  C   UNL     1       4.611   4.490  16.645  0.00  0.00    +0.000 C 
ATOM     15  O   UNL     1       3.940   5.388  17.159  0.00  0.00    +0.000 OA
BRANCH  14  16
ATOM     16  C   UNL     1       5.763   4.792  15.786  0.00  0.00    +0.000 A 
ATOM     17  C   UNL     1       6.854   5.559  16.159  0.00  0.00    +0.000 A 
ATOM     18  N   UNL     1       7.703   5.664  15.092  0.00  0.00    +0.000 N 
ATOM     19  C   UNL     1       7.204   4.969  14.019  0.00  0.00    +0.000 A 
ATOM     20  C   UNL     1       7.734   4.824  12.733  0.00  0.00    +0.000 A 
ATOM     21  C   UNL     1       7.019   4.048  11.819  0.00  0.00    +0.000 A 
ATOM     22  C   UNL     1       5.826   3.434  12.188  0.00  0.00    +0.000 A 
ATOM     23  C   UNL     1       5.307   3.594  13.483  0.00  0.00    +0.000 A 
ATOM     24  C   UNL     1       6.000   4.388  14.425  0.00  0.00    +0.000 A 
ATOM     25  H   UNL     1       8.569   6.183  15.085  0.00  0.00    +0.000 HD
ENDBRANCH  14  16
ENDBRANCH   1  14
TORSDOF 4
ENDMDL
MODEL 3
REMARK VINA RESULT:      -7.3      2.912      6.432
REMARK  Name = 
REMARK  4 active torsions:
REMARK  status: ('A' for Active; 'I' for Inactive)
REMARK    1  A    between atoms: N_1  and  C_2
REMARK    2  A    between atoms: N_10  and  C_11
REMARK    3  A    between atoms: C_11  and  C_12
REMARK    4  A    between atoms: C_12  and  C_14
REMARK                            x       y       z     vdW  Elec       q    Type
REMARK                         _______ _______ _______ _____ _____    ______ ____
ROOT
ATOM      1  C   UNL     1       3.769   3.678  16.736  0.00  0.00    +0.000 C 
ENDROOT
BRANCH   1  10
ATOM      2  C   UNL     1       2.123   2.635  21.172  0.00  0.00    +0.000 A 
ATOM      3  N   UNL     1       3.309   2.186  21.640  0.00  0.00    +0.000 NA
ATOM      4  C   UNL     1       4.379   2.216  20.818  0.00  0.00    +0.000 A 
ATOM      5  N   UNL     1       4.446   2.659  19.543  0.00  0.00    +0.000 NA
ATOM      6  C   UNL     1       3.249   3.112  19.131  0.00  0.00    +0.000 A 
ATOM      7  C   UNL     1       2.070   3.143  19.861  0.00  0.00    +0.000 A 
ATOM      8  N   UNL     1       1.048   3.686  19.113  0.00  0.00    +0.000 NA
ATOM      9  C   UNL     1       1.586   3.951  17.941  0.00  0.00    +0.000 A 
ATOM     10  N   UNL     1       2.915   3.620  17.904  0.00  0.00    +0.000 N 
BRANCH   2  11
ATOM     11  N   UNL     1       1.021   2.570  22.014  0.00  0.00    +0.000 N 
ATOM     12  H   UNL     1       1.218   2.081  22.876  0.00  0.00    +0.000 HD
ATOM     13  H   UNL     1       0.491   3.432  22.062  0.00  0.00    +0.000 HD
ENDBRANCH   2  11
ENDBRANCH   1  10
BRANCH   1  14
ATOM     14  C   UNL     1       4.514   4.993  16.617  0.00  0.00    +0.000 C 
ATOM     15  O   UNL     1       4.137   5.968  17.270  0.00  0.00    +0.000 OA
BRANCH  14  16
ATOM     16  C   UNL     1       5.688   5.069  15.739  0.00  0.00    +0.000 A 
ATOM     17  C   UNL     1       6.872   5.718  16.046  0.00  0.00    +0.000 A 
ATOM     18  N   UNL     1       7.719   5.620  14.977  0.00  0.00    +0.000 N 
ATOM     19  C   UNL     1       7.126   4.905  13.966  0.00  0.00    +0.000 A 
ATOM     20  C   UNL     1       7.622   4.582  12.699  0.00  0.00    +0.000 A 
ATOM     21  C   UNL     1       6.804   3.829  11.854  0.00  0.00    +0.000 A 
ATOM     22  C   UNL     1       5.545   3.409  12.272  0.00  0.00    +0.000 A 
ATOM     23  C   UNL     1       5.062   3.745  13.546  0.00  0.00    +0.000 A 
ATOM     24  C   UNL     1       5.860   4.521  14.418  0.00  0.00    +0.000 A 
ATOM     25  H   UNL     1       8.644   6.020  14.927  0.00  0.00    +0.000 HD
ENDBRANCH  14  16
ENDBRANCH   1  14
TORSDOF 4
ENDMDL
MODEL 4
REMARK VINA RESULT:      -7.3      1.059      1.200
REMARK  Name = 
REMARK  4 active torsions:
REMARK  status: ('A' for Active; 'I' for Inactive)
REMARK    1  A    between atoms: N_1  and  C_2
REMARK    2  A    between atoms: N_10  and  C_11
REMARK    3  A    between atoms: C_11  and  C_12
REMARK    4  A    between atoms: C_12  and  C_14
REMARK                            x       y       z     vdW  Elec       q    Type
REMARK                         _______ _______ _______ _____ _____    ______ ____
ROOT
ATOM      1  C   UNL     1       3.740   2.728  18.854  0.00  0.00    +0.000 C 
ENDROOT
BRANCH   1  10
ATOM      2  C   UNL     1       7.099   5.879  17.349  0.00  0.00    +0.000 A 
ATOM      3  N   UNL     1       7.598   6.124  18.581  0.00  0.00    +0.000 NA
ATOM      4  C   UNL     1       7.066   5.466  19.634  0.00  0.00    +0.000 A 
ATOM      5  N   UNL     1       6.073   4.551  19.637  0.00  0.00    +0.000 NA
ATOM      6  C   UNL     1       5.625   4.328  18.389  0.00  0.00    +0.000 A 
ATOM      7  C   UNL     1       6.073   4.926  17.220  0.00  0.00    +0.000 A 
ATOM      8  N   UNL     1       5.383   4.440  16.129  0.00  0.00    +0.000 NA
ATOM      9  C   UNL     1       4.513   3.588  16.628  0.00  0.00    +0.000 A 
ATOM     10  N   UNL     1       4.620   3.487  17.990  0.00  0.00    +0.000 N 
BRANCH   2  11
ATOM     11  N   UNL     1       7.630   6.584  16.277  0.00  0.00    +0.000 N 
ATOM     12  H   UNL     1       7.022   6.580  15.469  0.00  0.00    +0.000 HD
ATOM     13  H   UNL     1       8.072   7.457  16.539  0.00  0.00    +0.000 HD
ENDBRANCH   2  11
ENDBRANCH   1  10
BRANCH   1  14
ATOM     14  C   UNL     1       2.352   3.327  18.953  0.00  0.00    +0.000 C 
ATOM     15  O   UNL     1       1.392   2.725  18.467  0.00  0.00    +0.000 OA
BRANCH  14  16
ATOM     16  C   UNL     1       2.177   4.608  19.649  0.00  0.00    +0.000 A 
ATOM     17  C   UNL     1       1.936   4.750  21.005  0.00  0.00    +0.000 A 
ATOM     18  N   UNL     1       1.782   6.080  21.288  0.00  0.00    +0.000 N 
ATOM     19  C   UNL     1       1.931   6.827  20.146  0.00  0.00    +0.000 A 
ATOM     20  C   UNL     1       1.838   8.212  19.975  0.00  0.00    +0.000 A 
ATOM     21  C   UNL     1       2.041   8.723  18.691  0.00  0.00    +0.000 A 
ATOM     22  C   UNL     1       2.336   7.876  17.628  0.00  0.00    +0.000 A 
ATOM     23  C   UNL     1       2.421   6.488  17.817  0.00  0.00    +0.000 A 
ATOM     24  C   UNL     1       2.204   5.939  19.102  0.00  0.00    +0.000 A 
ATOM     25  H   UNL     1       1.581   6.463  22.199  0.00  0.00    +0.000 HD
ENDBRANCH  14  16
ENDBRANCH   1  14
TORSDOF 4
ENDMDL
MODEL 5
REMARK VINA RESULT:      -7.2      2.511      6.309
REMARK  Name = 
REMARK  4 active torsions:
REMARK  status: ('A' for Active; 'I' for Inactive)
REMARK    1  A    between atoms: N_1  and  C_2
REMARK    2  A    between atoms: N_10  and  C_11
REMARK    3  A    between atoms: C_11  and  C_12
REMARK    4  A    between atoms: C_12  and  C_14
REMARK                            x       y       z     vdW  Elec       q    Type
REMARK                         _______ _______ _______ _____ _____    ______ ____
ROOT
ATOM      1  C   UNL     1       4.586   5.719  17.913  0.00  0.00    +0.000 C 
ENDROOT
BRANCH   1  10
ATOM      2  C   UNL     1       2.563   2.858  21.260  0.00  0.00    +0.000 A 
ATOM      3  N   UNL     1       3.586   1.974  21.300  0.00  0.00    +0.000 NA
ATOM      4  C   UNL     1       4.663   2.201  20.518  0.00  0.00    +0.000 A 
ATOM      5  N   UNL     1       4.885   3.230  19.672  0.00  0.00    +0.000 NA
ATOM      6  C   UNL     1       3.851   4.089  19.682  0.00  0.00    +0.000 A 
ATOM      7  C   UNL     1       2.686   3.986  20.429  0.00  0.00    +0.000 A 
ATOM      8  N   UNL     1       1.856   5.060  20.187  0.00  0.00    +0.000 NA
ATOM      9  C   UNL     1       2.488   5.783  19.287  0.00  0.00    +0.000 A 
ATOM     10  N   UNL     1       3.698   5.236  18.950  0.00  0.00    +0.000 N 
BRANCH   2  11
ATOM     11  N   UNL     1       1.446   2.600  22.042  0.00  0.00    +0.000 N 
ATOM     12  H   UNL     1       1.298   1.612  22.196  0.00  0.00    +0.000 HD
ATOM     13  H   UNL     1       1.344   3.228  22.830  0.00  0.00    +0.000 HD
ENDBRANCH   2  11
ENDBRANCH   1  10
BRANCH   1  14
ATOM     14  C   UNL     1       4.646   4.795  16.713  0.00  0.00    +0.000 C 
ATOM     15  O   UNL     1       3.752   3.964  16.538  0.00  0.00    +0.000 OA
BRANCH  14  16
ATOM     16  C   UNL     1       5.761   4.927  15.767  0.00  0.00    +0.000 A 
ATOM     17  C   UNL     1       6.934   5.622  16.012  0.00  0.00    +0.000 A 
ATOM     18  N   UNL     1       7.719   5.569  14.893  0.00  0.00    +0.000 N 
ATOM     19  C   UNL     1       7.096   4.839  13.911  0.00  0.00    +0.000 A 
ATOM     20  C   UNL     1       7.528   4.549  12.613  0.00  0.00    +0.000 A 
ATOM     21  C   UNL     1       6.693   3.771  11.809  0.00  0.00    +0.000 A 
ATOM     22  C   UNL     1       5.479   3.295  12.296  0.00  0.00    +0.000 A 
ATOM     23  C   UNL     1       5.060   3.600  13.600  0.00  0.00    +0.000 A 
ATOM     24  C   UNL     1       5.876   4.400  14.433  0.00  0.00    +0.000 A 
ATOM     25  H   UNL     1       8.623   6.007  14.793  0.00  0.00    +0.000 HD
ENDBRANCH  14  16
ENDBRANCH   1  14
TORSDOF 4
ENDMDL
MODEL 6
REMARK VINA RESULT:      -7.2      2.907      5.877
REMARK  Name = 
REMARK  4 active torsions:
REMARK  status: ('A' for Active; 'I' for Inactive)
REMARK    1  A    between atoms: N_1  and  C_2
REMARK    2  A    between atoms: N_10  and  C_11
REMARK    3  A    between atoms: C_11  and  C_12
REMARK    4  A    between atoms: C_12  and  C_14
REMARK                            x       y       z     vdW  Elec       q    Type
REMARK                         _______ _______ _______ _____ _____    ______ ____
ROOT
ATOM      1  C   UNL     1       2.493   6.504  19.642  0.00  0.00    +0.000 C 
ENDROOT
BRANCH   1  10
ATOM      2  C   UNL     1       0.483  10.868  19.015  0.00  0.00    +0.000 A 
ATOM      3  N   UNL     1      -0.113  10.904  20.228  0.00  0.00    +0.000 NA
ATOM      4  C   UNL     1       0.070   9.861  21.067  0.00  0.00    +0.000 A 
ATOM      5  N   UNL     1       0.803   8.744  20.869  0.00  0.00    +0.000 NA
ATOM      6  C   UNL     1       1.390   8.765  19.660  0.00  0.00    +0.000 A 
ATOM      7  C   UNL     1       1.292   9.762  18.700  0.00  0.00    +0.000 A 
ATOM      8  N   UNL     1       2.040   9.441  17.586  0.00  0.00    +0.000 NA
ATOM      9  C   UNL     1       2.557   8.260  17.852  0.00  0.00    +0.000 A 
ATOM     10  N   UNL     1       2.191   7.809  19.093  0.00  0.00    +0.000 N 
BRANCH   2  11
ATOM     11  N   UNL     1       0.262  11.929  18.146  0.00  0.00    +0.000 N 
ATOM     12  H   UNL     1       0.172  11.632  17.185  0.00  0.00    +0.000 HD
ATOM     13  H   UNL     1      -0.393  12.617  18.499  0.00  0.00    +0.000 HD
ENDBRANCH   2  11
ENDBRANCH   1  10
BRANCH   1  14
ATOM     14  C   UNL     1       2.770   5.466  18.573  0.00  0.00    +0.000 C 
ATOM     15  O   UNL     1       1.849   5.068  17.857  0.00  0.00    +0.000 OA
BRANCH  14  16
ATOM     16  C   UNL     1       4.141   4.971  18.399  0.00  0.00    +0.000 A 
ATOM     17  C   UNL     1       4.892   4.343  19.379  0.00  0.00    +0.000 A 
ATOM     18  N   UNL     1       6.132   4.065  18.873  0.00  0.00    +0.000 N 
ATOM     19  C   UNL     1       6.217   4.484  17.569  0.00  0.00    +0.000 A 
ATOM     20  C   UNL     1       7.297   4.415  16.684  0.00  0.00    +0.000 A 
ATOM     21  C   UNL     1       7.114   4.916  15.394  0.00  0.00    +0.000 A 
ATOM     22  C   UNL     1       5.890   5.454  15.008  0.00  0.00    +0.000 A 
ATOM     23  C   UNL     1       4.818   5.520  15.911  0.00  0.00    +0.000 A 
ATOM     24  C   UNL     1       4.978   5.036  17.229  0.00  0.00    +0.000 A 
ATOM     25  H   UNL     1       6.883   3.623  19.382  0.00  0.00    +0.000 HD
ENDBRANCH  14  16
ENDBRANCH   1  14
TORSDOF 4
ENDMDL
MODEL 7
REMARK VINA RESULT:      -7.2      1.111      2.096
REMARK  Name = 
REMARK  4 active torsions:
REMARK  status: ('A' for Active; 'I' for Inactive)
REMARK    1  A    between atoms: N_1  and  C_2
REMARK    2  A    between atoms: N_10  and  C_11
REMARK    3  A    between atoms: C_11  and  C_12
REMARK    4  A    between atoms: C_12  and  C_14
REMARK                            x       y       z     vdW  Elec       q    Type
REMARK                         _______ _______ _______ _____ _____    ______ ____
ROOT
ATOM      1  C   UNL     1       3.727   2.588  18.155  0.00  0.00    +0.000 C 
ENDROOT
BRANCH   1  10
ATOM      2  C   UNL     1       6.859   5.949  16.614  0.00  0.00    +0.000 A 
ATOM      3  N   UNL     1       6.475   5.890  15.319  0.00  0.00    +0.000 NA
ATOM      4  C   UNL     1       5.474   5.049  14.982  0.00  0.00    +0.000 A 
ATOM      5  N   UNL     1       4.760   4.230  15.785  0.00  0.00    +0.000 NA
ATOM      6  C   UNL     1       5.165   4.339  17.062  0.00  0.00    +0.000 A 
ATOM      7  C   UNL     1       6.174   5.156  17.552  0.00  0.00    +0.000 A 
ATOM      8  N   UNL     1       6.301   5.008  18.917  0.00  0.00    +0.000 NA
ATOM      9  C   UNL     1       5.409   4.097  19.245  0.00  0.00    +0.000 A 
ATOM     10  N   UNL     1       4.699   3.662  18.157  0.00  0.00    +0.000 N 
BRANCH   2  11
ATOM     11  N   UNL     1       7.912   6.792  16.946  0.00  0.00    +0.000 N 
ATOM     12  H   UNL     1       7.750   7.748  16.660  0.00  0.00    +0.000 HD
ATOM     13  H   UNL     1       8.294   6.626  17.869  0.00  0.00    +0.000 HD
ENDBRANCH   2  11
ENDBRANCH   1  10
BRANCH   1  14
ATOM     14  C   UNL     1       2.327   3.063  18.490  0.00  0.00    +0.000 C 
ATOM     15  O   UNL     1       1.354   2.471  18.018  0.00  0.00    +0.000 OA
BRANCH  14  16
ATOM     16  C   UNL     1       2.160   4.209  19.391  0.00  0.00    +0.000 A 
ATOM     17  C   UNL     1       1.951   4.124  20.758  0.00  0.00    +0.000 A 
ATOM     18  N   UNL     1       1.795   5.387  21.259  0.00  0.00    +0.000 N 
ATOM     19  C   UNL     1       1.911   6.314  20.253  0.00  0.00    +0.000 A 
ATOM     20  C   UNL     1       1.805   7.707  20.315  0.00  0.00    +0.000 A 
ATOM     21  C   UNL     1       1.973   8.424  19.129  0.00  0.00    +0.000 A 
ATOM     22  C   UNL     1       2.248   7.767  17.934  0.00  0.00    +0.000 A 
ATOM     23  C   UNL     1       2.348   6.368  17.890  0.00  0.00    +0.000 A 
ATOM     24  C   UNL     1       2.165   5.613  19.071  0.00  0.00    +0.000 A 
ATOM     25  H   UNL     1       1.613   5.613  22.226  0.00  0.00    +0.000 HD
ENDBRANCH  14  16
ENDBRANCH   1  14
TORSDOF 4
ENDMDL
MODEL 8
REMARK VINA RESULT:      -7.0      1.992      3.285
REMARK  Name = 
REMARK  4 active torsions:
REMARK  status: ('A' for Active; 'I' for Inactive)
REMARK    1  A    between atoms: N_1  and  C_2
REMARK    2  A    between atoms: N_10  and  C_11
REMARK    3  A    between atoms: C_11  and  C_12
REMARK    4  A    between atoms: C_12  and  C_14
REMARK                            x       y       z     vdW  Elec       q    Type
REMARK                         _______ _______ _______ _____ _____    ______ ____
ROOT
ATOM      1  C   UNL     1       4.086   5.359  19.733  0.00  0.00    +0.000 C 
ENDROOT
BRANCH   1  10
ATOM      2  C   UNL     1       6.358   4.483  15.544  0.00  0.00    +0.000 A 
ATOM      3  N   UNL     1       7.268   5.473  15.689  0.00  0.00    +0.000 NA
ATOM      4  C   UNL     1       7.230   6.222  16.812  0.00  0.00    +0.000 A 
ATOM      5  N   UNL     1       6.389   6.117  17.863  0.00  0.00    +0.000 NA
ATOM      6  C   UNL     1       5.518   5.110  17.680  0.00  0.00    +0.000 A 
ATOM      7  C   UNL     1       5.438   4.262  16.585  0.00  0.00    +0.000 A 
ATOM      8  N   UNL     1       4.426   3.341  16.754  0.00  0.00    +0.000 NA
ATOM      9  C   UNL     1       3.881   3.643  17.914  0.00  0.00    +0.000 A 
ATOM     10  N   UNL     1       4.507   4.706  18.511  0.00  0.00    +0.000 N 
BRANCH   2  11
ATOM     11  N   UNL     1       6.382   3.739  14.371  0.00  0.00    +0.000 N 
ATOM     12  H   UNL     1       6.587   2.763  14.534  0.00  0.00    +0.000 HD
ATOM     13  H   UNL     1       5.639   3.972  13.724  0.00  0.00    +0.000 HD
ENDBRANCH   2  11
ENDBRANCH   1  10
BRANCH   1  14
ATOM     14  C   UNL     1       2.625   5.762  19.711  0.00  0.00    +0.000 C 
ATOM     15  O   UNL     1       1.768   4.971  20.110  0.00  0.00    +0.000 OA
BRANCH  14  16
ATOM     16  C   UNL     1       2.264   7.103  19.234  0.00  0.00    +0.000 A 
ATOM     17  C   UNL     1       2.542   7.600  17.971  0.00  0.00    +0.000 A 
ATOM     18  N   UNL     1       2.100   8.893  17.901  0.00  0.00    +0.000 N 
ATOM     19  C   UNL     1       1.519   9.261  19.088  0.00  0.00    +0.000 A 
ATOM     20  C   UNL     1       0.955  10.486  19.457  0.00  0.00    +0.000 A 
ATOM     21  C   UNL     1       0.421  10.595  20.742  0.00  0.00    +0.000 A 
ATOM     22  C   UNL     1       0.442   9.512  21.615  0.00  0.00    +0.000 A 
ATOM     23  C   UNL     1       1.016   8.291  21.229  0.00  0.00    +0.000 A 
ATOM     24  C   UNL     1       1.581   8.155  19.940  0.00  0.00    +0.000 A 
ATOM     25  H   UNL     1       2.192   9.497  17.097  0.00  0.00    +0.000 HD
ENDBRANCH  14  16
ENDBRANCH   1  14
TORSDOF 4
ENDMDL
MODEL 9
REMARK VINA RESULT:      -7.0      2.880      4.930
REMARK  Name = 
REMARK  4 active torsions:
REMARK  status: ('A' for Active; 'I' for Inactive)
REMARK    1  A    between atoms: N_1  and  C_2
REMARK    2  A    between atoms: N_10  and  C_11
REMARK    3  A    between atoms: C_11  and  C_12
REMARK    4  A    between atoms: C_12  and  C_14
REMARK                            x       y       z     vdW  Elec       q    Type
REMARK                         _______ _______ _______ _____ _____    ______ ____
ROOT
ATOM      1  C   UNL     1       3.074   6.730  18.003  0.00  0.00    +0.000 C 
ENDROOT
BRANCH   1  10
ATOM      2  C   UNL     1       4.148   2.172  19.251  0.00  0.00    +0.000 A 
ATOM      3  N   UNL     1       2.980   1.648  18.816  0.00  0.00    +0.000 NA
ATOM      4  C   UNL     1       2.078   2.473  18.244  0.00  0.00    +0.000 A 
ATOM      5  N   UNL     1       2.177   3.802  18.022  0.00  0.00    +0.000 NA
ATOM      6  C   UNL     1       3.360   4.272  18.454  0.00  0.00    +0.000 A 
ATOM      7  C   UNL     1       4.378   3.547  19.057  0.00  0.00    +0.000 A 
ATOM      8  N   UNL     1       5.448   4.364  19.355  0.00  0.00    +0.000 NA
ATOM      9  C   UNL     1       5.075   5.566  18.970  0.00  0.00    +0.000 A 
ATOM     10  N   UNL     1       3.820   5.561  18.420  0.00  0.00    +0.000 N 
BRANCH   2  11
ATOM     11  N   UNL     1       5.057   1.323  19.868  0.00  0.00    +0.000 N 
ATOM     12  H   UNL     1       6.005   1.668  19.822  0.00  0.00    +0.000 HD
ATOM     13  H   UNL     1       4.728   0.940  20.746  0.00  0.00    +0.000 HD
ENDBRANCH   2  11
ENDBRANCH   1  10
BRANCH   1  14
ATOM     14  C   UNL     1       2.285   7.358  19.135  0.00  0.00    +0.000 C 
ATOM     15  O   UNL     1       2.140   6.742  20.193  0.00  0.00    +0.000 OA
BRANCH  14  16
ATOM     16  C   UNL     1       1.727   8.704  18.952  0.00  0.00    +0.000 A 
ATOM     17  C   UNL     1       1.897   9.490  17.824  0.00  0.00    +0.000 A 
ATOM     18  N   UNL     1       1.278  10.692  18.029  0.00  0.00    +0.000 N 
ATOM     19  C   UNL     1       0.687  10.717  19.268  0.00  0.00    +0.000 A 
ATOM     20  C   UNL     1      -0.031  11.745  19.887  0.00  0.00    +0.000 A 
ATOM     21  C   UNL     1      -0.537  11.504  21.166  0.00  0.00    +0.000 A 
ATOM     22  C   UNL     1      -0.339  10.276  21.790  0.00  0.00    +0.000 A 
ATOM     23  C   UNL     1       0.387   9.257  21.154  0.00  0.00    +0.000 A 
ATOM     24  C   UNL     1       0.927   9.477  19.866  0.00  0.00    +0.000 A 
ATOM     25  H   UNL     1       1.261  11.459  17.373  0.00  0.00    +0.000 HD
ENDBRANCH  14  16
ENDBRANCH   1  14
TORSDOF 4
ENDMDL
