MODEL 1
REMARK VINA RESULT:      -7.4      0.000      0.000
REMARK  Name = 
REMARK  8 active torsions:
REMARK  status: ('A' for Active; 'I' for Inactive)
REMARK    1  A    between atoms: C_1  and  O_2
REMARK    2  A    between atoms: O_2  and  C_3
REMARK    3  A    between atoms: C_3  and  C_5
REMARK    4  A    between atoms: C_11  and  C_12
REMARK    5  A    between atoms: C_12  and  C_13
REMARK    6  A    between atoms: C_13  and  C_14
REMARK    7  A    between atoms: C_14  and  N_15
REMARK    8  A    between atoms: C_24  and  O_25
REMARK                            x       y       z     vdW  Elec       q    Type
REMARK                         _______ _______ _______ _____ _____    ______ ____
ROOT
ATOM      1  C   UNL     1       2.483   7.173  19.130  0.00  0.00    +0.000 C 
ENDROOT
BRANCH   1   2
ATOM      2  N   UNL     1       2.009   5.823  19.446  0.00  0.00    +0.000 N 
ATOM      3  C   UNL     1       1.904   5.437  20.765  0.00  0.00    +0.000 A 
ATOM      4  N   UNL     1       2.748   4.454  20.998  0.00  0.00    +0.000 NA
ATOM      5  C   UNL     1       3.131   4.009  19.744  0.00  0.00    +0.000 A 
ATOM      6  C   UNL     1       2.350   4.656  18.804  0.00  0.00    +0.000 A 
ATOM      7  N   UNL     1       1.730   4.137  17.713  0.00  0.00    +0.000 N 
ATOM      8  C   UNL     1       1.659   2.751  17.547  0.00  0.00    +0.000 C 
ATOM      9  N   UNL     1       2.499   1.807  17.761  0.00  0.00    +0.000 NA
ATOM     10  C   UNL     1       3.867   2.196  18.134  0.00  0.00    +0.000 C 
ATOM     11  C   UNL     1       4.041   2.850  19.521  0.00  0.00    +0.000 C 
ATOM     12  H   UNL     1       0.869   4.596  17.427  0.00  0.00    +0.000 HD
BRANCH  11  13
ATOM     13  O   UNL     1       5.413   3.288  19.611  0.00  0.00    +0.000 OA
ATOM     14  H   UNL     1       5.646   3.656  18.740  0.00  0.00    +0.000 HD
ENDBRANCH  11  13
ENDBRANCH   1   2
BRANCH   1  15
ATOM     15  C   UNL     1       3.169   7.362  17.745  0.00  0.00    +0.000 C 
BRANCH  15  16
ATOM     16  C   UNL     1       4.719   7.359  17.768  0.00  0.00    +0.000 C 
BRANCH  16  23
ATOM     17  C   UNL     1       6.646   5.679  17.469  0.00  0.00    +0.000 A 
ATOM     18  C   UNL     1       7.280   4.657  16.739  0.00  0.00    +0.000 A 
ATOM     19  F   UNL     1       8.355   4.012  17.219  0.00  0.00    +0.000 F 
ATOM     20  C   UNL     1       6.800   4.254  15.500  0.00  0.00    +0.000 A 
ATOM     21  C   UNL     1       5.665   4.848  14.975  0.00  0.00    +0.000 A 
ATOM     22  C   UNL     1       5.013   5.859  15.697  0.00  0.00    +0.000 A 
ATOM     23  C   UNL     1       5.463   6.285  16.965  0.00  0.00    +0.000 A 
BRANCH  17  24
ATOM     24  C   UNL     1       7.241   6.070  18.774  0.00  0.00    +0.000 C 
ATOM     25  O   UNL     1       6.824   5.705  19.860  0.00  0.00    +0.000 OA
BRANCH  24  27
ATOM     26  C   UNL     1       7.956   8.157  17.904  0.00  0.00    +0.000 C 
ATOM     27  O   UNL     1       8.269   6.929  18.563  0.00  0.00    +0.000 OA
ENDBRANCH  24  27
ENDBRANCH  17  24
ENDBRANCH  16  23
ENDBRANCH  15  16
ENDBRANCH   1  15
TORSDOF 7
ENDMDL
MODEL 2
REMARK VINA RESULT:      -7.3      1.531      2.075
REMARK  Name = 
REMARK  8 active torsions:
REMARK  status: ('A' for Active; 'I' for Inactive)
REMARK    1  A    between atoms: C_1  and  O_2
REMARK    2  A    between atoms: O_2  and  C_3
REMARK    3  A    between atoms: C_3  and  C_5
REMARK    4  A    between atoms: C_11  and  C_12
REMARK    5  A    between atoms: C_12  and  C_13
REMARK    6  A    between atoms: C_13  and  C_14
REMARK    7  A    between atoms: C_14  and  N_15
REMARK    8  A    between atoms: C_24  and  O_25
REMARK                            x       y       z     vdW  Elec       q    Type
REMARK                         _______ _______ _______ _____ _____    ______ ____
ROOT
ATOM      1  C   UNL     1       2.343   6.559  18.322  0.00  0.00    +0.000 C 
ENDROOT
BRANCH   1   2
ATOM      2  N   UNL     1       2.599   5.129  18.140  0.00  0.00    +0.000 N 
ATOM      3  C   UNL     1       1.711   4.371  17.407  0.00  0.00    +0.000 A 
ATOM      4  N   UNL     1       1.158   3.472  18.193  0.00  0.00    +0.000 NA
ATOM      5  C   UNL     1       1.950   3.453  19.328  0.00  0.00    +0.000 A 
ATOM      6  C   UNL     1       3.059   4.244  19.087  0.00  0.00    +0.000 A 
ATOM      7  N   UNL     1       4.362   3.989  19.372  0.00  0.00    +0.000 N 
ATOM      8  C   UNL     1       4.745   2.710  19.787  0.00  0.00    +0.000 C 
ATOM      9  N   UNL     1       4.203   1.852  20.570  0.00  0.00    +0.000 NA
ATOM     10  C   UNL     1       3.006   2.280  21.310  0.00  0.00    +0.000 C 
ATOM     11  C   UNL     1       1.733   2.525  20.473  0.00  0.00    +0.000 C 
ATOM     12  H   UNL     1       5.048   4.402  18.746  0.00  0.00    +0.000 HD
BRANCH  11  13
ATOM     13  O   UNL     1       0.743   3.081  21.365  0.00  0.00    +0.000 OA
ATOM     14  H   UNL     1       0.898   2.680  22.239  0.00  0.00    +0.000 HD
ENDBRANCH  11  13
ENDBRANCH   1   2
BRANCH   1  15
ATOM     15  C   UNL     1       3.170   7.534  17.434  0.00  0.00    +0.000 C 
BRANCH  15  16
ATOM     16  C   UNL     1       4.708   7.441  17.605  0.00  0.00    +0.000 C 
BRANCH  16  23
ATOM     17  C   UNL     1       6.613   5.726  17.367  0.00  0.00    +0.000 A 
ATOM     18  C   UNL     1       7.264   4.708  16.646  0.00  0.00    +0.000 A 
ATOM     19  F   UNL     1       8.298   4.028  17.167  0.00  0.00    +0.000 F 
ATOM     20  C   UNL     1       6.843   4.345  15.375  0.00  0.00    +0.000 A 
ATOM     21  C   UNL     1       5.751   4.976  14.804  0.00  0.00    +0.000 A 
ATOM     22  C   UNL     1       5.082   5.984  15.516  0.00  0.00    +0.000 A 
ATOM     23  C   UNL     1       5.472   6.370  16.816  0.00  0.00    +0.000 A 
BRANCH  17  24
ATOM     24  C   UNL     1       7.145   6.073  18.711  0.00  0.00    +0.000 C 
ATOM     25  O   UNL     1       6.622   5.753  19.765  0.00  0.00    +0.000 OA
BRANCH  24  27
ATOM     26  C   UNL     1       8.067   8.173  18.106  0.00  0.00    +0.000 C 
ATOM     27  O   UNL     1       8.257   6.837  18.574  0.00  0.00    +0.000 OA
ENDBRANCH  24  27
ENDBRANCH  17  24
ENDBRANCH  16  23
ENDBRANCH  15  16
ENDBRANCH   1  15
TORSDOF 7
ENDMDL
MODEL 3
REMARK VINA RESULT:      -7.3      4.160      6.601
REMARK  Name = 
REMARK  8 active torsions:
REMARK  status: ('A' for Active; 'I' for Inactive)
REMARK    1  A    between atoms: C_1  and  O_2
REMARK    2  A    between atoms: O_2  and  C_3
REMARK    3  A    between atoms: C_3  and  C_5
REMARK    4  A    between atoms: C_11  and  C_12
REMARK    5  A    between atoms: C_12  and  C_13
REMARK    6  A    between atoms: C_13  and  C_14
REMARK    7  A    between atoms: C_14  and  N_15
REMARK    8  A    between atoms: C_24  and  O_25
REMARK                            x       y       z     vdW  Elec       q    Type
REMARK                         _______ _______ _______ _____ _____    ______ ____
ROOT
ATOM      1  C   UNL     1       2.114   8.248  17.959  0.00  0.00    +0.000 C 
ENDROOT
BRANCH   1   2
ATOM      2  N   UNL     1       1.708   9.300  18.894  0.00  0.00    +0.000 N 
ATOM      3  C   UNL     1       1.211   8.949  20.131  0.00  0.00    +0.000 A 
ATOM      4  N   UNL     1      -0.043   9.337  20.221  0.00  0.00    +0.000 NA
ATOM      5  C   UNL     1      -0.217  10.224  19.172  0.00  0.00    +0.000 A 
ATOM      6  C   UNL     1       1.018  10.452  18.595  0.00  0.00    +0.000 A 
ATOM      7  N   UNL     1       1.569  11.630  18.201  0.00  0.00    +0.000 N 
ATOM      8  C   UNL     1       0.960  12.835  18.562  0.00  0.00    +0.000 C 
ATOM      9  N   UNL     1      -0.266  13.204  18.625  0.00  0.00    +0.000 NA
ATOM     10  C   UNL     1      -1.277  12.268  18.113  0.00  0.00    +0.000 C 
ATOM     11  C   UNL     1      -1.483  10.971  18.921  0.00  0.00    +0.000 C 
ATOM     12  H   UNL     1       2.583  11.689  18.251  0.00  0.00    +0.000 HD
BRANCH  11  13
ATOM     13  O   UNL     1      -2.390  10.141  18.164  0.00  0.00    +0.000 OA
ATOM     14  H   UNL     1      -3.290  10.453  18.369  0.00  0.00    +0.000 HD
ENDBRANCH  11  13
ENDBRANCH   1   2
BRANCH   1  15
ATOM     15  C   UNL     1       2.880   7.035  18.565  0.00  0.00    +0.000 C 
BRANCH  15  16
ATOM     16  C   UNL     1       2.299   5.642  18.210  0.00  0.00    +0.000 C 
BRANCH  16  23
ATOM     17  C   UNL     1       3.472   3.714  19.448  0.00  0.00    +0.000 A 
ATOM     18  C   UNL     1       3.496   2.747  20.470  0.00  0.00    +0.000 A 
ATOM     19  F   UNL     1       4.586   2.000  20.707  0.00  0.00    +0.000 F 
ATOM     20  C   UNL     1       2.399   2.546  21.296  0.00  0.00    +0.000 A 
ATOM     21  C   UNL     1       1.263   3.321  21.133  0.00  0.00    +0.000 A 
ATOM     22  C   UNL     1       1.228   4.299  20.127  0.00  0.00    +0.000 A 
ATOM     23  C   UNL     1       2.329   4.542  19.278  0.00  0.00    +0.000 A 
BRANCH  17  24
ATOM     24  C   UNL     1       4.679   3.845  18.589  0.00  0.00    +0.000 C 
ATOM     25  O   UNL     1       4.753   3.448  17.439  0.00  0.00    +0.000 OA
BRANCH  24  27
ATOM     26  C   UNL     1       6.382   5.493  18.673  0.00  0.00    +0.000 C 
ATOM     27  O   UNL     1       5.680   4.419  19.301  0.00  0.00    +0.000 OA
ENDBRANCH  24  27
ENDBRANCH  17  24
ENDBRANCH  16  23
ENDBRANCH  15  16
ENDBRANCH   1  15
TORSDOF 7
ENDMDL
MODEL 4
REMARK VINA RESULT:      -7.2      4.548      6.592
REMARK  Name = 
REMARK  8 active torsions:
REMARK  status: ('A' for Active; 'I' for Inactive)
REMARK    1  A    between atoms: C_1  and  O_2
REMARK    2  A    between atoms: O_2  and  C_3
REMARK    3  A    between atoms: C_3  and  C_5
REMARK    4  A    between atoms: C_11  and  C_12
REMARK    5  A    between atoms: C_12  and  C_13
REMARK    6  A    between atoms: C_13  and  C_14
REMARK    7  A    between atoms: C_14  and  N_15
REMARK    8  A    between atoms: C_24  and  O_25
REMARK                            x       y       z     vdW  Elec       q    Type
REMARK                         _______ _______ _______ _____ _____    ______ ____
ROOT
ATOM      1  C   UNL     1       3.767   6.685  18.227  0.00  0.00    +0.000 C 
ENDROOT
BRANCH   1   2
ATOM      2  N   UNL     1       4.096   5.676  19.237  0.00  0.00    +0.000 N 
ATOM      3  C   UNL     1       5.310   5.025  19.171  0.00  0.00    +0.000 A 
ATOM      4  N   UNL     1       5.104   3.745  18.950  0.00  0.00    +0.000 NA
ATOM      5  C   UNL     1       3.759   3.549  19.215  0.00  0.00    +0.000 A 
ATOM      6  C   UNL     1       3.255   4.718  19.754  0.00  0.00    +0.000 A 
ATOM      7  N   UNL     1       2.430   4.876  20.821  0.00  0.00    +0.000 N 
ATOM      8  C   UNL     1       2.160   3.789  21.657  0.00  0.00    +0.000 C 
ATOM      9  N   UNL     1       1.941   2.548  21.423  0.00  0.00    +0.000 NA
ATOM     10  C   UNL     1       1.810   2.141  20.016  0.00  0.00    +0.000 C 
ATOM     11  C   UNL     1       3.089   2.219  19.158  0.00  0.00    +0.000 C 
ATOM     12  H   UNL     1       2.539   5.739  21.348  0.00  0.00    +0.000 HD
BRANCH  11  13
ATOM     13  O   UNL     1       2.702   1.932  17.797  0.00  0.00    +0.000 OA
ATOM     14  H   UNL     1       1.919   2.480  17.609  0.00  0.00    +0.000 HD
ENDBRANCH  11  13
ENDBRANCH   1   2
BRANCH   1  15
ATOM     15  C   UNL     1       2.274   7.118  18.137  0.00  0.00    +0.000 C 
BRANCH  15  16
ATOM     16  C   UNL     1       1.999   8.612  18.448  0.00  0.00    +0.000 C 
BRANCH  16  23
ATOM     17  C   UNL     1       0.415  10.110  19.815  0.00  0.00    +0.000 A 
ATOM     18  C   UNL     1      -0.296  10.386  20.998  0.00  0.00    +0.000 A 
ATOM     19  F   UNL     1      -1.158  11.412  21.077  0.00  0.00    +0.000 F 
ATOM     20  C   UNL     1      -0.157   9.587  22.124  0.00  0.00    +0.000 A 
ATOM     21  C   UNL     1       0.679   8.484  22.087  0.00  0.00    +0.000 A 
ATOM     22  C   UNL     1       1.385   8.187  20.911  0.00  0.00    +0.000 A 
ATOM     23  C   UNL     1       1.258   8.968  19.742  0.00  0.00    +0.000 A 
BRANCH  17  24
ATOM     24  C   UNL     1       0.231  11.032  18.664  0.00  0.00    +0.000 C 
ATOM     25  O   UNL     1       0.918  12.017  18.452  0.00  0.00    +0.000 OA
BRANCH  24  27
ATOM     26  C   UNL     1      -1.911  11.573  17.801  0.00  0.00    +0.000 C 
ATOM     27  O   UNL     1      -0.841  10.636  17.934  0.00  0.00    +0.000 OA
ENDBRANCH  24  27
ENDBRANCH  17  24
ENDBRANCH  16  23
ENDBRANCH  15  16
ENDBRANCH   1  15
TORSDOF 7
ENDMDL
MODEL 5
REMARK VINA RESULT:      -7.1      5.219      7.305
REMARK  Name = 
REMARK  8 active torsions:
REMARK  status: ('A' for Active; 'I' for Inactive)
REMARK    1  A    between atoms: C_1  and  O_2
REMARK    2  A    between atoms: O_2  and  C_3
REMARK    3  A    between atoms: C_3  and  C_5
REMARK    4  A    between atoms: C_11  and  C_12
REMARK    5  A    between atoms: C_12  and  C_13
REMARK    6  A    between atoms: C_13  and  C_14
REMARK    7  A    between atoms: C_14  and  N_15
REMARK    8  A    between atoms: C_24  and  O_25
REMARK                            x       y       z     vdW  Elec       q    Type
REMARK                         _______ _______ _______ _____ _____    ______ ____
ROOT
ATOM      1  C   UNL     1       3.283   8.065  17.928  0.00  0.00    +0.000 C 
ENDROOT
BRANCH   1   2
ATOM      2  N   UNL     1       3.617   6.729  17.430  0.00  0.00    +0.000 N 
ATOM      3  C   UNL     1       2.974   5.630  17.958  0.00  0.00    +0.000 A 
ATOM      4  N   UNL     1       3.851   4.870  18.578  0.00  0.00    +0.000 NA
ATOM      5  C   UNL     1       5.085   5.324  18.145  0.00  0.00    +0.000 A 
ATOM      6  C   UNL     1       4.872   6.246  17.137  0.00  0.00    +0.000 A 
ATOM      7  N   UNL     1       5.513   6.366  15.945  0.00  0.00    +0.000 N 
ATOM      8  C   UNL     1       6.380   5.357  15.518  0.00  0.00    +0.000 C 
ATOM      9  N   UNL     1       7.245   4.638  16.133  0.00  0.00    +0.000 NA
ATOM     10  C   UNL     1       7.520   4.972  17.539  0.00  0.00    +0.000 C 
ATOM     11  C   UNL     1       6.381   4.704  18.543  0.00  0.00    +0.000 C 
ATOM     12  H   UNL     1       4.963   6.741  15.176  0.00  0.00    +0.000 HD
BRANCH  11  13
ATOM     13  O   UNL     1       6.804   5.244  19.814  0.00  0.00    +0.000 OA
ATOM     14  H   UNL     1       7.347   6.027  19.617  0.00  0.00    +0.000 HD
ENDBRANCH  11  13
ENDBRANCH   1   2
BRANCH   1  15
ATOM     15  C   UNL     1       1.781   8.473  17.869  0.00  0.00    +0.000 C 
BRANCH  15  16
ATOM     16  C   UNL     1       1.337   9.516  18.927  0.00  0.00    +0.000 C 
BRANCH  16  23
ATOM     17  C   UNL     1      -0.589  10.974  19.816  0.00  0.00    +0.000 A 
ATOM     18  C   UNL     1      -1.832  11.607  19.635  0.00  0.00    +0.000 A 
ATOM     19  F   UNL     1      -2.343  12.433  20.563  0.00  0.00    +0.000 F 
ATOM     20  C   UNL     1      -2.569  11.426  18.474  0.00  0.00    +0.000 A 
ATOM     21  C   UNL     1      -2.072  10.626  17.459  0.00  0.00    +0.000 A 
ATOM     22  C   UNL     1      -0.827   9.998  17.619  0.00  0.00    +0.000 A 
ATOM     23  C   UNL     1      -0.042  10.170  18.779  0.00  0.00    +0.000 A 
BRANCH  17  24
ATOM     24  C   UNL     1       0.123  11.198  21.102  0.00  0.00    +0.000 C 
ATOM     25  O   UNL     1       0.916  12.102  21.304  0.00  0.00    +0.000 OA
BRANCH  24  27
ATOM     26  C   UNL     1      -0.995  10.600  23.107  0.00  0.00    +0.000 C 
ATOM     27  O   UNL     1      -0.207  10.217  21.978  0.00  0.00    +0.000 OA
ENDBRANCH  24  27
ENDBRANCH  17  24
ENDBRANCH  16  23
ENDBRANCH  15  16
ENDBRANCH   1  15
TORSDOF 7
ENDMDL
MODEL 6
REMARK VINA RESULT:      -7.0      3.792      5.807
REMARK  Name = 
REMARK  8 active torsions:
REMARK  status: ('A' for Active; 'I' for Inactive)
REMARK    1  A    between atoms: C_1  and  O_2
REMARK    2  A    between atoms: O_2  and  C_3
REMARK    3  A    between atoms: C_3  and  C_5
REMARK    4  A    between atoms: C_11  and  C_12
REMARK    5  A    between atoms: C_12  and  C_13
REMARK    6  A    between atoms: C_13  and  C_14
REMARK    7  A    between atoms: C_14  and  N_15
REMARK    8  A    between atoms: C_24  and  O_25
REMARK                            x       y       z     vdW  Elec       q    Type
REMARK                         _______ _______ _______ _____ _____    ______ ____
ROOT
ATOM      1  C   UNL     1       2.234   3.996  20.958  0.00  0.00    +0.000 C 
ENDROOT
BRANCH   1   2
ATOM      2  N   UNL     1       3.033   3.393  19.890  0.00  0.00    +0.000 N 
ATOM      3  C   UNL     1       3.847   2.319  20.179  0.00  0.00    +0.000 A 
ATOM      4  N   UNL     1       5.103   2.662  19.989  0.00  0.00    +0.000 NA
ATOM      5  C   UNL     1       5.045   3.839  19.261  0.00  0.00    +0.000 A 
ATOM      6  C   UNL     1       3.727   4.055  18.903  0.00  0.00    +0.000 A 
ATOM      7  N   UNL     1       3.225   4.444  17.702  0.00  0.00    +0.000 N 
ATOM      8  C   UNL     1       4.055   4.467  16.577  0.00  0.00    +0.000 C 
ATOM      9  N   UNL     1       5.274   4.824  16.405  0.00  0.00    +0.000 NA
ATOM     10  C   UNL     1       5.955   5.462  17.541  0.00  0.00    +0.000 C 
ATOM     11  C   UNL     1       6.248   4.561  18.759  0.00  0.00    +0.000 C 
ATOM     12  H   UNL     1       2.293   4.108  17.476  0.00  0.00    +0.000 HD
BRANCH  11  13
ATOM     13  O   UNL     1       6.767   5.416  19.800  0.00  0.00    +0.000 OA
ATOM     14  H   UNL     1       7.711   5.195  19.897  0.00  0.00    +0.000 HD
ENDBRANCH  11  13
ENDBRANCH   1   2
BRANCH   1  15
ATOM     15  C   UNL     1       1.397   5.254  20.577  0.00  0.00    +0.000 C 
BRANCH  15  16
ATOM     16  C   UNL     1       2.070   6.615  20.889  0.00  0.00    +0.000 C 
BRANCH  16  23
ATOM     17  C   UNL     1       1.330   9.039  20.437  0.00  0.00    +0.000 A 
ATOM     18  C   UNL     1       1.153  10.123  19.557  0.00  0.00    +0.000 A 
ATOM     19  F   UNL     1       0.772  11.332  19.999  0.00  0.00    +0.000 F 
ATOM     20  C   UNL     1       1.395   9.993  18.197  0.00  0.00    +0.000 A 
ATOM     21  C   UNL     1       1.839   8.784  17.688  0.00  0.00    +0.000 A 
ATOM     22  C   UNL     1       2.033   7.696  18.554  0.00  0.00    +0.000 A 
ATOM     23  C   UNL     1       1.812   7.795  19.944  0.00  0.00    +0.000 A 
BRANCH  17  24
ATOM     24  C   UNL     1       1.022   9.254  21.875  0.00  0.00    +0.000 C 
ATOM     25  O   UNL     1       1.861   9.407  22.745  0.00  0.00    +0.000 OA
BRANCH  24  27
ATOM     26  C   UNL     1      -0.860  10.020  23.099  0.00  0.00    +0.000 C 
ATOM     27  O   UNL     1      -0.320   9.198  22.062  0.00  0.00    +0.000 OA
ENDBRANCH  24  27
ENDBRANCH  17  24
ENDBRANCH  16  23
ENDBRANCH  15  16
ENDBRANCH   1  15
TORSDOF 7
ENDMDL
MODEL 7
REMARK VINA RESULT:      -7.0      5.468      8.373
REMARK  Name = 
REMARK  8 active torsions:
REMARK  status: ('A' for Active; 'I' for Inactive)
REMARK    1  A    between atoms: C_1  and  O_2
REMARK    2  A    between atoms: O_2  and  C_3
REMARK    3  A    between atoms: C_3  and  C_5
REMARK    4  A    between atoms: C_11  and  C_12
REMARK    5  A    between atoms: C_12  and  C_13
REMARK    6  A    between atoms: C_13  and  C_14
REMARK    7  A    between atoms: C_14  and  N_15
REMARK    8  A    between atoms: C_24  and  O_25
REMARK                            x       y       z     vdW  Elec       q    Type
REMARK                         _______ _______ _______ _____ _____    ______ ____
ROOT
ATOM      1  C   UNL     1       8.286   9.508  17.984  0.00  0.00    +0.000 C 
ENDROOT
BRANCH   1   2
ATOM      2  N   UNL     1       9.348  10.268  18.647  0.00  0.00    +0.000 N 
ATOM      3  C   UNL     1       9.320  10.411  20.018  0.00  0.00    +0.000 A 
ATOM      4  N   UNL     1       9.165  11.683  20.318  0.00  0.00    +0.000 NA
ATOM      5  C   UNL     1       9.434  12.363  19.142  0.00  0.00    +0.000 A 
ATOM      6  C   UNL     1       9.910  11.449  18.220  0.00  0.00    +0.000 A 
ATOM      7  N   UNL     1      10.964  11.567  17.372  0.00  0.00    +0.000 N 
ATOM      8  C   UNL     1      11.854  12.636  17.515  0.00  0.00    +0.000 C 
ATOM      9  N   UNL     1      11.683  13.877  17.789  0.00  0.00    +0.000 NA
ATOM     10  C   UNL     1      10.298  14.367  17.855  0.00  0.00    +0.000 C 
ATOM     11  C   UNL     1       9.442  13.849  19.029  0.00  0.00    +0.000 C 
ATOM     12  H   UNL     1      11.447  10.705  17.133  0.00  0.00    +0.000 HD
BRANCH  11  13
ATOM     13  O   UNL     1       8.096  14.324  18.811  0.00  0.00    +0.000 OA
ATOM     14  H   UNL     1       8.161  15.284  18.661  0.00  0.00    +0.000 HD
ENDBRANCH  11  13
ENDBRANCH   1   2
BRANCH   1  15
ATOM     15  C   UNL     1       8.207   7.988  18.315  0.00  0.00    +0.000 C 
BRANCH  15  16
ATOM     16  C   UNL     1       7.478   7.118  17.260  0.00  0.00    +0.000 C 
BRANCH  16  23
ATOM     17  C   UNL     1       5.520   5.497  16.852  0.00  0.00    +0.000 A 
ATOM     18  C   UNL     1       4.639   4.499  17.307  0.00  0.00    +0.000 A 
ATOM     19  F   UNL     1       3.784   3.883  16.475  0.00  0.00    +0.000 F 
ATOM     20  C   UNL     1       4.640   4.089  18.632  0.00  0.00    +0.000 A 
ATOM     21  C   UNL     1       5.534   4.651  19.527  0.00  0.00    +0.000 A 
ATOM     22  C   UNL     1       6.429   5.639  19.087  0.00  0.00    +0.000 A 
ATOM     23  C   UNL     1       6.467   6.071  17.744  0.00  0.00    +0.000 A 
BRANCH  17  24
ATOM     24  C   UNL     1       5.435   5.899  15.423  0.00  0.00    +0.000 C 
ATOM     25  O   UNL     1       5.010   6.973  15.033  0.00  0.00    +0.000 OA
BRANCH  24  27
ATOM     26  C   UNL     1       7.192   4.930  14.160  0.00  0.00    +0.000 C 
ATOM     27  O   UNL     1       5.847   4.873  14.639  0.00  0.00    +0.000 OA
ENDBRANCH  24  27
ENDBRANCH  17  24
ENDBRANCH  16  23
ENDBRANCH  15  16
ENDBRANCH   1  15
TORSDOF 7
ENDMDL
MODEL 8
REMARK VINA RESULT:      -7.0      4.235      6.327
REMARK  Name = 
REMARK  8 active torsions:
REMARK  status: ('A' for Active; 'I' for Inactive)
REMARK    1  A    between atoms: C_1  and  O_2
REMARK    2  A    between atoms: O_2  and  C_3
REMARK    3  A    between atoms: C_3  and  C_5
REMARK    4  A    between atoms: C_11  and  C_12
REMARK    5  A    between atoms: C_12  and  C_13
REMARK    6  A    between atoms: C_13  and  C_14
REMARK    7  A    between atoms: C_14  and  N_15
REMARK    8  A    between atoms: C_24  and  O_25
REMARK                            x       y       z     vdW  Elec       q    Type
REMARK                         _______ _______ _______ _____ _____    ______ ____
ROOT
ATOM      1  C   UNL     1       1.985   8.458  17.954  0.00  0.00    +0.000 C 
ENDROOT
BRANCH   1   2
ATOM      2  N   UNL     1       1.582   9.506  18.894  0.00  0.00    +0.000 N 
ATOM      3  C   UNL     1       1.092   9.151  20.132  0.00  0.00    +0.000 A 
ATOM      4  N   UNL     1      -0.163   9.536  20.229  0.00  0.00    +0.000 NA
ATOM      5  C   UNL     1      -0.344  10.426  19.183  0.00  0.00    +0.000 A 
ATOM      6  C   UNL     1       0.888  10.657  18.601  0.00  0.00    +0.000 A 
ATOM      7  N   UNL     1       1.434  11.838  18.208  0.00  0.00    +0.000 N 
ATOM      8  C   UNL     1       0.825  13.041  18.575  0.00  0.00    +0.000 C 
ATOM      9  N   UNL     1      -0.401  13.407  18.645  0.00  0.00    +0.000 NA
ATOM     10  C   UNL     1      -1.413  12.470  18.134  0.00  0.00    +0.000 C 
ATOM     11  C   UNL     1      -1.612  11.170  18.941  0.00  0.00    +0.000 C 
ATOM     12  H   UNL     1       2.448  11.899  18.253  0.00  0.00    +0.000 HD
BRANCH  11  13
ATOM     13  O   UNL     1      -2.522  10.341  18.185  0.00  0.00    +0.000 OA
ATOM     14  H   UNL     1      -3.110   9.912  18.832  0.00  0.00    +0.000 HD
ENDBRANCH  11  13
ENDBRANCH   1   2
BRANCH   1  15
ATOM     15  C   UNL     1       2.996   7.399  18.484  0.00  0.00    +0.000 C 
BRANCH  15  16
ATOM     16  C   UNL     1       3.297   6.227  17.514  0.00  0.00    +0.000 C 
BRANCH  16  23
ATOM     17  C   UNL     1       4.093   4.043  18.620  0.00  0.00    +0.000 A 
ATOM     18  C   UNL     1       3.833   2.748  19.105  0.00  0.00    +0.000 A 
ATOM     19  F   UNL     1       4.767   2.042  19.762  0.00  0.00    +0.000 F 
ATOM     20  C   UNL     1       2.586   2.159  18.950  0.00  0.00    +0.000 A 
ATOM     21  C   UNL     1       1.567   2.857  18.325  0.00  0.00    +0.000 A 
ATOM     22  C   UNL     1       1.806   4.155  17.847  0.00  0.00    +0.000 A 
ATOM     23  C   UNL     1       3.056   4.792  18.000  0.00  0.00    +0.000 A 
BRANCH  17  24
ATOM     24  C   UNL     1       5.464   4.590  18.801  0.00  0.00    +0.000 C 
ATOM     25  O   UNL     1       5.797   5.329  19.712  0.00  0.00    +0.000 OA
BRANCH  24  27
ATOM     26  C   UNL     1       6.832   5.206  16.965  0.00  0.00    +0.000 C 
ATOM     27  O   UNL     1       6.253   4.183  17.776  0.00  0.00    +0.000 OA
ENDBRANCH  24  27
ENDBRANCH  17  24
ENDBRANCH  16  23
ENDBRANCH  15  16
ENDBRANCH   1  15
TORSDOF 7
ENDMDL
MODEL 9
REMARK VINA RESULT:      -6.9      4.167      6.531
REMARK  Name = 
REMARK  8 active torsions:
REMARK  status: ('A' for Active; 'I' for Inactive)
REMARK    1  A    between atoms: C_1  and  O_2
REMARK    2  A    between atoms: O_2  and  C_3
REMARK    3  A    between atoms: C_3  and  C_5
REMARK    4  A    between atoms: C_11  and  C_12
REMARK    5  A    between atoms: C_12  and  C_13
REMARK    6  A    between atoms: C_13  and  C_14
REMARK    7  A    between atoms: C_14  and  N_15
REMARK    8  A    between atoms: C_24  and  O_25
REMARK                            x       y       z     vdW  Elec       q    Type
REMARK                         _______ _______ _______ _____ _____    ______ ____
ROOT
ATOM      1  C   UNL     1       1.665   7.938  18.123  0.00  0.00    +0.000 C 
ENDROOT
BRANCH   1   2
ATOM      2  N   UNL     1       1.591   9.103  19.007  0.00  0.00    +0.000 N 
ATOM      3  C   UNL     1       1.137   8.942  20.299  0.00  0.00    +0.000 A 
ATOM      4  N   UNL     1       0.016   9.614  20.451  0.00  0.00    +0.000 NA
ATOM      5  C   UNL     1      -0.045  10.460  19.357  0.00  0.00    +0.000 A 
ATOM      6  C   UNL     1       1.156  10.365  18.677  0.00  0.00    +0.000 A 
ATOM      7  N   UNL     1       1.922  11.361  18.161  0.00  0.00    +0.000 N 
ATOM      8  C   UNL     1       1.635  12.693  18.478  0.00  0.00    +0.000 C 
ATOM      9  N   UNL     1       0.534  13.337  18.603  0.00  0.00    +0.000 NA
ATOM     10  C   UNL     1      -0.703  12.634  18.233  0.00  0.00    +0.000 C 
ATOM     11  C   UNL     1      -1.126  11.464  19.146  0.00  0.00    +0.000 C 
ATOM     12  H   UNL     1       2.923  11.188  18.133  0.00  0.00    +0.000 HD
BRANCH  11  13
ATOM     13  O   UNL     1      -2.260  10.828  18.518  0.00  0.00    +0.000 OA
ATOM     14  H   UNL     1      -3.023  10.978  19.103  0.00  0.00    +0.000 HD
ENDBRANCH  11  13
ENDBRANCH   1   2
BRANCH   1  15
ATOM     15  C   UNL     1       3.010   7.153  18.118  0.00  0.00    +0.000 C 
BRANCH  15  16
ATOM     16  C   UNL     1       3.204   6.165  19.297  0.00  0.00    +0.000 C 
BRANCH  16  23
ATOM     17  C   UNL     1       3.415   3.707  18.563  0.00  0.00    +0.000 A 
ATOM     18  C   UNL     1       2.903   2.397  18.500  0.00  0.00    +0.000 A 
ATOM     19  F   UNL     1       3.630   1.381  18.010  0.00  0.00    +0.000 F 
ATOM     20  C   UNL     1       1.633   2.098  18.973  0.00  0.00    +0.000 A 
ATOM     21  C   UNL     1       0.855   3.095  19.536  0.00  0.00    +0.000 A 
ATOM     22  C   UNL     1       1.356   4.403  19.618  0.00  0.00    +0.000 A 
ATOM     23  C   UNL     1       2.647   4.743  19.163  0.00  0.00    +0.000 A 
BRANCH  17  24
ATOM     24  C   UNL     1       4.773   3.948  18.009  0.00  0.00    +0.000 C 
ATOM     25  O   UNL     1       5.793   3.992  18.676  0.00  0.00    +0.000 OA
BRANCH  24  27
ATOM     26  C   UNL     1       5.870   3.941  15.906  0.00  0.00    +0.000 C 
ATOM     27  O   UNL     1       4.685   4.162  16.673  0.00  0.00    +0.000 OA
ENDBRANCH  24  27
ENDBRANCH  17  24
ENDBRANCH  16  23
ENDBRANCH  15  16
ENDBRANCH   1  15
TORSDOF 7
ENDMDL
