MODEL 1
REMARK VINA RESULT:      -6.4      0.000      0.000
REMARK  Name = 
REMARK  12 active torsions:
REMARK  status: ('A' for Active; 'I' for Inactive)
REMARK    1  A    between atoms: C_1  and  O_2
REMARK    2  A    between atoms: O_2  and  C_3
REMARK    3  A    between atoms: C_3  and  C_5
REMARK    4  A    between atoms: C_6  and  C_7
REMARK    5  A    between atoms: N_9  and  C_10
REMARK    6  A    between atoms: C_10  and  C_11
REMARK    7  A    between atoms: C_11  and  N_12
REMARK    8  A    between atoms: C_11  and  C_13
REMARK    9  A    between atoms: C_13  and  O_15
REMARK   10  A    between atoms: O_15  and  C_16
REMARK   11  A    between atoms: C_16  and  C_17
REMARK   12  A    between atoms: C_17  and  C_18
REMARK                            x       y       z     vdW  Elec       q    Type
REMARK                         _______ _______ _______ _____ _____    ______ ____
ROOT
ATOM      1  C   UNL     1       7.718   4.580  17.734  0.00  0.00    +0.000 C 
ENDROOT
BRANCH   1   4
ATOM      2  C   UNL     1       6.937   4.576  15.365  0.00  0.00    +0.000 C 
ATOM      3  O   UNL     1       7.756   5.436  15.047  0.00  0.00    +0.000 OA
ATOM      4  N   UNL     1       6.861   4.106  16.634  0.00  0.00    +0.000 N 
ATOM      5  H   UNL     1       6.150   3.394  16.832  0.00  0.00    +0.000 HD
BRANCH   2   7
ATOM      6  C   UNL     1       6.368   3.701  13.088  0.00  0.00    +0.000 C 
ATOM      7  C   UNL     1       5.998   4.014  14.339  0.00  0.00    +0.000 C 
BRANCH   6   8
ATOM      8  C   UNL     1       5.408   3.130  12.101  0.00  0.00    +0.000 C 
ATOM      9  O   UNL     1       4.259   3.567  12.073  0.00  0.00    +0.000 OA
BRANCH   8  11
ATOM     10  C   UNL     1       7.032   1.525  11.304  0.00  0.00    +0.000 C 
ATOM     11  O   UNL     1       5.798   2.147  11.248  0.00  0.00    +0.000 OA
ENDBRANCH   8  11
ENDBRANCH   6   8
ENDBRANCH   2   7
ENDBRANCH   1   4
BRANCH   1  12
ATOM     12  C   UNL     1       6.953   5.429  18.794  0.00  0.00    +0.000 C 
BRANCH  12  13
ATOM     13  N   UNL     1       7.786   5.536  20.001  0.00  0.00    +0.000 NA
ATOM     14  H   UNL     1       7.206   5.845  20.814  0.00  0.00    +0.000 HD
ATOM     15  H   UNL     1       8.547   6.237  19.863  0.00  0.00    +0.000 HD
ENDBRANCH  12  13
BRANCH  12  16
ATOM     16  C   UNL     1       5.580   4.891  19.153  0.00  0.00    +0.000 C 
ATOM     17  O   UNL     1       5.375   3.680  19.150  0.00  0.00    +0.000 OA
BRANCH  16  18
ATOM     18  O   UNL     1       4.600   5.762  19.529  0.00  0.00    +0.000 OA
BRANCH  18  19
ATOM     19  C   UNL     1       3.240   5.499  19.497  0.00  0.00    +0.000 C 
BRANCH  19  20
ATOM     20  C   UNL     1       2.435   6.779  19.469  0.00  0.00    +0.000 C 
ATOM     21  C   UNL     1       2.471   7.755  18.321  0.00  0.00    +0.000 C 
ATOM     22  O   UNL     1       1.727   7.043  20.427  0.00  0.00    +0.000 OA
ENDBRANCH  19  20
ENDBRANCH  18  19
ENDBRANCH  16  18
ENDBRANCH  12  16
ENDBRANCH   1  12
TORSDOF 10
ENDMDL
MODEL 2
REMARK VINA RESULT:      -6.3      1.948      2.129
REMARK  Name = 
REMARK  12 active torsions:
REMARK  status: ('A' for Active; 'I' for Inactive)
REMARK    1  A    between atoms: C_1  and  O_2
REMARK    2  A    between atoms: O_2  and  C_3
REMARK    3  A    between atoms: C_3  and  C_5
REMARK    4  A    between atoms: C_6  and  C_7
REMARK    5  A    between atoms: N_9  and  C_10
REMARK    6  A    between atoms: C_10  and  C_11
REMARK    7  A    between atoms: C_11  and  N_12
REMARK    8  A    between atoms: C_11  and  C_13
REMARK    9  A    between atoms: C_13  and  O_15
REMARK   10  A    between atoms: O_15  and  C_16
REMARK   11  A    between atoms: C_16  and  C_17
REMARK   12  A    between atoms: C_17  and  C_18
REMARK                            x       y       z     vdW  Elec       q    Type
REMARK                         _______ _______ _______ _____ _____    ______ ____
ROOT
ATOM      1  C   UNL     1       6.814   5.893  16.672  0.00  0.00    +0.000 C 
ENDROOT
BRANCH   1   4
ATOM      2  C   UNL     1       6.753   4.684  14.491  0.00  0.00    +0.000 C 
ATOM      3  O   UNL     1       7.704   5.330  14.056  0.00  0.00    +0.000 OA
ATOM      4  N   UNL     1       6.271   4.888  15.741  0.00  0.00    +0.000 N 
ATOM      5  H   UNL     1       5.470   4.319  16.038  0.00  0.00    +0.000 HD
BRANCH   2   7
ATOM      6  C   UNL     1       5.609   3.872  12.416  0.00  0.00    +0.000 C 
ATOM      7  C   UNL     1       6.103   3.633  13.639  0.00  0.00    +0.000 C 
BRANCH   6   8
ATOM      8  C   UNL     1       4.983   2.799  11.594  0.00  0.00    +0.000 C 
ATOM      9  O   UNL     1       3.880   3.006  11.091  0.00  0.00    +0.000 OA
BRANCH   8  11
ATOM     10  C   UNL     1       6.914   1.506  10.924  0.00  0.00    +0.000 C 
ATOM     11  O   UNL     1       5.620   1.614  11.403  0.00  0.00    +0.000 OA
ENDBRANCH   8  11
ENDBRANCH   6   8
ENDBRANCH   2   7
ENDBRANCH   1   4
BRANCH   1  12
ATOM     12  C   UNL     1       7.436   5.271  17.959  0.00  0.00    +0.000 C 
BRANCH  12  13
ATOM     13  N   UNL     1       8.262   4.118  17.573  0.00  0.00    +0.000 NA
ATOM     14  H   UNL     1       8.608   4.233  16.593  0.00  0.00    +0.000 HD
ATOM     15  H   UNL     1       7.707   3.235  17.616  0.00  0.00    +0.000 HD
ENDBRANCH  12  13
BRANCH  12  16
ATOM     16  C   UNL     1       6.419   4.857  19.008  0.00  0.00    +0.000 C 
ATOM     17  O   UNL     1       6.438   5.378  20.120  0.00  0.00    +0.000 OA
BRANCH  16  18
ATOM     18  O   UNL     1       5.460   3.945  18.681  0.00  0.00    +0.000 OA
BRANCH  18  19
ATOM     19  C   UNL     1       4.120   4.037  19.021  0.00  0.00    +0.000 C 
BRANCH  19  20
ATOM     20  C   UNL     1       3.242   4.045  17.790  0.00  0.00    +0.000 C 
ATOM     21  C   UNL     1       1.750   4.251  17.838  0.00  0.00    +0.000 C 
ATOM     22  O   UNL     1       3.763   3.867  16.701  0.00  0.00    +0.000 OA
ENDBRANCH  19  20
ENDBRANCH  18  19
ENDBRANCH  16  18
ENDBRANCH  12  16
ENDBRANCH   1  12
TORSDOF 10
ENDMDL
MODEL 3
REMARK VINA RESULT:      -6.2      1.790      2.358
REMARK  Name = 
REMARK  12 active torsions:
REMARK  status: ('A' for Active; 'I' for Inactive)
REMARK    1  A    between atoms: C_1  and  O_2
REMARK    2  A    between atoms: O_2  and  C_3
REMARK    3  A    between atoms: C_3  and  C_5
REMARK    4  A    between atoms: C_6  and  C_7
REMARK    5  A    between atoms: N_9  and  C_10
REMARK    6  A    between atoms: C_10  and  C_11
REMARK    7  A    between atoms: C_11  and  N_12
REMARK    8  A    between atoms: C_11  and  C_13
REMARK    9  A    between atoms: C_13  and  O_15
REMARK   10  A    between atoms: O_15  and  C_16
REMARK   11  A    between atoms: C_16  and  C_17
REMARK   12  A    between atoms: C_17  and  C_18
REMARK                            x       y       z     vdW  Elec       q    Type
REMARK                         _______ _______ _______ _____ _____    ______ ____
ROOT
ATOM      1  C   UNL     1       5.776   5.844  16.878  0.00  0.00    +0.000 C 
ENDROOT
BRANCH   1   4
ATOM      2  C   UNL     1       6.579   4.732  14.794  0.00  0.00    +0.000 C 
ATOM      3  O   UNL     1       7.700   5.220  14.913  0.00  0.00    +0.000 OA
ATOM      4  N   UNL     1       5.600   4.977  15.701  0.00  0.00    +0.000 N 
ATOM      5  H   UNL     1       4.685   4.544  15.537  0.00  0.00    +0.000 HD
BRANCH   2   7
ATOM      6  C   UNL     1       5.100   3.860  12.970  0.00  0.00    +0.000 C 
ATOM      7  C   UNL     1       6.266   3.835  13.633  0.00  0.00    +0.000 C 
BRANCH   6   8
ATOM      8  C   UNL     1       4.832   2.963  11.811  0.00  0.00    +0.000 C 
ATOM      9  O   UNL     1       5.717   2.192  11.443  0.00  0.00    +0.000 OA
BRANCH   8  11
ATOM     10  C   UNL     1       3.377   3.757  10.050  0.00  0.00    +0.000 C 
ATOM     11  O   UNL     1       3.631   2.994  11.176  0.00  0.00    +0.000 OA
ENDBRANCH   8  11
ENDBRANCH   6   8
ENDBRANCH   2   7
ENDBRANCH   1   4
BRANCH   1  12
ATOM     12  C   UNL     1       6.025   5.053  18.198  0.00  0.00    +0.000 C 
BRANCH  12  13
ATOM     13  N   UNL     1       7.320   4.363  18.095  0.00  0.00    +0.000 NA
ATOM     14  H   UNL     1       7.919   4.822  17.372  0.00  0.00    +0.000 HD
ATOM     15  H   UNL     1       7.185   3.366  17.815  0.00  0.00    +0.000 HD
ENDBRANCH  12  13
BRANCH  12  16
ATOM     16  C   UNL     1       4.931   4.061  18.549  0.00  0.00    +0.000 C 
ATOM     17  O   UNL     1       5.079   3.295  19.497  0.00  0.00    +0.000 OA
BRANCH  16  18
ATOM     18  O   UNL     1       3.769   4.072  17.836  0.00  0.00    +0.000 OA
BRANCH  18  19
ATOM     19  C   UNL     1       2.609   4.732  18.206  0.00  0.00    +0.000 C 
BRANCH  19  20
ATOM     20  C   UNL     1       1.743   3.864  19.091  0.00  0.00    +0.000 C 
ATOM     21  C   UNL     1       1.103   2.583  18.624  0.00  0.00    +0.000 C 
ATOM     22  O   UNL     1       1.543   4.221  20.241  0.00  0.00    +0.000 OA
ENDBRANCH  19  20
ENDBRANCH  18  19
ENDBRANCH  16  18
ENDBRANCH  12  16
ENDBRANCH   1  12
TORSDOF 10
ENDMDL
MODEL 4
REMARK VINA RESULT:      -6.2      2.783      3.753
REMARK  Name = 
REMARK  12 active torsions:
REMARK  status: ('A' for Active; 'I' for Inactive)
REMARK    1  A    between atoms: C_1  and  O_2
REMARK    2  A    between atoms: O_2  and  C_3
REMARK    3  A    between atoms: C_3  and  C_5
REMARK    4  A    between atoms: C_6  and  C_7
REMARK    5  A    between atoms: N_9  and  C_10
REMARK    6  A    between atoms: C_10  and  C_11
REMARK    7  A    between atoms: C_11  and  N_12
REMARK    8  A    between atoms: C_11  and  C_13
REMARK    9  A    between atoms: C_13  and  O_15
REMARK   10  A    between atoms: O_15  and  C_16
REMARK   11  A    between atoms: C_16  and  C_17
REMARK   12  A    between atoms: C_17  and  C_18
REMARK                            x       y       z     vdW  Elec       q    Type
REMARK                         _______ _______ _______ _____ _____    ______ ____
ROOT
ATOM      1  C   UNL     1       4.586   3.295  18.954  0.00  0.00    +0.000 C 
ENDROOT
BRANCH   1   4
ATOM      2  C   UNL     1       4.880   4.799  16.987  0.00  0.00    +0.000 C 
ATOM      3  O   UNL     1       4.104   5.631  17.450  0.00  0.00    +0.000 OA
ATOM      4  N   UNL     1       5.171   3.653  17.651  0.00  0.00    +0.000 N 
ATOM      5  H   UNL     1       5.821   2.998  17.203  0.00  0.00    +0.000 HD
BRANCH   2   7
ATOM      6  C   UNL     1       6.148   4.078  14.949  0.00  0.00    +0.000 C 
ATOM      7  C   UNL     1       5.540   5.039  15.660  0.00  0.00    +0.000 C 
BRANCH   6   8
ATOM      8  C   UNL     1       6.779   4.353  13.628  0.00  0.00    +0.000 C 
ATOM      9  O   UNL     1       7.516   5.331  13.518  0.00  0.00    +0.000 OA
BRANCH   8  11
ATOM     10  C   UNL     1       5.282   3.255  12.079  0.00  0.00    +0.000 C 
ATOM     11  O   UNL     1       6.545   3.537  12.567  0.00  0.00    +0.000 OA
ENDBRANCH   8  11
ENDBRANCH   6   8
ENDBRANCH   2   7
ENDBRANCH   1   4
BRANCH   1  12
ATOM     12  C   UNL     1       3.550   2.132  18.869  0.00  0.00    +0.000 C 
BRANCH  12  13
ATOM     13  N   UNL     1       4.166   1.007  18.150  0.00  0.00    +0.000 NA
ATOM     14  H   UNL     1       3.496   0.615  17.449  0.00  0.00    +0.000 HD
ATOM     15  H   UNL     1       4.423   0.241  18.812  0.00  0.00    +0.000 HD
ENDBRANCH  12  13
BRANCH  12  16
ATOM     16  C   UNL     1       2.235   2.513  18.215  0.00  0.00    +0.000 C 
ATOM     17  O   UNL     1       2.182   2.691  17.001  0.00  0.00    +0.000 OA
BRANCH  16  18
ATOM     18  O   UNL     1       1.110   2.599  18.981  0.00  0.00    +0.000 OA
BRANCH  18  19
ATOM     19  C   UNL     1       0.769   3.677  19.783  0.00  0.00    +0.000 C 
BRANCH  19  20
ATOM     20  C   UNL     1       1.596   3.703  21.048  0.00  0.00    +0.000 C 
ATOM     21  C   UNL     1       1.687   2.541  22.002  0.00  0.00    +0.000 C 
ATOM     22  O   UNL     1       2.214   4.719  21.319  0.00  0.00    +0.000 OA
ENDBRANCH  19  20
ENDBRANCH  18  19
ENDBRANCH  16  18
ENDBRANCH  12  16
ENDBRANCH   1  12
TORSDOF 10
ENDMDL
MODEL 5
REMARK VINA RESULT:      -6.2      2.643      3.005
REMARK  Name = 
REMARK  12 active torsions:
REMARK  status: ('A' for Active; 'I' for Inactive)
REMARK    1  A    between atoms: C_1  and  O_2
REMARK    2  A    between atoms: O_2  and  C_3
REMARK    3  A    between atoms: C_3  and  C_5
REMARK    4  A    between atoms: C_6  and  C_7
REMARK    5  A    between atoms: N_9  and  C_10
REMARK    6  A    between atoms: C_10  and  C_11
REMARK    7  A    between atoms: C_11  and  N_12
REMARK    8  A    between atoms: C_11  and  C_13
REMARK    9  A    between atoms: C_13  and  O_15
REMARK   10  A    between atoms: O_15  and  C_16
REMARK   11  A    between atoms: C_16  and  C_17
REMARK   12  A    between atoms: C_17  and  C_18
REMARK                            x       y       z     vdW  Elec       q    Type
REMARK                         _______ _______ _______ _____ _____    ______ ____
ROOT
ATOM      1  C   UNL     1       5.253   3.962  18.589  0.00  0.00    +0.000 C 
ENDROOT
BRANCH   1   4
ATOM      2  C   UNL     1       5.709   4.614  16.225  0.00  0.00    +0.000 C 
ATOM      3  O   UNL     1       6.223   5.676  16.570  0.00  0.00    +0.000 OA
ATOM      4  N   UNL     1       5.226   3.732  17.134  0.00  0.00    +0.000 N 
ATOM      5  H   UNL     1       4.803   2.869  16.777  0.00  0.00    +0.000 HD
BRANCH   2   7
ATOM      6  C   UNL     1       6.667   4.238  13.941  0.00  0.00    +0.000 C 
ATOM      7  C   UNL     1       5.612   4.262  14.769  0.00  0.00    +0.000 C 
BRANCH   6   8
ATOM      8  C   UNL     1       6.533   3.869  12.504  0.00  0.00    +0.000 C 
ATOM      9  O   UNL     1       7.366   4.292  11.705  0.00  0.00    +0.000 OA
BRANCH   8  11
ATOM     10  C   UNL     1       5.692   1.865  11.443  0.00  0.00    +0.000 C 
ATOM     11  O   UNL     1       5.511   3.076  12.086  0.00  0.00    +0.000 OA
ENDBRANCH   8  11
ENDBRANCH   6   8
ENDBRANCH   2   7
ENDBRANCH   1   4
BRANCH   1  12
ATOM     12  C   UNL     1       4.297   3.020  19.382  0.00  0.00    +0.000 C 
BRANCH  12  13
ATOM     13  N   UNL     1       5.109   2.067  20.154  0.00  0.00    +0.000 NA
ATOM     14  H   UNL     1       5.522   1.347  19.519  0.00  0.00    +0.000 HD
ATOM     15  H   UNL     1       4.524   1.574  20.864  0.00  0.00    +0.000 HD
ENDBRANCH  12  13
BRANCH  12  16
ATOM     16  C   UNL     1       3.296   2.273  18.519  0.00  0.00    +0.000 C 
ATOM     17  O   UNL     1       3.612   1.208  17.995  0.00  0.00    +0.000 OA
BRANCH  16  18
ATOM     18  O   UNL     1       2.034   2.770  18.380  0.00  0.00    +0.000 OA
BRANCH  18  19
ATOM     19  C   UNL     1       0.984   2.542  19.255  0.00  0.00    +0.000 C 
BRANCH  19  20
ATOM     20  C   UNL     1       1.169   3.306  20.546  0.00  0.00    +0.000 C 
ATOM     21  C   UNL     1       1.304   4.805  20.610  0.00  0.00    +0.000 C 
ATOM     22  O   UNL     1       1.223   2.679  21.591  0.00  0.00    +0.000 OA
ENDBRANCH  19  20
ENDBRANCH  18  19
ENDBRANCH  16  18
ENDBRANCH  12  16
ENDBRANCH   1  12
TORSDOF 10
ENDMDL
MODEL 6
REMARK VINA RESULT:      -6.2      1.991      2.849
REMARK  Name = 
REMARK  12 active torsions:
REMARK  status: ('A' for Active; 'I' for Inactive)
REMARK    1  A    between atoms: C_1  and  O_2
REMARK    2  A    between atoms: O_2  and  C_3
REMARK    3  A    between atoms: C_3  and  C_5
REMARK    4  A    between atoms: C_6  and  C_7
REMARK    5  A    between atoms: N_9  and  C_10
REMARK    6  A    between atoms: C_10  and  C_11
REMARK    7  A    between atoms: C_11  and  N_12
REMARK    8  A    between atoms: C_11  and  C_13
REMARK    9  A    between atoms: C_13  and  O_15
REMARK   10  A    between atoms: O_15  and  C_16
REMARK   11  A    between atoms: C_16  and  C_17
REMARK   12  A    between atoms: C_17  and  C_18
REMARK                            x       y       z     vdW  Elec       q    Type
REMARK                         _______ _______ _______ _____ _____    ______ ____
ROOT
ATOM      1  C   UNL     1       5.220   6.417  16.791  0.00  0.00    +0.000 C 
ENDROOT
BRANCH   1   4
ATOM      2  C   UNL     1       6.430   4.824  15.302  0.00  0.00    +0.000 C 
ATOM      3  O   UNL     1       7.465   4.926  15.958  0.00  0.00    +0.000 OA
ATOM      4  N   UNL     1       5.306   5.501  15.641  0.00  0.00    +0.000 N 
ATOM      5  H   UNL     1       4.480   5.375  15.046  0.00  0.00    +0.000 HD
BRANCH   2   7
ATOM      6  C   UNL     1       5.393   3.944  13.198  0.00  0.00    +0.000 C 
ATOM      7  C   UNL     1       6.386   3.927  14.099  0.00  0.00    +0.000 C 
BRANCH   6   8
ATOM      8  C   UNL     1       5.392   3.048  12.008  0.00  0.00    +0.000 C 
ATOM      9  O   UNL     1       4.361   2.947  11.344  0.00  0.00    +0.000 OA
BRANCH   8  11
ATOM     10  C   UNL     1       6.487   1.149  10.987  0.00  0.00    +0.000 C 
ATOM     11  O   UNL     1       6.509   2.356  11.662  0.00  0.00    +0.000 OA
ENDBRANCH   8  11
ENDBRANCH   6   8
ENDBRANCH   2   7
ENDBRANCH   1   4
BRANCH   1  12
ATOM     12  C   UNL     1       4.662   5.741  18.081  0.00  0.00    +0.000 C 
BRANCH  12  13
ATOM     13  N   UNL     1       5.759   5.021  18.746  0.00  0.00    +0.000 NA
ATOM     14  H   UNL     1       6.682   5.379  18.412  0.00  0.00    +0.000 HD
ATOM     15  H   UNL     1       5.713   4.000  18.531  0.00  0.00    +0.000 HD
ENDBRANCH  12  13
BRANCH  12  16
ATOM     16  C   UNL     1       3.493   4.804  17.840  0.00  0.00    +0.000 C 
ATOM     17  O   UNL     1       2.343   5.236  17.876  0.00  0.00    +0.000 OA
BRANCH  16  18
ATOM     18  O   UNL     1       3.737   3.499  17.533  0.00  0.00    +0.000 OA
BRANCH  18  19
ATOM     19  C   UNL     1       3.303   2.408  18.269  0.00  0.00    +0.000 C 
BRANCH  19  20
ATOM     20  C   UNL     1       3.691   2.540  19.724  0.00  0.00    +0.000 C 
ATOM     21  C   UNL     1       2.712   2.895  20.813  0.00  0.00    +0.000 C 
ATOM     22  O   UNL     1       4.856   2.359  20.035  0.00  0.00    +0.000 OA
ENDBRANCH  19  20
ENDBRANCH  18  19
ENDBRANCH  16  18
ENDBRANCH  12  16
ENDBRANCH   1  12
TORSDOF 10
ENDMDL
MODEL 7
REMARK VINA RESULT:      -6.2      2.447      6.573
REMARK  Name = 
REMARK  12 active torsions:
REMARK  status: ('A' for Active; 'I' for Inactive)
REMARK    1  A    between atoms: C_1  and  O_2
REMARK    2  A    between atoms: O_2  and  C_3
REMARK    3  A    between atoms: C_3  and  C_5
REMARK    4  A    between atoms: C_6  and  C_7
REMARK    5  A    between atoms: N_9  and  C_10
REMARK    6  A    between atoms: C_10  and  C_11
REMARK    7  A    between atoms: C_11  and  N_12
REMARK    8  A    between atoms: C_11  and  C_13
REMARK    9  A    between atoms: C_13  and  O_15
REMARK   10  A    between atoms: O_15  and  C_16
REMARK   11  A    between atoms: C_16  and  C_17
REMARK   12  A    between atoms: C_17  and  C_18
REMARK                            x       y       z     vdW  Elec       q    Type
REMARK                         _______ _______ _______ _____ _____    ______ ____
ROOT
ATOM      1  C   UNL     1       5.564   6.929  17.547  0.00  0.00    +0.000 C 
ENDROOT
BRANCH   1   4
ATOM      2  C   UNL     1       3.408   6.081  18.471  0.00  0.00    +0.000 C 
ATOM      3  O   UNL     1       2.857   7.167  18.301  0.00  0.00    +0.000 OA
ATOM      4  N   UNL     1       4.705   5.883  18.126  0.00  0.00    +0.000 N 
ATOM      5  H   UNL     1       5.104   4.955  18.302  0.00  0.00    +0.000 HD
BRANCH   2   7
ATOM      6  C   UNL     1       2.995   4.318  20.201  0.00  0.00    +0.000 C 
ATOM      7  C   UNL     1       2.645   4.932  19.061  0.00  0.00    +0.000 C 
BRANCH   6   8
ATOM      8  C   UNL     1       2.202   3.189  20.764  0.00  0.00    +0.000 C 
ATOM      9  O   UNL     1       1.965   3.177  21.970  0.00  0.00    +0.000 OA
BRANCH   8  11
ATOM     10  C   UNL     1       0.677   2.331  19.095  0.00  0.00    +0.000 C 
ATOM     11  O   UNL     1       1.748   2.193  19.958  0.00  0.00    +0.000 OA
ENDBRANCH   8  11
ENDBRANCH   6   8
ENDBRANCH   2   7
ENDBRANCH   1   4
BRANCH   1  12
ATOM     12  C   UNL     1       7.086   6.680  17.779  0.00  0.00    +0.000 C 
BRANCH  12  13
ATOM     13  N   UNL     1       7.843   7.389  16.737  0.00  0.00    +0.000 NA
ATOM     14  H   UNL     1       8.252   8.270  17.123  0.00  0.00    +0.000 HD
ATOM     15  H   UNL     1       7.220   7.647  15.939  0.00  0.00    +0.000 HD
ENDBRANCH  12  13
BRANCH  12  16
ATOM     16  C   UNL     1       7.482   5.215  17.807  0.00  0.00    +0.000 C 
ATOM     17  O   UNL     1       7.508   4.606  18.874  0.00  0.00    +0.000 OA
BRANCH  16  18
ATOM     18  O   UNL     1       7.755   4.576  16.634  0.00  0.00    +0.000 OA
BRANCH  18  19
ATOM     19  C   UNL     1       6.809   4.022  15.787  0.00  0.00    +0.000 C 
BRANCH  19  20
ATOM     20  C   UNL     1       6.956   4.553  14.379  0.00  0.00    +0.000 C 
ATOM     21  C   UNL     1       6.296   3.920  13.182  0.00  0.00    +0.000 C 
ATOM     22  O   UNL     1       7.651   5.539  14.198  0.00  0.00    +0.000 OA
ENDBRANCH  19  20
ENDBRANCH  18  19
ENDBRANCH  16  18
ENDBRANCH  12  16
ENDBRANCH   1  12
TORSDOF 10
ENDMDL
MODEL 8
REMARK VINA RESULT:      -6.1      3.851      6.334
REMARK  Name = 
REMARK  12 active torsions:
REMARK  status: ('A' for Active; 'I' for Inactive)
REMARK    1  A    between atoms: C_1  and  O_2
REMARK    2  A    between atoms: O_2  and  C_3
REMARK    3  A    between atoms: C_3  and  C_5
REMARK    4  A    between atoms: C_6  and  C_7
REMARK    5  A    between atoms: N_9  and  C_10
REMARK    6  A    between atoms: C_10  and  C_11
REMARK    7  A    between atoms: C_11  and  N_12
REMARK    8  A    between atoms: C_11  and  C_13
REMARK    9  A    between atoms: C_13  and  O_15
REMARK   10  A    between atoms: O_15  and  C_16
REMARK   11  A    between atoms: C_16  and  C_17
REMARK   12  A    between atoms: C_17  and  C_18
REMARK                            x       y       z     vdW  Elec       q    Type
REMARK                         _______ _______ _______ _____ _____    ______ ____
ROOT
ATOM      1  C   UNL     1       6.518   4.693  18.351  0.00  0.00    +0.000 C 
ENDROOT
BRANCH   1   4
ATOM      2  C   UNL     1       7.383   6.811  17.358  0.00  0.00    +0.000 C 
ATOM      3  O   UNL     1       7.458   6.308  16.239  0.00  0.00    +0.000 OA
ATOM      4  N   UNL     1       6.933   6.104  18.424  0.00  0.00    +0.000 N 
ATOM      5  H   UNL     1       6.903   6.583  19.330  0.00  0.00    +0.000 HD
BRANCH   2   7
ATOM      6  C   UNL     1       8.561   8.652  18.583  0.00  0.00    +0.000 C 
ATOM      7  C   UNL     1       7.783   8.242  17.570  0.00  0.00    +0.000 C 
BRANCH   6   8
ATOM      8  C   UNL     1       8.949  10.080  18.752  0.00  0.00    +0.000 C 
ATOM      9  O   UNL     1       8.569  10.899  17.916  0.00  0.00    +0.000 OA
BRANCH   8  11
ATOM     10  C   UNL     1      10.028  11.788  20.081  0.00  0.00    +0.000 C 
ATOM     11  O   UNL     1       9.707  10.470  19.810  0.00  0.00    +0.000 OA
ENDBRANCH   8  11
ENDBRANCH   6   8
ENDBRANCH   2   7
ENDBRANCH   1   4
BRANCH   1  12
ATOM     12  C   UNL     1       5.187   4.399  19.108  0.00  0.00    +0.000 C 
BRANCH  12  13
ATOM     13  N   UNL     1       5.063   2.945  19.291  0.00  0.00    +0.000 NA
ATOM     14  H   UNL     1       4.336   2.560  18.646  0.00  0.00    +0.000 HD
ATOM     15  H   UNL     1       4.775   2.720  20.270  0.00  0.00    +0.000 HD
ENDBRANCH  12  13
BRANCH  12  16
ATOM     16  C   UNL     1       3.946   4.948  18.429  0.00  0.00    +0.000 C 
ATOM     17  O   UNL     1       3.961   5.186  17.224  0.00  0.00    +0.000 OA
BRANCH  16  18
ATOM     18  O   UNL     1       2.808   5.120  19.159  0.00  0.00    +0.000 OA
BRANCH  18  19
ATOM     19  C   UNL     1       2.725   5.050  20.541  0.00  0.00    +0.000 C 
BRANCH  19  20
ATOM     20  C   UNL     1       1.958   3.824  20.983  0.00  0.00    +0.000 C 
ATOM     21  C   UNL     1       0.923   3.142  20.127  0.00  0.00    +0.000 C 
ATOM     22  O   UNL     1       2.179   3.368  22.092  0.00  0.00    +0.000 OA
ENDBRANCH  19  20
ENDBRANCH  18  19
ENDBRANCH  16  18
ENDBRANCH  12  16
ENDBRANCH   1  12
TORSDOF 10
ENDMDL
MODEL 9
REMARK VINA RESULT:      -6.0      2.386      2.843
REMARK  Name = 
REMARK  12 active torsions:
REMARK  status: ('A' for Active; 'I' for Inactive)
REMARK    1  A    between atoms: C_1  and  O_2
REMARK    2  A    between atoms: O_2  and  C_3
REMARK    3  A    between atoms: C_3  and  C_5
REMARK    4  A    between atoms: C_6  and  C_7
REMARK    5  A    between atoms: N_9  and  C_10
REMARK    6  A    between atoms: C_10  and  C_11
REMARK    7  A    between atoms: C_11  and  N_12
REMARK    8  A    between atoms: C_11  and  C_13
REMARK    9  A    between atoms: C_13  and  O_15
REMARK   10  A    between atoms: O_15  and  C_16
REMARK   11  A    between atoms: C_16  and  C_17
REMARK   12  A    between atoms: C_17  and  C_18
REMARK                            x       y       z     vdW  Elec       q    Type
REMARK                         _______ _______ _______ _____ _____    ______ ____
ROOT
ATOM      1  C   UNL     1       4.943   5.891  17.383  0.00  0.00    +0.000 C 
ENDROOT
BRANCH   1   4
ATOM      2  C   UNL     1       6.414   4.732  15.737  0.00  0.00    +0.000 C 
ATOM      3  O   UNL     1       7.375   4.768  16.502  0.00  0.00    +0.000 OA
ATOM      4  N   UNL     1       5.208   5.243  16.088  0.00  0.00    +0.000 N 
ATOM      5  H   UNL     1       4.452   5.186  15.398  0.00  0.00    +0.000 HD
BRANCH   2   7
ATOM      6  C   UNL     1       5.517   3.868  13.563  0.00  0.00    +0.000 C 
ATOM      7  C   UNL     1       6.554   4.104  14.380  0.00  0.00    +0.000 C 
BRANCH   6   8
ATOM      8  C   UNL     1       5.697   3.256  12.217  0.00  0.00    +0.000 C 
ATOM      9  O   UNL     1       4.700   3.007  11.542  0.00  0.00    +0.000 OA
BRANCH   8  11
ATOM     10  C   UNL     1       7.266   1.818  11.068  0.00  0.00    +0.000 C 
ATOM     11  O   UNL     1       6.941   2.981  11.743  0.00  0.00    +0.000 OA
ENDBRANCH   8  11
ENDBRANCH   6   8
ENDBRANCH   2   7
ENDBRANCH   1   4
BRANCH   1  12
ATOM     12  C   UNL     1       3.948   5.095  18.282  0.00  0.00    +0.000 C 
BRANCH  12  13
ATOM     13  N   UNL     1       3.528   5.959  19.397  0.00  0.00    +0.000 NA
ATOM     14  H   UNL     1       3.283   6.911  19.043  0.00  0.00    +0.000 HD
ATOM     15  H   UNL     1       4.298   6.062  20.094  0.00  0.00    +0.000 HD
ENDBRANCH  12  13
BRANCH  12  16
ATOM     16  C   UNL     1       4.499   3.785  18.816  0.00  0.00    +0.000 C 
ATOM     17  O   UNL     1       5.612   3.753  19.333  0.00  0.00    +0.000 OA
BRANCH  16  18
ATOM     18  O   UNL     1       3.722   2.666  18.763  0.00  0.00    +0.000 OA
BRANCH  18  19
ATOM     19  C   UNL     1       2.547   2.541  18.039  0.00  0.00    +0.000 C 
BRANCH  19  20
ATOM     20  C   UNL     1       1.342   2.509  18.951  0.00  0.00    +0.000 C 
ATOM     21  C   UNL     1       1.407   2.829  20.422  0.00  0.00    +0.000 C 
ATOM     22  O   UNL     1       0.261   2.199  18.477  0.00  0.00    +0.000 OA
ENDBRANCH  19  20
ENDBRANCH  18  19
ENDBRANCH  16  18
ENDBRANCH  12  16
ENDBRANCH   1  12
TORSDOF 10
ENDMDL
