MODEL 1
REMARK VINA RESULT:      -8.1      0.000      0.000
REMARK  Name = 
REMARK  8 active torsions:
REMARK  status: ('A' for Active; 'I' for Inactive)
REMARK    1  A    between atoms: C_1  and  N_2
REMARK    2  A    between atoms: N_2  and  C_3
REMARK    3  A    between atoms: N_2  and  C_4
REMARK    4  A    between atoms: C_7  and  C_8
REMARK    5  A    between atoms: C_8  and  C_9
REMARK    6  A    between atoms: C_15  and  C_16
REMARK    7  A    between atoms: C_18  and  C_19
REMARK    8  A    between atoms: N_21  and  C_22
REMARK                            x       y       z     vdW  Elec       q    Type
REMARK                         _______ _______ _______ _____ _____    ______ ____
ROOT
ATOM      1  C   UNL     1      -1.556  14.098  20.630  0.00  0.00    +0.000 C 
ATOM      2  O   UNL     1      -1.859  15.003  21.421  0.00  0.00    +0.000 OA
ATOM      3  N   UNL     1      -1.852  12.768  20.898  0.00  0.00    +0.000 N 
ATOM      4  C   UNL     1      -2.642  12.436  22.087  0.00  0.00    +0.000 C 
ATOM      5  C   UNL     1      -1.721  12.050  23.235  0.00  0.00    +0.000 C 
ATOM      6  C   UNL     1      -0.845  10.873  22.820  0.00  0.00    +0.000 C 
ATOM      7  C   UNL     1      -0.093  11.150  21.510  0.00  0.00    +0.000 C 
ATOM      8  C   UNL     1      -1.017  11.683  20.401  0.00  0.00    +0.000 C 
ENDROOT
BRANCH   7   9
ATOM      9  C   UNL     1       0.563   9.916  21.045  0.00  0.00    +0.000 A 
ATOM     10  C   UNL     1       1.229   9.584  19.901  0.00  0.00    +0.000 A 
ATOM     11  C   UNL     1       1.605   8.236  20.100  0.00  0.00    +0.000 A 
ATOM     12  N   UNL     1       1.182   7.773  21.291  0.00  0.00    +0.000 NA
ATOM     13  O   UNL     1       0.517   8.837  21.873  0.00  0.00    +0.000 OA
BRANCH  11  14
ATOM     14  C   UNL     1       2.344   7.440  19.157  0.00  0.00    +0.000 C 
ATOM     15  O   UNL     1       2.674   7.954  18.083  0.00  0.00    +0.000 OA
ATOM     16  N   UNL     1       2.592   6.148  19.538  0.00  0.00    +0.000 N 
ATOM     17  H   UNL     1       2.184   5.853  20.427  0.00  0.00    +0.000 HD
BRANCH  16  18
ATOM     18  C   UNL     1       3.418   5.244  18.851  0.00  0.00    +0.000 A 
ATOM     19  C   UNL     1       2.972   4.551  17.704  0.00  0.00    +0.000 A 
ATOM     20  C   UNL     1       3.886   3.938  16.838  0.00  0.00    +0.000 A 
ATOM     21  C   UNL     1       5.197   4.033  17.190  0.00  0.00    +0.000 A 
ATOM     22  C   UNL     1       5.606   4.523  18.416  0.00  0.00    +0.000 A 
ATOM     23  C   UNL     1       4.742   5.172  19.266  0.00  0.00    +0.000 A 
ATOM     24  O   UNL     1       6.966   4.596  18.512  0.00  0.00    +0.000 OA
ATOM     25  C   UNL     1       7.216   4.716  17.104  0.00  0.00    +0.000 C 
ATOM     26  O   UNL     1       6.264   3.942  16.336  0.00  0.00    +0.000 OA
ENDBRANCH  16  18
ENDBRANCH  11  14
ENDBRANCH   7   9
BRANCH   1  27
ATOM     27  C   UNL     1      -0.909  14.421  19.287  0.00  0.00    +0.000 C 
BRANCH  27  31
ATOM     28  C   UNL     1       3.445  14.808  19.434  0.00  0.00    +0.000 A 
ATOM     29  C   UNL     1       2.814  13.690  18.872  0.00  0.00    +0.000 A 
ATOM     30  C   UNL     1       1.417  13.582  18.812  0.00  0.00    +0.000 A 
ATOM     31  C   UNL     1       0.590  14.609  19.287  0.00  0.00    +0.000 A 
ATOM     32  C   UNL     1       1.205  15.786  19.723  0.00  0.00    +0.000 A 
ATOM     33  C   UNL     1       2.604  15.869  19.803  0.00  0.00    +0.000 A 
BRANCH  28  35
ATOM     34  C   UNL     1       5.364  15.556  20.790  0.00  0.00    +0.000 C 
ATOM     35  N   UNL     1       4.837  14.874  19.611  0.00  0.00    +0.000 N 
ATOM     36  C   UNL     1       5.641  14.969  18.393  0.00  0.00    +0.000 C 
ENDBRANCH  28  35
ENDBRANCH  27  31
ENDBRANCH   1  27
TORSDOF 6
ENDMDL
MODEL 2
REMARK VINA RESULT:      -8.0      3.272     10.728
REMARK  Name = 
REMARK  8 active torsions:
REMARK  status: ('A' for Active; 'I' for Inactive)
REMARK    1  A    between atoms: C_1  and  N_2
REMARK    2  A    between atoms: N_2  and  C_3
REMARK    3  A    between atoms: N_2  and  C_4
REMARK    4  A    between atoms: C_7  and  C_8
REMARK    5  A    between atoms: C_8  and  C_9
REMARK    6  A    between atoms: C_15  and  C_16
REMARK    7  A    between atoms: C_18  and  C_19
REMARK    8  A    between atoms: N_21  and  C_22
REMARK                            x       y       z     vdW  Elec       q    Type
REMARK                         _______ _______ _______ _____ _____    ______ ____
ROOT
ATOM      1  C   UNL     1       4.446   3.491  19.028  0.00  0.00    +0.000 C 
ATOM      2  O   UNL     1       4.282   2.378  18.508  0.00  0.00    +0.000 OA
ATOM      3  N   UNL     1       3.703   3.897  20.128  0.00  0.00    +0.000 N 
ATOM      4  C   UNL     1       2.784   2.947  20.762  0.00  0.00    +0.000 C 
ATOM      5  C   UNL     1       1.373   3.153  20.231  0.00  0.00    +0.000 C 
ATOM      6  C   UNL     1       0.930   4.589  20.487  0.00  0.00    +0.000 C 
ATOM      7  C   UNL     1       1.937   5.609  19.935  0.00  0.00    +0.000 C 
ATOM      8  C   UNL     1       3.383   5.299  20.360  0.00  0.00    +0.000 C 
ENDROOT
BRANCH   7   9
ATOM      9  C   UNL     1       1.575   6.961  20.393  0.00  0.00    +0.000 A 
ATOM     10  C   UNL     1       0.822   7.428  21.431  0.00  0.00    +0.000 A 
ATOM     11  C   UNL     1       0.881   8.833  21.295  0.00  0.00    +0.000 A 
ATOM     12  N   UNL     1       1.617   9.198  20.229  0.00  0.00    +0.000 NA
ATOM     13  O   UNL     1       2.040   8.011  19.661  0.00  0.00    +0.000 OA
BRANCH  11  14
ATOM     14  C   UNL     1       0.236   9.772  22.173  0.00  0.00    +0.000 C 
ATOM     15  O   UNL     1       0.533   9.757  23.373  0.00  0.00    +0.000 OA
ATOM     16  N   UNL     1      -0.688  10.596  21.585  0.00  0.00    +0.000 N 
ATOM     17  H   UNL     1      -0.874  10.431  20.594  0.00  0.00    +0.000 HD
BRANCH  16  18
ATOM     18  C   UNL     1      -1.321  11.681  22.211  0.00  0.00    +0.000 A 
ATOM     19  C   UNL     1      -1.165  13.005  21.744  0.00  0.00    +0.000 A 
ATOM     20  C   UNL     1      -2.054  14.013  22.141  0.00  0.00    +0.000 A 
ATOM     21  C   UNL     1      -3.033  13.637  23.009  0.00  0.00    +0.000 A 
ATOM     22  C   UNL     1      -3.048  12.399  23.625  0.00  0.00    +0.000 A 
ATOM     23  C   UNL     1      -2.221  11.376  23.225  0.00  0.00    +0.000 A 
ATOM     24  O   UNL     1      -4.165  12.220  24.390  0.00  0.00    +0.000 OA
ATOM     25  C   UNL     1      -4.999  13.135  23.664  0.00  0.00    +0.000 C 
ATOM     26  O   UNL     1      -4.237  14.265  23.178  0.00  0.00    +0.000 OA
ENDBRANCH  16  18
ENDBRANCH  11  14
ENDBRANCH   7   9
BRANCH   1  27
ATOM     27  C   UNL     1       5.533   4.434  18.523  0.00  0.00    +0.000 C 
BRANCH  27  31
ATOM     28  C   UNL     1       6.303   4.151  14.226  0.00  0.00    +0.000 A 
ATOM     29  C   UNL     1       5.024   3.969  14.768  0.00  0.00    +0.000 A 
ATOM     30  C   UNL     1       4.781   4.080  16.146  0.00  0.00    +0.000 A 
ATOM     31  C   UNL     1       5.811   4.409  17.037  0.00  0.00    +0.000 A 
ATOM     32  C   UNL     1       7.059   4.728  16.496  0.00  0.00    +0.000 A 
ATOM     33  C   UNL     1       7.294   4.587  15.119  0.00  0.00    +0.000 A 
BRANCH  28  35
ATOM     34  C   UNL     1       7.469   4.850  12.168  0.00  0.00    +0.000 C 
ATOM     35  N   UNL     1       6.582   3.924  12.869  0.00  0.00    +0.000 N 
ATOM     36  C   UNL     1       5.503   3.334  12.076  0.00  0.00    +0.000 C 
ENDBRANCH  28  35
ENDBRANCH  27  31
ENDBRANCH   1  27
TORSDOF 6
ENDMDL
MODEL 3
REMARK VINA RESULT:      -7.8      4.046      9.189
REMARK  Name = 
REMARK  8 active torsions:
REMARK  status: ('A' for Active; 'I' for Inactive)
REMARK    1  A    between atoms: C_1  and  N_2
REMARK    2  A    between atoms: N_2  and  C_3
REMARK    3  A    between atoms: N_2  and  C_4
REMARK    4  A    between atoms: C_7  and  C_8
REMARK    5  A    between atoms: C_8  and  C_9
REMARK    6  A    between atoms: C_15  and  C_16
REMARK    7  A    between atoms: C_18  and  C_19
REMARK    8  A    between atoms: N_21  and  C_22
REMARK                            x       y       z     vdW  Elec       q    Type
REMARK                         _______ _______ _______ _____ _____    ______ ____
ROOT
ATOM      1  C   UNL     1       0.738  10.041  18.187  0.00  0.00    +0.000 C 
ATOM      2  O   UNL     1      -0.280   9.569  17.662  0.00  0.00    +0.000 OA
ATOM      3  N   UNL     1       0.675  11.124  19.054  0.00  0.00    +0.000 N 
ATOM      4  C   UNL     1      -0.635  11.650  19.448  0.00  0.00    +0.000 C 
ATOM      5  C   UNL     1      -1.006  12.837  18.571  0.00  0.00    +0.000 C 
ATOM      6  C   UNL     1       0.066  13.915  18.680  0.00  0.00    +0.000 C 
ATOM      7  C   UNL     1       1.469  13.363  18.386  0.00  0.00    +0.000 C 
ATOM      8  C   UNL     1       1.773  12.075  19.172  0.00  0.00    +0.000 C 
ENDROOT
BRANCH   7   9
ATOM      9  C   UNL     1       2.481  14.382  18.712  0.00  0.00    +0.000 A 
ATOM     10  C   UNL     1       3.793  14.541  18.371  0.00  0.00    +0.000 A 
ATOM     11  C   UNL     1       4.177  15.733  19.026  0.00  0.00    +0.000 A 
ATOM     12  N   UNL     1       3.160  16.261  19.732  0.00  0.00    +0.000 NA
ATOM     13  O   UNL     1       2.100  15.395  19.537  0.00  0.00    +0.000 OA
BRANCH  11  14
ATOM     14  C   UNL     1       5.488  16.321  18.961  0.00  0.00    +0.000 C 
ATOM     15  O   UNL     1       5.584  17.552  19.008  0.00  0.00    +0.000 OA
ATOM     16  N   UNL     1       6.527  15.439  18.823  0.00  0.00    +0.000 N 
ATOM     17  H   UNL     1       6.274  14.455  18.722  0.00  0.00    +0.000 HD
BRANCH  16  18
ATOM     18  C   UNL     1       7.889  15.774  18.892  0.00  0.00    +0.000 A 
ATOM     19  C   UNL     1       8.613  15.700  20.102  0.00  0.00    +0.000 A 
ATOM     20  C   UNL     1      10.014  15.693  20.098  0.00  0.00    +0.000 A 
ATOM     21  C   UNL     1      10.607  15.790  18.877  0.00  0.00    +0.000 A 
ATOM     22  C   UNL     1       9.900  16.078  17.725  0.00  0.00    +0.000 A 
ATOM     23  C   UNL     1       8.525  16.045  17.688  0.00  0.00    +0.000 A 
ATOM     24  O   UNL     1      10.692  16.047  16.614  0.00  0.00    +0.000 OA
ATOM     25  C   UNL     1      11.671  15.142  17.146  0.00  0.00    +0.000 C 
ATOM     26  O   UNL     1      11.868  15.359  18.564  0.00  0.00    +0.000 OA
ENDBRANCH  16  18
ENDBRANCH  11  14
ENDBRANCH   7   9
BRANCH   1  27
ATOM     27  C   UNL     1       2.102   9.397  17.959  0.00  0.00    +0.000 C 
BRANCH  27  31
ATOM     28  C   UNL     1       2.605   5.384  19.627  0.00  0.00    +0.000 A 
ATOM     29  C   UNL     1       3.141   5.749  18.384  0.00  0.00    +0.000 A 
ATOM     30  C   UNL     1       2.991   7.043  17.865  0.00  0.00    +0.000 A 
ATOM     31  C   UNL     1       2.321   8.040  18.586  0.00  0.00    +0.000 A 
ATOM     32  C   UNL     1       1.902   7.729  19.883  0.00  0.00    +0.000 A 
ATOM     33  C   UNL     1       2.034   6.423  20.379  0.00  0.00    +0.000 A 
BRANCH  28  35
ATOM     34  C   UNL     1       2.057   3.770  21.408  0.00  0.00    +0.000 C 
ATOM     35  N   UNL     1       2.642   4.064  20.102  0.00  0.00    +0.000 N 
ATOM     36  C   UNL     1       3.810   3.270  19.720  0.00  0.00    +0.000 C 
ENDBRANCH  28  35
ENDBRANCH  27  31
ENDBRANCH   1  27
TORSDOF 6
ENDMDL
MODEL 4
REMARK VINA RESULT:      -7.8      2.837      9.843
REMARK  Name = 
REMARK  8 active torsions:
REMARK  status: ('A' for Active; 'I' for Inactive)
REMARK    1  A    between atoms: C_1  and  N_2
REMARK    2  A    between atoms: N_2  and  C_3
REMARK    3  A    between atoms: N_2  and  C_4
REMARK    4  A    between atoms: C_7  and  C_8
REMARK    5  A    between atoms: C_8  and  C_9
REMARK    6  A    between atoms: C_15  and  C_16
REMARK    7  A    between atoms: C_18  and  C_19
REMARK    8  A    between atoms: N_21  and  C_22
REMARK                            x       y       z     vdW  Elec       q    Type
REMARK                         _______ _______ _______ _____ _____    ______ ____
ROOT
ATOM      1  C   UNL     1       4.349   3.328  19.156  0.00  0.00    +0.000 C 
ATOM      2  O   UNL     1       4.170   2.240  18.591  0.00  0.00    +0.000 OA
ATOM      3  N   UNL     1       3.508   3.769  20.168  0.00  0.00    +0.000 N 
ATOM      4  C   UNL     1       2.453   2.881  20.661  0.00  0.00    +0.000 C 
ATOM      5  C   UNL     1       1.136   3.200  19.969  0.00  0.00    +0.000 C 
ATOM      6  C   UNL     1       0.769   4.661  20.206  0.00  0.00    +0.000 C 
ATOM      7  C   UNL     1       1.907   5.612  19.807  0.00  0.00    +0.000 C 
ATOM      8  C   UNL     1       3.264   5.188  20.396  0.00  0.00    +0.000 C 
ENDROOT
BRANCH   7   9
ATOM      9  C   UNL     1       1.590   6.980  20.253  0.00  0.00    +0.000 A 
ATOM     10  C   UNL     1       1.636   8.198  19.640  0.00  0.00    +0.000 A 
ATOM     11  C   UNL     1       1.199   9.101  20.635  0.00  0.00    +0.000 A 
ATOM     12  N   UNL     1       0.914   8.468  21.789  0.00  0.00    +0.000 NA
ATOM     13  O   UNL     1       1.175   7.133  21.540  0.00  0.00    +0.000 OA
BRANCH  11  14
ATOM     14  C   UNL     1       1.072  10.523  20.458  0.00  0.00    +0.000 C 
ATOM     15  O   UNL     1       0.846  11.222  21.451  0.00  0.00    +0.000 OA
ATOM     16  N   UNL     1       1.189  10.972  19.169  0.00  0.00    +0.000 N 
ATOM     17  H   UNL     1       1.299  10.256  18.449  0.00  0.00    +0.000 HD
BRANCH  16  18
ATOM     18  C   UNL     1       1.252  12.321  18.784  0.00  0.00    +0.000 A 
ATOM     19  C   UNL     1       0.152  13.192  18.941  0.00  0.00    +0.000 A 
ATOM     20  C   UNL     1       0.326  14.581  18.888  0.00  0.00    +0.000 A 
ATOM     21  C   UNL     1       1.594  15.015  18.651  0.00  0.00    +0.000 A 
ATOM     22  C   UNL     1       2.618  14.160  18.286  0.00  0.00    +0.000 A 
ATOM     23  C   UNL     1       2.492  12.794  18.373  0.00  0.00    +0.000 A 
ATOM     24  O   UNL     1       3.815  14.809  18.178  0.00  0.00    +0.000 OA
ATOM     25  C   UNL     1       3.497  15.874  19.086  0.00  0.00    +0.000 C 
ATOM     26  O   UNL     1       2.099  16.239  18.995  0.00  0.00    +0.000 OA
ENDBRANCH  16  18
ENDBRANCH  11  14
ENDBRANCH   7   9
BRANCH   1  27
ATOM     27  C   UNL     1       5.555   4.196  18.810  0.00  0.00    +0.000 C 
BRANCH  27  31
ATOM     28  C   UNL     1       6.369   4.520  14.524  0.00  0.00    +0.000 A 
ATOM     29  C   UNL     1       5.068   4.401  15.030  0.00  0.00    +0.000 A 
ATOM     30  C   UNL     1       4.814   4.316  16.407  0.00  0.00    +0.000 A 
ATOM     31  C   UNL     1       5.857   4.379  17.340  0.00  0.00    +0.000 A 
ATOM     32  C   UNL     1       7.143   4.635  16.858  0.00  0.00    +0.000 A 
ATOM     33  C   UNL     1       7.386   4.691  15.477  0.00  0.00    +0.000 A 
BRANCH  28  35
ATOM     34  C   UNL     1       6.183   3.337  12.368  0.00  0.00    +0.000 C 
ATOM     35  N   UNL     1       6.646   4.483  13.148  0.00  0.00    +0.000 N 
ATOM     36  C   UNL     1       7.909   5.088  12.725  0.00  0.00    +0.000 C 
ENDBRANCH  28  35
ENDBRANCH  27  31
ENDBRANCH   1  27
TORSDOF 6
ENDMDL
MODEL 5
REMARK VINA RESULT:      -7.8      3.354     10.718
REMARK  Name = 
REMARK  8 active torsions:
REMARK  status: ('A' for Active; 'I' for Inactive)
REMARK    1  A    between atoms: C_1  and  N_2
REMARK    2  A    between atoms: N_2  and  C_3
REMARK    3  A    between atoms: N_2  and  C_4
REMARK    4  A    between atoms: C_7  and  C_8
REMARK    5  A    between atoms: C_8  and  C_9
REMARK    6  A    between atoms: C_15  and  C_16
REMARK    7  A    between atoms: C_18  and  C_19
REMARK    8  A    between atoms: N_21  and  C_22
REMARK                            x       y       z     vdW  Elec       q    Type
REMARK                         _______ _______ _______ _____ _____    ______ ____
ROOT
ATOM      1  C   UNL     1       4.346   3.809  18.731  0.00  0.00    +0.000 C 
ATOM      2  O   UNL     1       4.186   2.718  18.165  0.00  0.00    +0.000 OA
ATOM      3  N   UNL     1       3.648   4.139  19.884  0.00  0.00    +0.000 N 
ATOM      4  C   UNL     1       2.787   3.134  20.513  0.00  0.00    +0.000 C 
ATOM      5  C   UNL     1       1.346   3.324  20.061  0.00  0.00    +0.000 C 
ATOM      6  C   UNL     1       0.877   4.732  20.409  0.00  0.00    +0.000 C 
ATOM      7  C   UNL     1       1.828   5.807  19.860  0.00  0.00    +0.000 C 
ATOM      8  C   UNL     1       3.301   5.520  20.200  0.00  0.00    +0.000 C 
ENDROOT
BRANCH   7   9
ATOM      9  C   UNL     1       1.453   7.124  20.401  0.00  0.00    +0.000 A 
ATOM     10  C   UNL     1       0.805   7.521  21.535  0.00  0.00    +0.000 A 
ATOM     11  C   UNL     1       0.773   8.930  21.439  0.00  0.00    +0.000 A 
ATOM     12  N   UNL     1       1.358   9.364  20.307  0.00  0.00    +0.000 NA
ATOM     13  O   UNL     1       1.772   8.217  19.655  0.00  0.00    +0.000 OA
BRANCH  11  14
ATOM     14  C   UNL     1       0.189   9.808  22.417  0.00  0.00    +0.000 C 
ATOM     15  O   UNL     1       0.512   9.669  23.602  0.00  0.00    +0.000 OA
ATOM     16  N   UNL     1      -0.711  10.720  21.932  0.00  0.00    +0.000 N 
ATOM     17  H   UNL     1      -0.927  10.656  20.935  0.00  0.00    +0.000 HD
BRANCH  16  18
ATOM     18  C   UNL     1      -1.283  11.767  22.672  0.00  0.00    +0.000 A 
ATOM     19  C   UNL     1      -0.772  13.082  22.620  0.00  0.00    +0.000 A 
ATOM     20  C   UNL     1      -1.538  14.166  23.069  0.00  0.00    +0.000 A 
ATOM     21  C   UNL     1      -2.765  13.861  23.571  0.00  0.00    +0.000 A 
ATOM     22  C   UNL     1      -3.169  12.562  23.817  0.00  0.00    +0.000 A 
ATOM     23  C   UNL     1      -2.463  11.479  23.348  0.00  0.00    +0.000 A 
ATOM     24  O   UNL     1      -4.463  12.498  24.246  0.00  0.00    +0.000 OA
ATOM     25  C   UNL     1      -4.893  13.720  23.628  0.00  0.00    +0.000 C 
ATOM     26  O   UNL     1      -3.837  14.710  23.637  0.00  0.00    +0.000 OA
ENDBRANCH  16  18
ENDBRANCH  11  14
ENDBRANCH   7   9
BRANCH   1  27
ATOM     27  C   UNL     1       5.381   4.807  18.221  0.00  0.00    +0.000 C 
BRANCH  27  31
ATOM     28  C   UNL     1       6.651   4.611  14.040  0.00  0.00    +0.000 A 
ATOM     29  C   UNL     1       7.569   4.687  15.096  0.00  0.00    +0.000 A 
ATOM     30  C   UNL     1       7.154   4.730  16.435  0.00  0.00    +0.000 A 
ATOM     31  C   UNL     1       5.796   4.669  16.775  0.00  0.00    +0.000 A 
ATOM     32  C   UNL     1       4.880   4.455  15.741  0.00  0.00    +0.000 A 
ATOM     33  C   UNL     1       5.307   4.441  14.405  0.00  0.00    +0.000 A 
BRANCH  28  35
ATOM     34  C   UNL     1       6.825   3.535  11.828  0.00  0.00    +0.000 C 
ATOM     35  N   UNL     1       7.046   4.690  12.695  0.00  0.00    +0.000 N 
ATOM     36  C   UNL     1       8.237   5.492  12.415  0.00  0.00    +0.000 C 
ENDBRANCH  28  35
ENDBRANCH  27  31
ENDBRANCH   1  27
TORSDOF 6
ENDMDL
MODEL 6
REMARK VINA RESULT:      -7.7      2.981      9.820
REMARK  Name = 
REMARK  8 active torsions:
REMARK  status: ('A' for Active; 'I' for Inactive)
REMARK    1  A    between atoms: C_1  and  N_2
REMARK    2  A    between atoms: N_2  and  C_3
REMARK    3  A    between atoms: N_2  and  C_4
REMARK    4  A    between atoms: C_7  and  C_8
REMARK    5  A    between atoms: C_8  and  C_9
REMARK    6  A    between atoms: C_15  and  C_16
REMARK    7  A    between atoms: C_18  and  C_19
REMARK    8  A    between atoms: N_21  and  C_22
REMARK                            x       y       z     vdW  Elec       q    Type
REMARK                         _______ _______ _______ _____ _____    ______ ____
ROOT
ATOM      1  C   UNL     1       3.753   2.753  17.966  0.00  0.00    +0.000 C 
ATOM      2  O   UNL     1       3.504   1.542  17.875  0.00  0.00    +0.000 OA
ATOM      3  N   UNL     1       3.785   3.400  19.193  0.00  0.00    +0.000 N 
ATOM      4  C   UNL     1       3.635   2.614  20.421  0.00  0.00    +0.000 C 
ATOM      5  C   UNL     1       2.187   2.646  20.888  0.00  0.00    +0.000 C 
ATOM      6  C   UNL     1       1.749   4.090  21.111  0.00  0.00    +0.000 C 
ATOM      7  C   UNL     1       2.005   4.966  19.876  0.00  0.00    +0.000 C 
ATOM      8  C   UNL     1       3.433   4.808  19.326  0.00  0.00    +0.000 C 
ENDROOT
BRANCH   7   9
ATOM      9  C   UNL     1       1.768   6.380  20.214  0.00  0.00    +0.000 A 
ATOM     10  C   UNL     1       1.316   7.011  21.336  0.00  0.00    +0.000 A 
ATOM     11  C   UNL     1       1.326   8.381  20.989  0.00  0.00    +0.000 A 
ATOM     12  N   UNL     1       1.750   8.569  19.725  0.00  0.00    +0.000 NA
ATOM     13  O   UNL     1       2.015   7.301  19.242  0.00  0.00    +0.000 OA
BRANCH  11  14
ATOM     14  C   UNL     1       0.932   9.454  21.861  0.00  0.00    +0.000 C 
ATOM     15  O   UNL     1       1.497   9.563  22.955  0.00  0.00    +0.000 OA
ATOM     16  N   UNL     1      -0.077  10.256  21.396  0.00  0.00    +0.000 N 
ATOM     17  H   UNL     1      -0.493   9.986  20.503  0.00  0.00    +0.000 HD
BRANCH  16  18
ATOM     18  C   UNL     1      -0.514  11.443  22.005  0.00  0.00    +0.000 A 
ATOM     19  C   UNL     1      -0.018  12.707  21.614  0.00  0.00    +0.000 A 
ATOM     20  C   UNL     1      -0.696  13.881  21.965  0.00  0.00    +0.000 A 
ATOM     21  C   UNL     1      -1.820  13.720  22.715  0.00  0.00    +0.000 A 
ATOM     22  C   UNL     1      -2.177  12.506  23.272  0.00  0.00    +0.000 A 
ATOM     23  C   UNL     1      -1.561  11.330  22.910  0.00  0.00    +0.000 A 
ATOM     24  O   UNL     1      -3.379  12.569  23.915  0.00  0.00    +0.000 OA
ATOM     25  C   UNL     1      -3.907  13.664  23.151  0.00  0.00    +0.000 C 
ATOM     26  O   UNL     1      -2.864  14.602  22.793  0.00  0.00    +0.000 OA
ENDBRANCH  16  18
ENDBRANCH  11  14
ENDBRANCH   7   9
BRANCH   1  27
ATOM     27  C   UNL     1       4.112   3.568  16.727  0.00  0.00    +0.000 C 
BRANCH  27  31
ATOM     28  C   UNL     1       7.014   6.750  17.495  0.00  0.00    +0.000 A 
ATOM     29  C   UNL     1       7.341   5.394  17.628  0.00  0.00    +0.000 A 
ATOM     30  C   UNL     1       6.410   4.379  17.362  0.00  0.00    +0.000 A 
ATOM     31  C   UNL     1       5.116   4.682  16.920  0.00  0.00    +0.000 A 
ATOM     32  C   UNL     1       4.820   6.021  16.652  0.00  0.00    +0.000 A 
ATOM     33  C   UNL     1       5.752   7.028  16.948  0.00  0.00    +0.000 A 
BRANCH  28  35
ATOM     34  C   UNL     1       8.642   7.634  19.123  0.00  0.00    +0.000 C 
ATOM     35  N   UNL     1       7.896   7.775  17.875  0.00  0.00    +0.000 N 
ATOM     36  C   UNL     1       7.507   9.135  17.501  0.00  0.00    +0.000 C 
ENDBRANCH  28  35
ENDBRANCH  27  31
ENDBRANCH   1  27
TORSDOF 6
ENDMDL
MODEL 7
REMARK VINA RESULT:      -7.6      4.160      9.123
REMARK  Name = 
REMARK  8 active torsions:
REMARK  status: ('A' for Active; 'I' for Inactive)
REMARK    1  A    between atoms: C_1  and  N_2
REMARK    2  A    between atoms: N_2  and  C_3
REMARK    3  A    between atoms: N_2  and  C_4
REMARK    4  A    between atoms: C_7  and  C_8
REMARK    5  A    between atoms: C_8  and  C_9
REMARK    6  A    between atoms: C_15  and  C_16
REMARK    7  A    between atoms: C_18  and  C_19
REMARK    8  A    between atoms: N_21  and  C_22
REMARK                            x       y       z     vdW  Elec       q    Type
REMARK                         _______ _______ _______ _____ _____    ______ ____
ROOT
ATOM      1  C   UNL     1       0.636  10.827  18.958  0.00  0.00    +0.000 C 
ATOM      2  O   UNL     1      -0.517  10.401  18.797  0.00  0.00    +0.000 OA
ATOM      3  N   UNL     1       0.894  11.956  19.722  0.00  0.00    +0.000 N 
ATOM      4  C   UNL     1      -0.205  12.596  20.450  0.00  0.00    +0.000 C 
ATOM      5  C   UNL     1      -0.763  13.757  19.639  0.00  0.00    +0.000 C 
ATOM      6  C   UNL     1       0.347  14.759  19.344  0.00  0.00    +0.000 C 
ATOM      7  C   UNL     1       1.564  14.093  18.685  0.00  0.00    +0.000 C 
ATOM      8  C   UNL     1       2.024  12.831  19.437  0.00  0.00    +0.000 C 
ENDROOT
BRANCH   7   9
ATOM      9  C   UNL     1       2.679  15.053  18.619  0.00  0.00    +0.000 A 
ATOM     10  C   UNL     1       4.017  14.952  18.869  0.00  0.00    +0.000 A 
ATOM     11  C   UNL     1       4.514  16.250  18.611  0.00  0.00    +0.000 A 
ATOM     12  N   UNL     1       3.533  17.092  18.237  0.00  0.00    +0.000 NA
ATOM     13  O   UNL     1       2.379  16.330  18.256  0.00  0.00    +0.000 OA
BRANCH  11  14
ATOM     14  C   UNL     1       5.892  16.642  18.732  0.00  0.00    +0.000 C 
ATOM     15  O   UNL     1       6.150  17.834  18.933  0.00  0.00    +0.000 OA
ATOM     16  N   UNL     1       6.810  15.636  18.583  0.00  0.00    +0.000 N 
ATOM     17  H   UNL     1       6.437  14.715  18.345  0.00  0.00    +0.000 HD
BRANCH  16  18
ATOM     18  C   UNL     1       8.190  15.757  18.812  0.00  0.00    +0.000 A 
ATOM     19  C   UNL     1       8.780  15.367  20.035  0.00  0.00    +0.000 A 
ATOM     20  C   UNL     1      10.163  15.163  20.129  0.00  0.00    +0.000 A 
ATOM     21  C   UNL     1      10.878  15.392  18.994  0.00  0.00    +0.000 A 
ATOM     22  C   UNL     1      10.326  15.978  17.871  0.00  0.00    +0.000 A 
ATOM     23  C   UNL     1       8.969  16.147  17.729  0.00  0.00    +0.000 A 
ATOM     24  O   UNL     1      11.212  16.035  16.833  0.00  0.00    +0.000 OA
ATOM     25  C   UNL     1      12.014  14.920  17.252  0.00  0.00    +0.000 C 
ATOM     26  O   UNL     1      12.099  14.850  18.695  0.00  0.00    +0.000 OA
ENDBRANCH  16  18
ENDBRANCH  11  14
ENDBRANCH   7   9
BRANCH   1  27
ATOM     27  C   UNL     1       1.831  10.075  18.381  0.00  0.00    +0.000 C 
BRANCH  27  31
ATOM     28  C   UNL     1       2.335   5.891  19.555  0.00  0.00    +0.000 A 
ATOM     29  C   UNL     1       1.871   6.866  20.448  0.00  0.00    +0.000 A 
ATOM     30  C   UNL     1       1.694   8.202  20.059  0.00  0.00    +0.000 A 
ATOM     31  C   UNL     1       1.948   8.612  18.743  0.00  0.00    +0.000 A 
ATOM     32  C   UNL     1       2.278   7.626  17.810  0.00  0.00    +0.000 A 
ATOM     33  C   UNL     1       2.477   6.298  18.219  0.00  0.00    +0.000 A 
BRANCH  28  35
ATOM     34  C   UNL     1       2.182   4.134  21.279  0.00  0.00    +0.000 C 
ATOM     35  N   UNL     1       2.632   4.580  19.962  0.00  0.00    +0.000 N 
ATOM     36  C   UNL     1       3.899   4.026  19.487  0.00  0.00    +0.000 C 
ENDBRANCH  28  35
ENDBRANCH  27  31
ENDBRANCH   1  27
TORSDOF 6
ENDMDL
MODEL 8
REMARK VINA RESULT:      -7.6      2.655      5.844
REMARK  Name = 
REMARK  8 active torsions:
REMARK  status: ('A' for Active; 'I' for Inactive)
REMARK    1  A    between atoms: C_1  and  N_2
REMARK    2  A    between atoms: N_2  and  C_3
REMARK    3  A    between atoms: N_2  and  C_4
REMARK    4  A    between atoms: C_7  and  C_8
REMARK    5  A    between atoms: C_8  and  C_9
REMARK    6  A    between atoms: C_15  and  C_16
REMARK    7  A    between atoms: C_18  and  C_19
REMARK    8  A    between atoms: N_21  and  C_22
REMARK                            x       y       z     vdW  Elec       q    Type
REMARK                         _______ _______ _______ _____ _____    ______ ____
ROOT
ATOM      1  C   UNL     1      -0.565  14.862  22.415  0.00  0.00    +0.000 C 
ATOM      2  O   UNL     1      -0.912  16.039  22.245  0.00  0.00    +0.000 OA
ATOM      3  N   UNL     1       0.557  14.337  21.790  0.00  0.00    +0.000 N 
ATOM      4  C   UNL     1       1.418  15.222  21.002  0.00  0.00    +0.000 C 
ATOM      5  C   UNL     1       1.047  15.137  19.529  0.00  0.00    +0.000 C 
ATOM      6  C   UNL     1       1.168  13.695  19.048  0.00  0.00    +0.000 C 
ATOM      7  C   UNL     1       0.366  12.726  19.930  0.00  0.00    +0.000 C 
ATOM      8  C   UNL     1       0.643  12.927  21.430  0.00  0.00    +0.000 C 
ENDROOT
BRANCH   7   9
ATOM      9  C   UNL     1       0.687  11.337  19.558  0.00  0.00    +0.000 A 
ATOM     10  C   UNL     1       1.254  10.295  20.231  0.00  0.00    +0.000 A 
ATOM     11  C   UNL     1       1.271   9.243  19.288  0.00  0.00    +0.000 A 
ATOM     12  N   UNL     1       0.753   9.628  18.107  0.00  0.00    +0.000 NA
ATOM     13  O   UNL     1       0.399  10.953  18.284  0.00  0.00    +0.000 OA
BRANCH  11  14
ATOM     14  C   UNL     1       1.778   7.921  19.539  0.00  0.00    +0.000 C 
ATOM     15  O   UNL     1       1.573   7.411  20.646  0.00  0.00    +0.000 OA
ATOM     16  N   UNL     1       2.480   7.350  18.510  0.00  0.00    +0.000 N 
ATOM     17  H   UNL     1       2.626   7.934  17.684  0.00  0.00    +0.000 HD
BRANCH  16  18
ATOM     18  C   UNL     1       2.930   6.021  18.475  0.00  0.00    +0.000 A 
ATOM     19  C   UNL     1       4.127   5.623  19.110  0.00  0.00    +0.000 A 
ATOM     20  C   UNL     1       4.385   4.271  19.369  0.00  0.00    +0.000 A 
ATOM     21  C   UNL     1       3.435   3.392  18.949  0.00  0.00    +0.000 A 
ATOM     22  C   UNL     1       2.376   3.767  18.142  0.00  0.00    +0.000 A 
ATOM     23  C   UNL     1       2.071   5.087  17.909  0.00  0.00    +0.000 A 
ATOM     24  O   UNL     1       1.513   2.734  17.914  0.00  0.00    +0.000 OA
ATOM     25  C   UNL     1       1.822   2.006  19.112  0.00  0.00    +0.000 C 
ATOM     26  O   UNL     1       3.221   2.140  19.459  0.00  0.00    +0.000 OA
ENDBRANCH  16  18
ENDBRANCH  11  14
ENDBRANCH   7   9
BRANCH   1  27
ATOM     27  C   UNL     1      -1.322  13.959  23.385  0.00  0.00    +0.000 C 
BRANCH  27  31
ATOM     28  C   UNL     1      -5.496  12.949  22.556  0.00  0.00    +0.000 A 
ATOM     29  C   UNL     1      -5.102  13.572  23.748  0.00  0.00    +0.000 A 
ATOM     30  C   UNL     1      -3.763  13.910  23.998  0.00  0.00    +0.000 A 
ATOM     31  C   UNL     1      -2.764  13.663  23.047  0.00  0.00    +0.000 A 
ATOM     32  C   UNL     1      -3.164  13.169  21.802  0.00  0.00    +0.000 A 
ATOM     33  C   UNL     1      -4.501  12.811  21.576  0.00  0.00    +0.000 A 
BRANCH  28  35
ATOM     34  C   UNL     1      -7.514  12.924  21.139  0.00  0.00    +0.000 C 
ATOM     35  N   UNL     1      -6.808  12.496  22.345  0.00  0.00    +0.000 N 
ATOM     36  C   UNL     1      -7.627  12.301  23.542  0.00  0.00    +0.000 C 
ENDBRANCH  28  35
ENDBRANCH  27  31
ENDBRANCH   1  27
TORSDOF 6
ENDMDL
MODEL 9
REMARK VINA RESULT:      -7.5      1.571      2.017
REMARK  Name = 
REMARK  8 active torsions:
REMARK  status: ('A' for Active; 'I' for Inactive)
REMARK    1  A    between atoms: C_1  and  N_2
REMARK    2  A    between atoms: N_2  and  C_3
REMARK    3  A    between atoms: N_2  and  C_4
REMARK    4  A    between atoms: C_7  and  C_8
REMARK    5  A    between atoms: C_8  and  C_9
REMARK    6  A    between atoms: C_15  and  C_16
REMARK    7  A    between atoms: C_18  and  C_19
REMARK    8  A    between atoms: N_21  and  C_22
REMARK                            x       y       z     vdW  Elec       q    Type
REMARK                         _______ _______ _______ _____ _____    ______ ____
ROOT
ATOM      1  C   UNL     1      -1.744  14.621  20.519  0.00  0.00    +0.000 C 
ATOM      2  O   UNL     1      -2.236  15.575  21.138  0.00  0.00    +0.000 OA
ATOM      3  N   UNL     1      -2.116  13.311  20.787  0.00  0.00    +0.000 N 
ATOM      4  C   UNL     1      -3.196  13.054  21.743  0.00  0.00    +0.000 C 
ATOM      5  C   UNL     1      -2.617  12.753  23.117  0.00  0.00    +0.000 C 
ATOM      6  C   UNL     1      -1.675  11.557  23.029  0.00  0.00    +0.000 C 
ATOM      7  C   UNL     1      -0.599  11.750  21.950  0.00  0.00    +0.000 C 
ATOM      8  C   UNL     1      -1.190  12.200  20.603  0.00  0.00    +0.000 C 
ENDROOT
BRANCH   7   9
ATOM      9  C   UNL     1       0.143  10.492  21.759  0.00  0.00    +0.000 A 
ATOM     10  C   UNL     1       0.295   9.646  20.699  0.00  0.00    +0.000 A 
ATOM     11  C   UNL     1       1.138   8.625  21.192  0.00  0.00    +0.000 A 
ATOM     12  N   UNL     1       1.469   8.832  22.480  0.00  0.00    +0.000 NA
ATOM     13  O   UNL     1       0.827  10.005  22.831  0.00  0.00    +0.000 OA
BRANCH  11  14
ATOM     14  C   UNL     1       1.591   7.493  20.428  0.00  0.00    +0.000 C 
ATOM     15  O   UNL     1       2.080   7.694  19.311  0.00  0.00    +0.000 OA
ATOM     16  N   UNL     1       1.409   6.269  21.017  0.00  0.00    +0.000 N 
ATOM     17  H   UNL     1       0.919   6.268  21.913  0.00  0.00    +0.000 HD
BRANCH  16  18
ATOM     18  C   UNL     1       1.909   5.052  20.528  0.00  0.00    +0.000 A 
ATOM     19  C   UNL     1       1.083   3.918  20.368  0.00  0.00    +0.000 A 
ATOM     20  C   UNL     1       1.492   2.842  19.570  0.00  0.00    +0.000 A 
ATOM     21  C   UNL     1       2.722   2.956  19.000  0.00  0.00    +0.000 A 
ATOM     22  C   UNL     1       3.608   3.964  19.332  0.00  0.00    +0.000 A 
ATOM     23  C   UNL     1       3.222   5.056  20.074  0.00  0.00    +0.000 A 
ATOM     24  O   UNL     1       4.744   3.920  18.577  0.00  0.00    +0.000 OA
ATOM     25  C   UNL     1       4.156   3.255  17.449  0.00  0.00    +0.000 C 
ATOM     26  O   UNL     1       3.144   2.309  17.869  0.00  0.00    +0.000 OA
ENDBRANCH  16  18
ENDBRANCH  11  14
ENDBRANCH   7   9
BRANCH   1  27
ATOM     27  C   UNL     1      -0.761  14.858  19.376  0.00  0.00    +0.000 C 
BRANCH  27  31
ATOM     28  C   UNL     1       3.333  16.096  20.294  0.00  0.00    +0.000 A 
ATOM     29  C   UNL     1       2.449  16.913  19.576  0.00  0.00    +0.000 A 
ATOM     30  C   UNL     1       1.131  16.517  19.302  0.00  0.00    +0.000 A 
ATOM     31  C   UNL     1       0.633  15.292  19.765  0.00  0.00    +0.000 A 
ATOM     32  C   UNL     1       1.458  14.530  20.597  0.00  0.00    +0.000 A 
ATOM     33  C   UNL     1       2.782  14.926  20.840  0.00  0.00    +0.000 A 
BRANCH  28  35
ATOM     34  C   UNL     1       5.074  17.836  20.450  0.00  0.00    +0.000 C 
ATOM     35  N   UNL     1       4.686  16.427  20.470  0.00  0.00    +0.000 N 
ATOM     36  C   UNL     1       5.660  15.478  19.930  0.00  0.00    +0.000 C 
ENDBRANCH  28  35
ENDBRANCH  27  31
ENDBRANCH   1  27
TORSDOF 6
ENDMDL
