MODEL 1
REMARK VINA RESULT:      -6.6      0.000      0.000
REMARK  Name = 
REMARK  5 active torsions:
REMARK  status: ('A' for Active; 'I' for Inactive)
REMARK    1  A    between atoms: C_1  and  C_2
REMARK    2  A    between atoms: C_6  and  C_7
REMARK    3  A    between atoms: C_13  and  C_14
REMARK    4  A    between atoms: N_18  and  C_19
REMARK    5  A    between atoms: C_19  and  C_20
REMARK                            x       y       z     vdW  Elec       q    Type
REMARK                         _______ _______ _______ _____ _____    ______ ____
ROOT
ATOM      1  C   UNL     1       5.836   4.824  17.267  0.00  0.00    +0.000 C 
ATOM      2  O   UNL     1       6.105   4.096  16.308  0.00  0.00    +0.000 OA
ATOM      3  N   UNL     1       4.682   4.571  18.017  0.00  0.00    +0.000 N 
ATOM      4  C   UNL     1       3.957   3.314  17.829  0.00  0.00    +0.000 C 
ATOM      5  C   UNL     1       2.495   3.560  17.462  0.00  0.00    +0.000 C 
ATOM      6  C   UNL     1       1.813   4.494  18.467  0.00  0.00    +0.000 C 
ATOM      7  C   UNL     1       2.592   5.807  18.585  0.00  0.00    +0.000 C 
ATOM      8  C   UNL     1       4.057   5.510  18.942  0.00  0.00    +0.000 C 
ENDROOT
BRANCH   1  14
ATOM      9  C   UNL     1       8.090   5.319  19.729  0.00  0.00    +0.000 C 
ATOM     10  C   UNL     1       7.635   6.191  18.613  0.00  0.00    +0.000 A 
ATOM     11  N   UNL     1       8.241   7.445  18.532  0.00  0.00    +0.000 NA
ATOM     12  N   UNL     1       7.823   8.136  17.488  0.00  0.00    +0.000 NA
ATOM     13  S   UNL     1       6.701   7.311  16.575  0.00  0.00    +0.000 S 
ATOM     14  C   UNL     1       6.693   5.940  17.618  0.00  0.00    +0.000 A 
ENDBRANCH   1  14
BRANCH   7  15
ATOM     15  C   UNL     1       2.006   6.716  19.630  0.00  0.00    +0.000 A 
ATOM     16  N   UNL     1       1.658   6.329  20.843  0.00  0.00    +0.000 NA
ATOM     17  C   UNL     1       1.209   7.447  21.489  0.00  0.00    +0.000 A 
ATOM     18  C   UNL     1       1.273   8.536  20.659  0.00  0.00    +0.000 A 
ATOM     19  N   UNL     1       1.794   8.070  19.477  0.00  0.00    +0.000 N 
BRANCH  19  20
ATOM     20  C   UNL     1       1.932   8.860  18.260  0.00  0.00    +0.000 C 
BRANCH  20  21
ATOM     21  C   UNL     1       1.162  10.140  18.323  0.00  0.00    +0.000 A 
ATOM     22  C   UNL     1       1.665  11.397  18.616  0.00  0.00    +0.000 A 
ATOM     23  S   UNL     1       0.398  12.552  18.676  0.00  0.00    +0.000 S 
ATOM     24  C   UNL     1      -0.723  11.310  18.307  0.00  0.00    +0.000 A 
ATOM     25  N   UNL     1      -0.219  10.103  18.147  0.00  0.00    +0.000 NA
ENDBRANCH  20  21
ENDBRANCH  19  20
ENDBRANCH   7  15
TORSDOF 4
ENDMDL
MODEL 2
REMARK VINA RESULT:      -6.3      6.572     11.041
REMARK  Name = 
REMARK  5 active torsions:
REMARK  status: ('A' for Active; 'I' for Inactive)
REMARK    1  A    between atoms: C_1  and  C_2
REMARK    2  A    between atoms: C_6  and  C_7
REMARK    3  A    between atoms: C_13  and  C_14
REMARK    4  A    between atoms: N_18  and  C_19
REMARK    5  A    between atoms: C_19  and  C_20
REMARK                            x       y       z     vdW  Elec       q    Type
REMARK                         _______ _______ _______ _____ _____    ______ ____
ROOT
ATOM      1  C   UNL     1      -4.796  14.345  22.748  0.00  0.00    +0.000 C 
ATOM      2  O   UNL     1      -5.123  15.524  22.590  0.00  0.00    +0.000 OA
ATOM      3  N   UNL     1      -3.490  14.044  23.154  0.00  0.00    +0.000 N 
ATOM      4  C   UNL     1      -2.618  15.115  23.636  0.00  0.00    +0.000 C 
ATOM      5  C   UNL     1      -1.318  15.181  22.836  0.00  0.00    +0.000 C 
ATOM      6  C   UNL     1      -0.618  13.820  22.788  0.00  0.00    +0.000 C 
ATOM      7  C   UNL     1      -1.567  12.753  22.233  0.00  0.00    +0.000 C 
ATOM      8  C   UNL     1      -2.862  12.731  23.060  0.00  0.00    +0.000 C 
ENDROOT
BRANCH   1  14
ATOM      9  C   UNL     1      -5.444  12.395  20.072  0.00  0.00    +0.000 C 
ATOM     10  C   UNL     1      -6.044  12.440  21.432  0.00  0.00    +0.000 A 
ATOM     11  N   UNL     1      -7.052  11.510  21.686  0.00  0.00    +0.000 NA
ATOM     12  N   UNL     1      -7.494  11.579  22.928  0.00  0.00    +0.000 NA
ATOM     13  S   UNL     1      -6.721  12.750  23.826  0.00  0.00    +0.000 S 
ATOM     14  C   UNL     1      -5.741  13.272  22.508  0.00  0.00    +0.000 A 
ENDBRANCH   1  14
BRANCH   7  15
ATOM     15  C   UNL     1      -0.947  11.384  22.254  0.00  0.00    +0.000 A 
ATOM     16  N   UNL     1      -0.600  10.740  23.353  0.00  0.00    +0.000 NA
ATOM     17  C   UNL     1      -0.115   9.527  22.951  0.00  0.00    +0.000 A 
ATOM     18  C   UNL     1      -0.154   9.426  21.585  0.00  0.00    +0.000 A 
ATOM     19  N   UNL     1      -0.697  10.607  21.143  0.00  0.00    +0.000 N 
BRANCH  19  20
ATOM     20  C   UNL     1      -0.822  10.991  19.742  0.00  0.00    +0.000 C 
BRANCH  20  21
ATOM     21  C   UNL     1       0.407  11.667  19.225  0.00  0.00    +0.000 A 
ATOM     22  C   UNL     1       0.684  13.025  19.262  0.00  0.00    +0.000 A 
ATOM     23  S   UNL     1       2.163  13.357  18.460  0.00  0.00    +0.000 S 
ATOM     24  C   UNL     1       2.333  11.685  18.126  0.00  0.00    +0.000 A 
ATOM     25  N   UNL     1       1.367  10.905  18.566  0.00  0.00    +0.000 NA
ENDBRANCH  20  21
ENDBRANCH  19  20
ENDBRANCH   7  15
TORSDOF 4
ENDMDL
MODEL 3
REMARK VINA RESULT:      -6.1      6.868     11.041
REMARK  Name = 
REMARK  5 active torsions:
REMARK  status: ('A' for Active; 'I' for Inactive)
REMARK    1  A    between atoms: C_1  and  C_2
REMARK    2  A    between atoms: C_6  and  C_7
REMARK    3  A    between atoms: C_13  and  C_14
REMARK    4  A    between atoms: N_18  and  C_19
REMARK    5  A    between atoms: C_19  and  C_20
REMARK                            x       y       z     vdW  Elec       q    Type
REMARK                         _______ _______ _______ _____ _____    ______ ____
ROOT
ATOM      1  C   UNL     1      -4.864  14.276  22.290  0.00  0.00    +0.000 C 
ATOM      2  O   UNL     1      -5.207  15.436  22.049  0.00  0.00    +0.000 OA
ATOM      3  N   UNL     1      -3.569  14.028  22.763  0.00  0.00    +0.000 N 
ATOM      4  C   UNL     1      -2.737  15.144  23.212  0.00  0.00    +0.000 C 
ATOM      5  C   UNL     1      -1.409  15.191  22.459  0.00  0.00    +0.000 C 
ATOM      6  C   UNL     1      -0.681  13.844  22.520  0.00  0.00    +0.000 C 
ATOM      7  C   UNL     1      -1.587  12.726  21.995  0.00  0.00    +0.000 C 
ATOM      8  C   UNL     1      -2.913  12.726  22.772  0.00  0.00    +0.000 C 
ENDROOT
BRANCH   1  14
ATOM      9  C   UNL     1      -7.410  13.009  24.104  0.00  0.00    +0.000 C 
ATOM     10  C   UNL     1      -6.839  12.613  22.789  0.00  0.00    +0.000 A 
ATOM     11  N   UNL     1      -7.453  11.533  22.157  0.00  0.00    +0.000 NA
ATOM     12  N   UNL     1      -6.924  11.278  20.975  0.00  0.00    +0.000 NA
ATOM     13  S   UNL     1      -5.683  12.318  20.585  0.00  0.00    +0.000 S 
ATOM     14  C   UNL     1      -5.778  13.170  22.079  0.00  0.00    +0.000 A 
ENDBRANCH   1  14
BRANCH   7  15
ATOM     15  C   UNL     1      -0.942  11.374  22.123  0.00  0.00    +0.000 A 
ATOM     16  N   UNL     1      -0.552  10.840  23.266  0.00  0.00    +0.000 NA
ATOM     17  C   UNL     1      -0.056   9.603  22.962  0.00  0.00    +0.000 A 
ATOM     18  C   UNL     1      -0.133   9.375  21.612  0.00  0.00    +0.000 A 
ATOM     19  N   UNL     1      -0.710  10.502  21.081  0.00  0.00    +0.000 N 
BRANCH  19  20
ATOM     20  C   UNL     1      -0.883  10.754  19.655  0.00  0.00    +0.000 C 
BRANCH  20  21
ATOM     21  C   UNL     1       0.186  11.640  19.100  0.00  0.00    +0.000 A 
ATOM     22  C   UNL     1       1.512  11.303  18.881  0.00  0.00    +0.000 A 
ATOM     23  S   UNL     1       2.395  12.667  18.331  0.00  0.00    +0.000 S 
ATOM     24  C   UNL     1       0.963  13.603  18.418  0.00  0.00    +0.000 A 
ATOM     25  N   UNL     1      -0.118  12.971  18.830  0.00  0.00    +0.000 NA
ENDBRANCH  20  21
ENDBRANCH  19  20
ENDBRANCH   7  15
TORSDOF 4
ENDMDL
MODEL 4
REMARK VINA RESULT:      -6.1      1.496      1.774
REMARK  Name = 
REMARK  5 active torsions:
REMARK  status: ('A' for Active; 'I' for Inactive)
REMARK    1  A    between atoms: C_1  and  C_2
REMARK    2  A    between atoms: C_6  and  C_7
REMARK    3  A    between atoms: C_13  and  C_14
REMARK    4  A    between atoms: N_18  and  C_19
REMARK    5  A    between atoms: C_19  and  C_20
REMARK                            x       y       z     vdW  Elec       q    Type
REMARK                         _______ _______ _______ _____ _____    ______ ____
ROOT
ATOM      1  C   UNL     1       4.554   4.601  18.219  0.00  0.00    +0.000 C 
ATOM      2  O   UNL     1       4.532   3.541  17.588  0.00  0.00    +0.000 OA
ATOM      3  N   UNL     1       3.640   4.797  19.260  0.00  0.00    +0.000 N 
ATOM      4  C   UNL     1       2.856   3.667  19.758  0.00  0.00    +0.000 C 
ATOM      5  C   UNL     1       1.357   3.950  19.686  0.00  0.00    +0.000 C 
ATOM      6  C   UNL     1       1.000   5.270  20.376  0.00  0.00    +0.000 C 
ATOM      7  C   UNL     1       1.819   6.420  19.780  0.00  0.00    +0.000 C 
ATOM      8  C   UNL     1       3.317   6.086  19.863  0.00  0.00    +0.000 C 
ENDROOT
BRANCH   1  14
ATOM      9  C   UNL     1       7.521   5.520  19.534  0.00  0.00    +0.000 C 
ATOM     10  C   UNL     1       6.735   6.060  18.393  0.00  0.00    +0.000 A 
ATOM     11  N   UNL     1       7.307   7.134  17.711  0.00  0.00    +0.000 NA
ATOM     12  N   UNL     1       6.574   7.520  16.683  0.00  0.00    +0.000 NA
ATOM     13  S   UNL     1       5.189   6.614  16.499  0.00  0.00    +0.000 S 
ATOM     14  C   UNL     1       5.505   5.644  17.888  0.00  0.00    +0.000 A 
ENDBRANCH   1  14
BRANCH   7  15
ATOM     15  C   UNL     1       1.564   7.719  20.492  0.00  0.00    +0.000 A 
ATOM     16  N   UNL     1       1.591   7.868  21.803  0.00  0.00    +0.000 NA
ATOM     17  C   UNL     1       1.350   9.191  22.045  0.00  0.00    +0.000 A 
ATOM     18  C   UNL     1       1.162   9.866  20.866  0.00  0.00    +0.000 A 
ATOM     19  N   UNL     1       1.312   8.927  19.876  0.00  0.00    +0.000 N 
BRANCH  19  20
ATOM     20  C   UNL     1       1.082   9.171  18.457  0.00  0.00    +0.000 C 
BRANCH  20  21
ATOM     21  C   UNL     1      -0.045  10.125  18.220  0.00  0.00    +0.000 A 
ATOM     22  C   UNL     1      -1.253   9.844  17.601  0.00  0.00    +0.000 A 
ATOM     23  S   UNL     1      -2.198  11.268  17.456  0.00  0.00    +0.000 S 
ATOM     24  C   UNL     1      -0.947  12.152  18.223  0.00  0.00    +0.000 A 
ATOM     25  N   UNL     1       0.119  11.461  18.574  0.00  0.00    +0.000 NA
ENDBRANCH  20  21
ENDBRANCH  19  20
ENDBRANCH   7  15
TORSDOF 4
ENDMDL
MODEL 5
REMARK VINA RESULT:      -6.0      2.302      3.014
REMARK  Name = 
REMARK  5 active torsions:
REMARK  status: ('A' for Active; 'I' for Inactive)
REMARK    1  A    between atoms: C_1  and  C_2
REMARK    2  A    between atoms: C_6  and  C_7
REMARK    3  A    between atoms: C_13  and  C_14
REMARK    4  A    between atoms: N_18  and  C_19
REMARK    5  A    between atoms: C_19  and  C_20
REMARK                            x       y       z     vdW  Elec       q    Type
REMARK                         _______ _______ _______ _____ _____    ______ ____
ROOT
ATOM      1  C   UNL     1       4.883   3.855  18.986  0.00  0.00    +0.000 C 
ATOM      2  O   UNL     1       4.845   2.642  19.208  0.00  0.00    +0.000 OA
ATOM      3  N   UNL     1       4.041   4.711  19.706  0.00  0.00    +0.000 N 
ATOM      4  C   UNL     1       3.327   4.205  20.878  0.00  0.00    +0.000 C 
ATOM      5  C   UNL     1       1.819   4.411  20.746  0.00  0.00    +0.000 C 
ATOM      6  C   UNL     1       1.476   5.868  20.424  0.00  0.00    +0.000 C 
ATOM      7  C   UNL     1       2.218   6.323  19.164  0.00  0.00    +0.000 C 
ATOM      8  C   UNL     1       3.727   6.086  19.337  0.00  0.00    +0.000 C 
ENDROOT
BRANCH   1  14
ATOM      9  C   UNL     1       7.708   5.691  19.170  0.00  0.00    +0.000 C 
ATOM     10  C   UNL     1       6.950   5.155  18.008  0.00  0.00    +0.000 A 
ATOM     11  N   UNL     1       7.484   5.432  16.750  0.00  0.00    +0.000 NA
ATOM     12  N   UNL     1       6.785   4.879  15.777  0.00  0.00    +0.000 NA
ATOM     13  S   UNL     1       5.475   4.014  16.333  0.00  0.00    +0.000 S 
ATOM     14  C   UNL     1       5.779   4.400  17.985  0.00  0.00    +0.000 A 
ENDBRANCH   1  14
BRANCH   7  15
ATOM     15  C   UNL     1       1.979   7.776  18.865  0.00  0.00    +0.000 A 
ATOM     16  N   UNL     1       2.156   8.333  17.680  0.00  0.00    +0.000 NA
ATOM     17  C   UNL     1       1.798   9.645  17.815  0.00  0.00    +0.000 A 
ATOM     18  C   UNL     1       1.404   9.903  19.102  0.00  0.00    +0.000 A 
ATOM     19  N   UNL     1       1.508   8.707  19.767  0.00  0.00    +0.000 N 
BRANCH  19  20
ATOM     20  C   UNL     1       1.301   8.531  21.199  0.00  0.00    +0.000 C 
BRANCH  20  21
ATOM     21  C   UNL     1       0.488   9.635  21.796  0.00  0.00    +0.000 A 
ATOM     22  C   UNL     1      -0.556   9.502  22.698  0.00  0.00    +0.000 A 
ATOM     23  S   UNL     1      -1.263  11.029  23.028  0.00  0.00    +0.000 S 
ATOM     24  C   UNL     1      -0.138  11.757  21.960  0.00  0.00    +0.000 A 
ATOM     25  N   UNL     1       0.718  10.942  21.377  0.00  0.00    +0.000 NA
ENDBRANCH  20  21
ENDBRANCH  19  20
ENDBRANCH   7  15
TORSDOF 4
ENDMDL
MODEL 6
REMARK VINA RESULT:      -6.0      6.299      8.648
REMARK  Name = 
REMARK  5 active torsions:
REMARK  status: ('A' for Active; 'I' for Inactive)
REMARK    1  A    between atoms: C_1  and  C_2
REMARK    2  A    between atoms: C_6  and  C_7
REMARK    3  A    between atoms: C_13  and  C_14
REMARK    4  A    between atoms: N_18  and  C_19
REMARK    5  A    between atoms: C_19  and  C_20
REMARK                            x       y       z     vdW  Elec       q    Type
REMARK                         _______ _______ _______ _____ _____    ______ ____
ROOT
ATOM      1  C   UNL     1      -0.478  10.399  18.691  0.00  0.00    +0.000 C 
ATOM      2  O   UNL     1       0.523  10.300  17.978  0.00  0.00    +0.000 OA
ATOM      3  N   UNL     1      -1.746  10.229  18.122  0.00  0.00    +0.000 N 
ATOM      4  C   UNL     1      -1.864   9.685  16.769  0.00  0.00    +0.000 C 
ATOM      5  C   UNL     1      -2.645  10.626  15.854  0.00  0.00    +0.000 C 
ATOM      6  C   UNL     1      -3.998  11.007  16.462  0.00  0.00    +0.000 C 
ATOM      7  C   UNL     1      -3.803  11.612  17.856  0.00  0.00    +0.000 C 
ATOM      8  C   UNL     1      -3.004  10.637  18.736  0.00  0.00    +0.000 C 
ENDROOT
BRANCH   1  14
ATOM      9  C   UNL     1      -0.205   8.468  21.444  0.00  0.00    +0.000 C 
ATOM     10  C   UNL     1      -0.240   9.944  21.271  0.00  0.00    +0.000 A 
ATOM     11  N   UNL     1      -0.127  10.699  22.438  0.00  0.00    +0.000 NA
ATOM     12  N   UNL     1      -0.112  11.997  22.195  0.00  0.00    +0.000 NA
ATOM     13  S   UNL     1      -0.231  12.352  20.573  0.00  0.00    +0.000 S 
ATOM     14  C   UNL     1      -0.358  10.698  20.105  0.00  0.00    +0.000 A 
ENDBRANCH   1  14
BRANCH   7  15
ATOM     15  C   UNL     1      -5.115  11.916  18.524  0.00  0.00    +0.000 A 
ATOM     16  N   UNL     1      -6.268  11.371  18.184  0.00  0.00    +0.000 NA
ATOM     17  C   UNL     1      -7.200  11.874  19.047  0.00  0.00    +0.000 A 
ATOM     18  C   UNL     1      -6.615  12.749  19.926  0.00  0.00    +0.000 A 
ATOM     19  N   UNL     1      -5.282  12.764  19.598  0.00  0.00    +0.000 N 
BRANCH  19  20
ATOM     20  C   UNL     1      -4.289  13.648  20.197  0.00  0.00    +0.000 C 
BRANCH  20  21
ATOM     21  C   UNL     1      -4.277  13.562  21.689  0.00  0.00    +0.000 A 
ATOM     22  C   UNL     1      -4.617  14.568  22.580  0.00  0.00    +0.000 A 
ATOM     23  S   UNL     1      -4.354  14.053  24.195  0.00  0.00    +0.000 S 
ATOM     24  C   UNL     1      -3.814  12.539  23.602  0.00  0.00    +0.000 A 
ATOM     25  N   UNL     1      -3.815  12.396  22.292  0.00  0.00    +0.000 NA
ENDBRANCH  20  21
ENDBRANCH  19  20
ENDBRANCH   7  15
TORSDOF 4
ENDMDL
MODEL 7
REMARK VINA RESULT:      -6.0      1.656      2.086
REMARK  Name = 
REMARK  5 active torsions:
REMARK  status: ('A' for Active; 'I' for Inactive)
REMARK    1  A    between atoms: C_1  and  C_2
REMARK    2  A    between atoms: C_6  and  C_7
REMARK    3  A    between atoms: C_13  and  C_14
REMARK    4  A    between atoms: N_18  and  C_19
REMARK    5  A    between atoms: C_19  and  C_20
REMARK                            x       y       z     vdW  Elec       q    Type
REMARK                         _______ _______ _______ _____ _____    ______ ____
ROOT
ATOM      1  C   UNL     1       4.669   4.513  18.094  0.00  0.00    +0.000 C 
ATOM      2  O   UNL     1       4.650   3.482  17.417  0.00  0.00    +0.000 OA
ATOM      3  N   UNL     1       3.725   4.680  19.114  0.00  0.00    +0.000 N 
ATOM      4  C   UNL     1       2.909   3.543  19.538  0.00  0.00    +0.000 C 
ATOM      5  C   UNL     1       1.417   3.855  19.432  0.00  0.00    +0.000 C 
ATOM      6  C   UNL     1       1.060   5.150  20.167  0.00  0.00    +0.000 C 
ATOM      7  C   UNL     1       1.915   6.310  19.647  0.00  0.00    +0.000 C 
ATOM      8  C   UNL     1       3.404   5.947  19.762  0.00  0.00    +0.000 C 
ENDROOT
BRANCH   1  14
ATOM      9  C   UNL     1       4.833   7.025  15.848  0.00  0.00    +0.000 C 
ATOM     10  C   UNL     1       5.759   6.607  16.934  0.00  0.00    +0.000 A 
ATOM     11  N   UNL     1       6.908   7.381  17.090  0.00  0.00    +0.000 NA
ATOM     12  N   UNL     1       7.649   6.978  18.106  0.00  0.00    +0.000 NA
ATOM     13  S   UNL     1       6.997   5.670  18.902  0.00  0.00    +0.000 S 
ATOM     14  C   UNL     1       5.646   5.553  17.838  0.00  0.00    +0.000 A 
ENDBRANCH   1  14
BRANCH   7  15
ATOM     15  C   UNL     1       1.658   7.581  20.406  0.00  0.00    +0.000 A 
ATOM     16  N   UNL     1       1.704   7.686  21.722  0.00  0.00    +0.000 NA
ATOM     17  C   UNL     1       1.453   8.998  22.012  0.00  0.00    +0.000 A 
ATOM     18  C   UNL     1       1.241   9.710  20.860  0.00  0.00    +0.000 A 
ATOM     19  N   UNL     1       1.385   8.807  19.836  0.00  0.00    +0.000 N 
BRANCH  19  20
ATOM     20  C   UNL     1       1.131   9.097  18.430  0.00  0.00    +0.000 C 
BRANCH  20  21
ATOM     21  C   UNL     1       0.035  10.098  18.244  0.00  0.00    +0.000 A 
ATOM     22  C   UNL     1      -1.213   9.867  17.690  0.00  0.00    +0.000 A 
ATOM     23  S   UNL     1      -2.103  11.329  17.584  0.00  0.00    +0.000 S 
ATOM     24  C   UNL     1      -0.777  12.161  18.281  0.00  0.00    +0.000 A 
ATOM     25  N   UNL     1       0.275  11.427  18.581  0.00  0.00    +0.000 NA
ENDBRANCH  20  21
ENDBRANCH  19  20
ENDBRANCH   7  15
TORSDOF 4
ENDMDL
MODEL 8
REMARK VINA RESULT:      -6.0      6.832      8.978
REMARK  Name = 
REMARK  5 active torsions:
REMARK  status: ('A' for Active; 'I' for Inactive)
REMARK    1  A    between atoms: C_1  and  C_2
REMARK    2  A    between atoms: C_6  and  C_7
REMARK    3  A    between atoms: C_13  and  C_14
REMARK    4  A    between atoms: N_18  and  C_19
REMARK    5  A    between atoms: C_19  and  C_20
REMARK                            x       y       z     vdW  Elec       q    Type
REMARK                         _______ _______ _______ _____ _____    ______ ____
ROOT
ATOM      1  C   UNL     1      -0.441  10.730  19.116  0.00  0.00    +0.000 C 
ATOM      2  O   UNL     1       0.586  10.724  18.433  0.00  0.00    +0.000 OA
ATOM      3  N   UNL     1      -1.674  10.470  18.505  0.00  0.00    +0.000 N 
ATOM      4  C   UNL     1      -1.707   9.943  17.141  0.00  0.00    +0.000 C 
ATOM      5  C   UNL     1      -2.533  10.836  16.216  0.00  0.00    +0.000 C 
ATOM      6  C   UNL     1      -3.930  11.097  16.788  0.00  0.00    +0.000 C 
ATOM      7  C   UNL     1      -3.826  11.689  18.197  0.00  0.00    +0.000 C 
ATOM      8  C   UNL     1      -2.979  10.765  19.085  0.00  0.00    +0.000 C 
ENDROOT
BRANCH   1  14
ATOM      9  C   UNL     1      -0.710  13.568  20.919  0.00  0.00    +0.000 C 
ATOM     10  C   UNL     1      -0.495  12.155  21.327  0.00  0.00    +0.000 A 
ATOM     11  N   UNL     1      -0.396  11.922  22.698  0.00  0.00    +0.000 NA
ATOM     12  N   UNL     1      -0.260  10.639  22.979  0.00  0.00    +0.000 NA
ATOM     13  S   UNL     1      -0.248   9.677  21.620  0.00  0.00    +0.000 S 
ATOM     14  C   UNL     1      -0.387  11.011  20.538  0.00  0.00    +0.000 A 
ENDBRANCH   1  14
BRANCH   7  15
ATOM     15  C   UNL     1      -5.177  11.876  18.828  0.00  0.00    +0.000 A 
ATOM     16  N   UNL     1      -6.242  11.151  18.539  0.00  0.00    +0.000 NA
ATOM     17  C   UNL     1      -7.247  11.604  19.346  0.00  0.00    +0.000 A 
ATOM     18  C   UNL     1      -6.798  12.629  20.139  0.00  0.00    +0.000 A 
ATOM     19  N   UNL     1      -5.474  12.792  19.815  0.00  0.00    +0.000 N 
BRANCH  19  20
ATOM     20  C   UNL     1      -4.618  13.854  20.330  0.00  0.00    +0.000 C 
BRANCH  20  21
ATOM     21  C   UNL     1      -4.363  13.719  21.797  0.00  0.00    +0.000 A 
ATOM     22  C   UNL     1      -4.006  12.564  22.474  0.00  0.00    +0.000 A 
ATOM     23  S   UNL     1      -3.922  12.858  24.161  0.00  0.00    +0.000 S 
ATOM     24  C   UNL     1      -4.360  14.490  23.877  0.00  0.00    +0.000 A 
ATOM     25  N   UNL     1      -4.566  14.824  22.619  0.00  0.00    +0.000 NA
ENDBRANCH  20  21
ENDBRANCH  19  20
ENDBRANCH   7  15
TORSDOF 4
ENDMDL
MODEL 9
REMARK VINA RESULT:      -5.9      1.229      1.568
REMARK  Name = 
REMARK  5 active torsions:
REMARK  status: ('A' for Active; 'I' for Inactive)
REMARK    1  A    between atoms: C_1  and  C_2
REMARK    2  A    between atoms: C_6  and  C_7
REMARK    3  A    between atoms: C_13  and  C_14
REMARK    4  A    between atoms: N_18  and  C_19
REMARK    5  A    between atoms: C_19  and  C_20
REMARK                            x       y       z     vdW  Elec       q    Type
REMARK                         _______ _______ _______ _____ _____    ______ ____
ROOT
ATOM      1  C   UNL     1       5.107   4.103  17.055  0.00  0.00    +0.000 C 
ATOM      2  O   UNL     1       5.185   3.230  16.187  0.00  0.00    +0.000 OA
ATOM      3  N   UNL     1       4.123   4.001  18.045  0.00  0.00    +0.000 N 
ATOM      4  C   UNL     1       3.378   2.751  18.199  0.00  0.00    +0.000 C 
ATOM      5  C   UNL     1       1.872   2.979  18.090  0.00  0.00    +0.000 C 
ATOM      6  C   UNL     1       1.399   4.075  19.049  0.00  0.00    +0.000 C 
ATOM      7  C   UNL     1       2.183   5.369  18.808  0.00  0.00    +0.000 C 
ATOM      8  C   UNL     1       3.690   5.088  18.916  0.00  0.00    +0.000 C 
ENDROOT
BRANCH   1  14
ATOM      9  C   UNL     1       4.978   7.164  15.642  0.00  0.00    +0.000 C 
ATOM     10  C   UNL     1       6.006   6.511  16.495  0.00  0.00    +0.000 A 
ATOM     11  N   UNL     1       7.128   7.281  16.797  0.00  0.00    +0.000 NA
ATOM     12  N   UNL     1       7.966   6.651  17.600  0.00  0.00    +0.000 NA
ATOM     13  S   UNL     1       7.439   5.127  18.017  0.00  0.00    +0.000 S 
ATOM     14  C   UNL     1       6.014   5.235  17.055  0.00  0.00    +0.000 A 
ENDBRANCH   1  14
BRANCH   7  15
ATOM     15  C   UNL     1       1.811   6.443  19.791  0.00  0.00    +0.000 A 
ATOM     16  N   UNL     1       1.478   6.219  21.049  0.00  0.00    +0.000 NA
ATOM     17  C   UNL     1       1.251   7.443  21.611  0.00  0.00    +0.000 A 
ATOM     18  C   UNL     1       1.438   8.436  20.684  0.00  0.00    +0.000 A 
ATOM     19  N   UNL     1       1.807   7.796  19.527  0.00  0.00    +0.000 N 
BRANCH  19  20
ATOM     20  C   UNL     1       1.997   8.451  18.239  0.00  0.00    +0.000 C 
BRANCH  20  21
ATOM     21  C   UNL     1       1.477   9.854  18.232  0.00  0.00    +0.000 A 
ATOM     22  C   UNL     1       2.231  11.017  18.238  0.00  0.00    +0.000 A 
ATOM     23  S   UNL     1       1.210  12.392  18.332  0.00  0.00    +0.000 S 
ATOM     24  C   UNL     1      -0.152  11.354  18.354  0.00  0.00    +0.000 A 
ATOM     25  N   UNL     1       0.103  10.062  18.300  0.00  0.00    +0.000 NA
ENDBRANCH  20  21
ENDBRANCH  19  20
ENDBRANCH   7  15
TORSDOF 4
ENDMDL
