MODEL 1
REMARK VINA RESULT:      -6.8      0.000      0.000
REMARK  Name = 
REMARK  6 active torsions:
REMARK  status: ('A' for Active; 'I' for Inactive)
REMARK    1  A    between atoms: C_1  and  C_2
REMARK    2  A    between atoms: C_2  and  O_4
REMARK    3  A    between atoms: O_4  and  C_5
REMARK    4  A    between atoms: C_5  and  C_6
REMARK    5  A    between atoms: N_8  and  C_9
REMARK    6  A    between atoms: C_12  and  N_13
REMARK                            x       y       z     vdW  Elec       q    Type
REMARK                         _______ _______ _______ _____ _____    ______ ____
ROOT
ATOM      1  C   UNL     1       5.077   4.131  18.076  0.00  0.00    +0.000 A 
ATOM      2  C   UNL     1       6.440   4.449  18.036  0.00  0.00    +0.000 A 
ATOM      3  C   UNL     1       7.098   4.664  16.823  0.00  0.00    +0.000 A 
ATOM      4  C   UNL     1       6.393   4.546  15.624  0.00  0.00    +0.000 A 
ATOM      5  C   UNL     1       5.037   4.200  15.630  0.00  0.00    +0.000 A 
ATOM      6  C   UNL     1       4.390   3.989  16.854  0.00  0.00    +0.000 A 
ATOM      7 CL   UNL     1       2.708   3.580  16.825  0.00  0.00    +0.000 Cl
ENDROOT
BRANCH   1  10
ATOM      8  C   UNL     1       3.947   2.709  19.792  0.00  0.00    +0.000 C 
ATOM      9  O   UNL     1       4.201   1.612  19.299  0.00  0.00    +0.000 OA
ATOM     10  N   UNL     1       4.390   3.929  19.302  0.00  0.00    +0.000 N 
ATOM     11  H   UNL     1       4.302   4.748  19.897  0.00  0.00    +0.000 HD
BRANCH   8  12
ATOM     12  C   UNL     1       3.109   2.812  21.071  0.00  0.00    +0.000 C 
BRANCH  12  13
ATOM     13  O   UNL     1       1.810   2.236  20.897  0.00  0.00    +0.000 OA
BRANCH  13  15
ATOM     14  C   UNL     1       0.917   4.351  20.379  0.00  0.00    +0.000 C 
ATOM     15  C   UNL     1       1.027   2.903  20.005  0.00  0.00    +0.000 C 
ATOM     16  O   UNL     1       0.475   2.393  19.040  0.00  0.00    +0.000 OA
ENDBRANCH  13  15
ENDBRANCH  12  13
ENDBRANCH   8  12
ENDBRANCH   1  10
BRANCH   4  17
ATOM     17  N   UNL     1       7.089   4.790  14.355  0.00  0.00    +0.000 N 
ATOM     18  O   UNL     1       8.002   5.625  14.346  0.00  0.00    +0.000 OA
ATOM     19  O   UNL     1       6.721   4.143  13.366  0.00  0.00    +0.000 OA
ENDBRANCH   4  17
TORSDOF 5
ENDMDL
MODEL 2
REMARK VINA RESULT:      -6.7      1.835      2.073
REMARK  Name = 
REMARK  6 active torsions:
REMARK  status: ('A' for Active; 'I' for Inactive)
REMARK    1  A    between atoms: C_1  and  C_2
REMARK    2  A    between atoms: C_2  and  O_4
REMARK    3  A    between atoms: O_4  and  C_5
REMARK    4  A    between atoms: C_5  and  C_6
REMARK    5  A    between atoms: N_8  and  C_9
REMARK    6  A    between atoms: C_12  and  N_13
REMARK                            x       y       z     vdW  Elec       q    Type
REMARK                         _______ _______ _______ _____ _____    ______ ____
ROOT
ATOM      1  C   UNL     1       4.117   5.206  17.134  0.00  0.00    +0.000 A 
ATOM      2  C   UNL     1       4.663   6.337  16.516  0.00  0.00    +0.000 A 
ATOM      3  C   UNL     1       5.592   6.219  15.480  0.00  0.00    +0.000 A 
ATOM      4  C   UNL     1       6.000   4.952  15.058  0.00  0.00    +0.000 A 
ATOM      5  C   UNL     1       5.495   3.802  15.678  0.00  0.00    +0.000 A 
ATOM      6  C   UNL     1       4.562   3.937  16.714  0.00  0.00    +0.000 A 
ATOM      7 CL   UNL     1       3.945   2.494  17.445  0.00  0.00    +0.000 Cl
ENDROOT
BRANCH   1  10
ATOM      8  C   UNL     1       3.432   5.325  19.534  0.00  0.00    +0.000 C 
ATOM      9  O   UNL     1       4.556   5.383  20.029  0.00  0.00    +0.000 OA
ATOM     10  N   UNL     1       3.156   5.310  18.175  0.00  0.00    +0.000 N 
ATOM     11  H   UNL     1       2.199   5.474  17.875  0.00  0.00    +0.000 HD
BRANCH   8  12
ATOM     12  C   UNL     1       2.188   5.300  20.428  0.00  0.00    +0.000 C 
BRANCH  12  13
ATOM     13  O   UNL     1       2.339   4.381  21.515  0.00  0.00    +0.000 OA
BRANCH  13  15
ATOM     14  C   UNL     1       0.834   3.261  20.093  0.00  0.00    +0.000 C 
ATOM     15  C   UNL     1       1.585   3.253  21.390  0.00  0.00    +0.000 C 
ATOM     16  O   UNL     1       1.517   2.362  22.225  0.00  0.00    +0.000 OA
ENDBRANCH  13  15
ENDBRANCH  12  13
ENDBRANCH   8  12
ENDBRANCH   1  10
BRANCH   4  17
ATOM     17  N   UNL     1       6.965   4.838  13.959  0.00  0.00    +0.000 N 
ATOM     18  O   UNL     1       7.976   5.548  13.999  0.00  0.00    +0.000 OA
ATOM     19  O   UNL     1       6.709   4.033  13.053  0.00  0.00    +0.000 OA
ENDBRANCH   4  17
TORSDOF 5
ENDMDL
MODEL 3
REMARK VINA RESULT:      -6.7      1.965      2.416
REMARK  Name = 
REMARK  6 active torsions:
REMARK  status: ('A' for Active; 'I' for Inactive)
REMARK    1  A    between atoms: C_1  and  C_2
REMARK    2  A    between atoms: C_2  and  O_4
REMARK    3  A    between atoms: O_4  and  C_5
REMARK    4  A    between atoms: C_5  and  C_6
REMARK    5  A    between atoms: N_8  and  C_9
REMARK    6  A    between atoms: C_12  and  N_13
REMARK                            x       y       z     vdW  Elec       q    Type
REMARK                         _______ _______ _______ _____ _____    ______ ____
ROOT
ATOM      1  C   UNL     1       5.626   3.938  16.451  0.00  0.00    +0.000 A 
ATOM      2  C   UNL     1       5.150   3.717  15.152  0.00  0.00    +0.000 A 
ATOM      3  C   UNL     1       5.874   4.137  14.034  0.00  0.00    +0.000 A 
ATOM      4  C   UNL     1       7.089   4.803  14.207  0.00  0.00    +0.000 A 
ATOM      5  C   UNL     1       7.576   5.066  15.492  0.00  0.00    +0.000 A 
ATOM      6  C   UNL     1       6.840   4.637  16.604  0.00  0.00    +0.000 A 
ATOM      7 CL   UNL     1       7.482   4.963  18.179  0.00  0.00    +0.000 Cl
ENDROOT
BRANCH   1  10
ATOM      8  C   UNL     1       3.855   4.169  18.198  0.00  0.00    +0.000 C 
ATOM      9  O   UNL     1       3.302   5.170  17.748  0.00  0.00    +0.000 OA
ATOM     10  N   UNL     1       4.912   3.501  17.597  0.00  0.00    +0.000 N 
ATOM     11  H   UNL     1       5.154   2.574  17.938  0.00  0.00    +0.000 HD
BRANCH   8  12
ATOM     12  C   UNL     1       3.372   3.532  19.505  0.00  0.00    +0.000 C 
BRANCH  12  13
ATOM     13  O   UNL     1       2.515   2.412  19.260  0.00  0.00    +0.000 OA
BRANCH  13  15
ATOM     14  C   UNL     1       0.881   3.768  20.274  0.00  0.00    +0.000 C 
ATOM     15  C   UNL     1       1.190   2.726  19.242  0.00  0.00    +0.000 C 
ATOM     16  O   UNL     1       0.361   2.219  18.498  0.00  0.00    +0.000 OA
ENDBRANCH  13  15
ENDBRANCH  12  13
ENDBRANCH   8  12
ENDBRANCH   1  10
BRANCH   4  17
ATOM     17  N   UNL     1       7.849   5.226  13.025  0.00  0.00    +0.000 N 
ATOM     18  O   UNL     1       8.794   6.006  13.193  0.00  0.00    +0.000 OA
ATOM     19  O   UNL     1       7.499   4.775  11.927  0.00  0.00    +0.000 OA
ENDBRANCH   4  17
TORSDOF 5
ENDMDL
MODEL 4
REMARK VINA RESULT:      -6.6      1.723      2.135
REMARK  Name = 
REMARK  6 active torsions:
REMARK  status: ('A' for Active; 'I' for Inactive)
REMARK    1  A    between atoms: C_1  and  C_2
REMARK    2  A    between atoms: C_2  and  O_4
REMARK    3  A    between atoms: O_4  and  C_5
REMARK    4  A    between atoms: C_5  and  C_6
REMARK    5  A    between atoms: N_8  and  C_9
REMARK    6  A    between atoms: C_12  and  N_13
REMARK                            x       y       z     vdW  Elec       q    Type
REMARK                         _______ _______ _______ _____ _____    ______ ____
ROOT
ATOM      1  C   UNL     1       4.053   5.220  17.267  0.00  0.00    +0.000 A 
ATOM      2  C   UNL     1       4.606   6.349  16.649  0.00  0.00    +0.000 A 
ATOM      3  C   UNL     1       5.526   6.226  15.606  0.00  0.00    +0.000 A 
ATOM      4  C   UNL     1       5.918   4.957  15.175  0.00  0.00    +0.000 A 
ATOM      5  C   UNL     1       5.406   3.810  15.792  0.00  0.00    +0.000 A 
ATOM      6  C   UNL     1       4.483   3.948  16.836  0.00  0.00    +0.000 A 
ATOM      7 CL   UNL     1       3.856   2.508  17.565  0.00  0.00    +0.000 Cl
ENDROOT
BRANCH   1  10
ATOM      8  C   UNL     1       3.372   5.207  19.671  0.00  0.00    +0.000 C 
ATOM      9  O   UNL     1       4.494   5.119  20.165  0.00  0.00    +0.000 OA
ATOM     10  N   UNL     1       3.102   5.328  18.316  0.00  0.00    +0.000 N 
ATOM     11  H   UNL     1       2.166   5.605  18.033  0.00  0.00    +0.000 HD
BRANCH   8  12
ATOM     12  C   UNL     1       2.127   5.226  20.563  0.00  0.00    +0.000 C 
BRANCH  12  13
ATOM     13  O   UNL     1       1.039   4.515  19.964  0.00  0.00    +0.000 OA
BRANCH  13  15
ATOM     14  C   UNL     1       0.721   2.368  19.054  0.00  0.00    +0.000 C 
ATOM     15  C   UNL     1       1.011   3.189  20.274  0.00  0.00    +0.000 C 
ATOM     16  O   UNL     1       1.182   2.729  21.395  0.00  0.00    +0.000 OA
ENDBRANCH  13  15
ENDBRANCH  12  13
ENDBRANCH   8  12
ENDBRANCH   1  10
BRANCH   4  17
ATOM     17  N   UNL     1       6.872   4.839  14.067  0.00  0.00    +0.000 N 
ATOM     18  O   UNL     1       6.611   4.040  13.159  0.00  0.00    +0.000 OA
ATOM     19  O   UNL     1       7.887   5.548  14.106  0.00  0.00    +0.000 OA
ENDBRANCH   4  17
TORSDOF 5
ENDMDL
MODEL 5
REMARK VINA RESULT:      -6.6      1.642      1.875
REMARK  Name = 
REMARK  6 active torsions:
REMARK  status: ('A' for Active; 'I' for Inactive)
REMARK    1  A    between atoms: C_1  and  C_2
REMARK    2  A    between atoms: C_2  and  O_4
REMARK    3  A    between atoms: O_4  and  C_5
REMARK    4  A    between atoms: C_5  and  C_6
REMARK    5  A    between atoms: N_8  and  C_9
REMARK    6  A    between atoms: C_12  and  N_13
REMARK                            x       y       z     vdW  Elec       q    Type
REMARK                         _______ _______ _______ _____ _____    ______ ____
ROOT
ATOM      1  C   UNL     1       4.006   5.202  17.309  0.00  0.00    +0.000 A 
ATOM      2  C   UNL     1       4.567   6.334  16.704  0.00  0.00    +0.000 A 
ATOM      3  C   UNL     1       5.492   6.217  15.665  0.00  0.00    +0.000 A 
ATOM      4  C   UNL     1       5.882   4.950  15.226  0.00  0.00    +0.000 A 
ATOM      5  C   UNL     1       5.363   3.800  15.831  0.00  0.00    +0.000 A 
ATOM      6  C   UNL     1       4.434   3.933  16.871  0.00  0.00    +0.000 A 
ATOM      7 CL   UNL     1       3.798   2.489  17.584  0.00  0.00    +0.000 Cl
ENDROOT
BRANCH   1  10
ATOM      8  C   UNL     1       3.305   5.142  19.706  0.00  0.00    +0.000 C 
ATOM      9  O   UNL     1       4.420   5.013  20.207  0.00  0.00    +0.000 OA
ATOM     10  N   UNL     1       3.049   5.305  18.353  0.00  0.00    +0.000 N 
ATOM     11  H   UNL     1       2.122   5.612  18.070  0.00  0.00    +0.000 HD
BRANCH   8  12
ATOM     12  C   UNL     1       2.053   5.167  20.589  0.00  0.00    +0.000 C 
BRANCH  12  13
ATOM     13  O   UNL     1       0.967   4.456  19.984  0.00  0.00    +0.000 OA
BRANCH  13  15
ATOM     14  C   UNL     1       1.428   2.733  21.519  0.00  0.00    +0.000 C 
ATOM     15  C   UNL     1       1.054   3.103  20.116  0.00  0.00    +0.000 C 
ATOM     16  O   UNL     1       0.869   2.299  19.212  0.00  0.00    +0.000 OA
ENDBRANCH  13  15
ENDBRANCH  12  13
ENDBRANCH   8  12
ENDBRANCH   1  10
BRANCH   4  17
ATOM     17  N   UNL     1       6.843   4.838  14.123  0.00  0.00    +0.000 N 
ATOM     18  O   UNL     1       7.856   5.547  14.162  0.00  0.00    +0.000 OA
ATOM     19  O   UNL     1       6.583   4.036  13.216  0.00  0.00    +0.000 OA
ENDBRANCH   4  17
TORSDOF 5
ENDMDL
MODEL 6
REMARK VINA RESULT:      -6.6      1.683      2.165
REMARK  Name = 
REMARK  6 active torsions:
REMARK  status: ('A' for Active; 'I' for Inactive)
REMARK    1  A    between atoms: C_1  and  C_2
REMARK    2  A    between atoms: C_2  and  O_4
REMARK    3  A    between atoms: O_4  and  C_5
REMARK    4  A    between atoms: C_5  and  C_6
REMARK    5  A    between atoms: N_8  and  C_9
REMARK    6  A    between atoms: C_12  and  N_13
REMARK                            x       y       z     vdW  Elec       q    Type
REMARK                         _______ _______ _______ _____ _____    ______ ____
ROOT
ATOM      1  C   UNL     1       4.682   5.038  17.878  0.00  0.00    +0.000 A 
ATOM      2  C   UNL     1       5.827   5.834  17.750  0.00  0.00    +0.000 A 
ATOM      3  C   UNL     1       6.606   5.800  16.591  0.00  0.00    +0.000 A 
ATOM      4  C   UNL     1       6.251   4.949  15.543  0.00  0.00    +0.000 A 
ATOM      5  C   UNL     1       5.130   4.118  15.654  0.00  0.00    +0.000 A 
ATOM      6  C   UNL     1       4.357   4.164  16.822  0.00  0.00    +0.000 A 
ATOM      7 CL   UNL     1       2.966   3.136  16.917  0.00  0.00    +0.000 Cl
ENDROOT
BRANCH   1  10
ATOM      8  C   UNL     1       2.760   5.886  19.231  0.00  0.00    +0.000 C 
ATOM      9  O   UNL     1       2.244   6.594  18.369  0.00  0.00    +0.000 OA
ATOM     10  N   UNL     1       3.869   5.075  19.042  0.00  0.00    +0.000 N 
ATOM     11  H   UNL     1       4.083   4.377  19.749  0.00  0.00    +0.000 HD
BRANCH   8  12
ATOM     12  C   UNL     1       2.163   5.816  20.641  0.00  0.00    +0.000 C 
BRANCH  12  13
ATOM     13  O   UNL     1       1.121   4.838  20.724  0.00  0.00    +0.000 OA
BRANCH  13  15
ATOM     14  C   UNL     1       1.196   2.584  20.051  0.00  0.00    +0.000 C 
ATOM     15  C   UNL     1       1.556   3.600  21.092  0.00  0.00    +0.000 C 
ATOM     16  O   UNL     1       2.145   3.348  22.134  0.00  0.00    +0.000 OA
ENDBRANCH  13  15
ENDBRANCH  12  13
ENDBRANCH   8  12
ENDBRANCH   1  10
BRANCH   4  17
ATOM     17  N   UNL     1       7.067   4.933  14.324  0.00  0.00    +0.000 N 
ATOM     18  O   UNL     1       8.068   5.657  14.287  0.00  0.00    +0.000 OA
ATOM     19  O   UNL     1       6.703   4.192  13.401  0.00  0.00    +0.000 OA
ENDBRANCH   4  17
TORSDOF 5
ENDMDL
MODEL 7
REMARK VINA RESULT:      -6.6      1.976      2.585
REMARK  Name = 
REMARK  6 active torsions:
REMARK  status: ('A' for Active; 'I' for Inactive)
REMARK    1  A    between atoms: C_1  and  C_2
REMARK    2  A    between atoms: C_2  and  O_4
REMARK    3  A    between atoms: O_4  and  C_5
REMARK    4  A    between atoms: C_5  and  C_6
REMARK    5  A    between atoms: N_8  and  C_9
REMARK    6  A    between atoms: C_12  and  N_13
REMARK                            x       y       z     vdW  Elec       q    Type
REMARK                         _______ _______ _______ _____ _____    ______ ____
ROOT
ATOM      1  C   UNL     1       4.770   4.542  17.792  0.00  0.00    +0.000 A 
ATOM      2  C   UNL     1       4.258   4.173  16.542  0.00  0.00    +0.000 A 
ATOM      3  C   UNL     1       5.027   4.287  15.382  0.00  0.00    +0.000 A 
ATOM      4  C   UNL     1       6.326   4.791  15.460  0.00  0.00    +0.000 A 
ATOM      5  C   UNL     1       6.856   5.198  16.691  0.00  0.00    +0.000 A 
ATOM      6  C   UNL     1       6.073   5.076  17.846  0.00  0.00    +0.000 A 
ATOM      7 CL   UNL     1       6.767   5.571  19.354  0.00  0.00    +0.000 Cl
ENDROOT
BRANCH   1  10
ATOM      8  C   UNL     1       3.197   5.394  19.537  0.00  0.00    +0.000 C 
ATOM      9  O   UNL     1       2.920   6.468  19.007  0.00  0.00    +0.000 OA
ATOM     10  N   UNL     1       4.008   4.414  18.983  0.00  0.00    +0.000 N 
ATOM     11  H   UNL     1       4.001   3.489  19.403  0.00  0.00    +0.000 HD
BRANCH   8  12
ATOM     12  C   UNL     1       2.609   5.026  20.903  0.00  0.00    +0.000 C 
BRANCH  12  13
ATOM     13  O   UNL     1       1.305   4.450  20.777  0.00  0.00    +0.000 OA
BRANCH  13  15
ATOM     14  C   UNL     1       0.989   2.392  19.679  0.00  0.00    +0.000 C 
ATOM     15  C   UNL     1       1.278   3.101  20.967  0.00  0.00    +0.000 C 
ATOM     16  O   UNL     1       1.449   2.544  22.043  0.00  0.00    +0.000 OA
ENDBRANCH  13  15
ENDBRANCH  12  13
ENDBRANCH   8  12
ENDBRANCH   1  10
BRANCH   4  17
ATOM     17  N   UNL     1       7.131   4.892  14.238  0.00  0.00    +0.000 N 
ATOM     18  O   UNL     1       6.791   4.213  13.262  0.00  0.00    +0.000 OA
ATOM     19  O   UNL     1       8.107   5.654  14.256  0.00  0.00    +0.000 OA
ENDBRANCH   4  17
TORSDOF 5
ENDMDL
MODEL 8
REMARK VINA RESULT:      -6.6      1.710      2.450
REMARK  Name = 
REMARK  6 active torsions:
REMARK  status: ('A' for Active; 'I' for Inactive)
REMARK    1  A    between atoms: C_1  and  C_2
REMARK    2  A    between atoms: C_2  and  O_4
REMARK    3  A    between atoms: O_4  and  C_5
REMARK    4  A    between atoms: C_5  and  C_6
REMARK    5  A    between atoms: N_8  and  C_9
REMARK    6  A    between atoms: C_12  and  N_13
REMARK                            x       y       z     vdW  Elec       q    Type
REMARK                         _______ _______ _______ _____ _____    ______ ____
ROOT
ATOM      1  C   UNL     1       4.284   4.731  17.417  0.00  0.00    +0.000 A 
ATOM      2  C   UNL     1       4.838   3.563  16.878  0.00  0.00    +0.000 A 
ATOM      3  C   UNL     1       5.695   3.609  15.777  0.00  0.00    +0.000 A 
ATOM      4  C   UNL     1       5.999   4.838  15.188  0.00  0.00    +0.000 A 
ATOM      5  C   UNL     1       5.438   6.020  15.685  0.00  0.00    +0.000 A 
ATOM      6  C   UNL     1       4.581   5.958  16.791  0.00  0.00    +0.000 A 
ATOM      7 CL   UNL     1       3.918   7.441  17.391  0.00  0.00    +0.000 Cl
ENDROOT
BRANCH   1  10
ATOM      8  C   UNL     1       2.055   4.494  18.521  0.00  0.00    +0.000 C 
ATOM      9  O   UNL     1       1.406   4.175  17.527  0.00  0.00    +0.000 OA
ATOM     10  N   UNL     1       3.426   4.702  18.548  0.00  0.00    +0.000 N 
ATOM     11  H   UNL     1       3.889   4.753  19.451  0.00  0.00    +0.000 HD
BRANCH   8  12
ATOM     12  C   UNL     1       1.368   4.660  19.880  0.00  0.00    +0.000 C 
BRANCH  12  13
ATOM     13  O   UNL     1       2.274   4.418  20.961  0.00  0.00    +0.000 OA
BRANCH  13  15
ATOM     14  C   UNL     1       1.349   2.463  21.890  0.00  0.00    +0.000 C 
ATOM     15  C   UNL     1       2.514   3.097  21.193  0.00  0.00    +0.000 C 
ATOM     16  O   UNL     1       3.543   2.510  20.889  0.00  0.00    +0.000 OA
ENDBRANCH  13  15
ENDBRANCH  12  13
ENDBRANCH   8  12
ENDBRANCH   1  10
BRANCH   4  17
ATOM     17  N   UNL     1       6.914   4.878  14.041  0.00  0.00    +0.000 N 
ATOM     18  O   UNL     1       6.644   4.175  13.060  0.00  0.00    +0.000 OA
ATOM     19  O   UNL     1       7.905   5.616  14.124  0.00  0.00    +0.000 OA
ENDBRANCH   4  17
TORSDOF 5
ENDMDL
MODEL 9
REMARK VINA RESULT:      -6.5      2.243      6.822
REMARK  Name = 
REMARK  6 active torsions:
REMARK  status: ('A' for Active; 'I' for Inactive)
REMARK    1  A    between atoms: C_1  and  C_2
REMARK    2  A    between atoms: C_2  and  O_4
REMARK    3  A    between atoms: O_4  and  C_5
REMARK    4  A    between atoms: C_5  and  C_6
REMARK    5  A    between atoms: N_8  and  C_9
REMARK    6  A    between atoms: C_12  and  N_13
REMARK                            x       y       z     vdW  Elec       q    Type
REMARK                         _______ _______ _______ _____ _____    ______ ____
ROOT
ATOM      1  C   UNL     1       4.167   3.653  17.371  0.00  0.00    +0.000 A 
ATOM      2  C   UNL     1       3.903   2.366  17.855  0.00  0.00    +0.000 A 
ATOM      3  C   UNL     1       3.203   2.170  19.047  0.00  0.00    +0.000 A 
ATOM      4  C   UNL     1       2.768   3.273  19.784  0.00  0.00    +0.000 A 
ATOM      5  C   UNL     1       3.043   4.573  19.342  0.00  0.00    +0.000 A 
ATOM      6  C   UNL     1       3.745   4.754  18.144  0.00  0.00    +0.000 A 
ATOM      7 CL   UNL     1       4.053   6.375  17.618  0.00  0.00    +0.000 Cl
ENDROOT
BRANCH   1  10
ATOM      8  C   UNL     1       6.201   4.204  16.029  0.00  0.00    +0.000 C 
ATOM      9  O   UNL     1       7.012   4.234  16.952  0.00  0.00    +0.000 OA
ATOM     10  N   UNL     1       4.861   3.869  16.151  0.00  0.00    +0.000 N 
ATOM     11  H   UNL     1       4.334   3.671  15.306  0.00  0.00    +0.000 HD
BRANCH   8  12
ATOM     12  C   UNL     1       6.642   4.517  14.595  0.00  0.00    +0.000 C 
BRANCH  12  13
ATOM     13  O   UNL     1       5.748   3.947  13.633  0.00  0.00    +0.000 OA
BRANCH  13  15
ATOM     14  C   UNL     1       5.660   2.513  11.770  0.00  0.00    +0.000 C 
ATOM     15  C   UNL     1       6.330   3.679  12.431  0.00  0.00    +0.000 C 
ATOM     16  O   UNL     1       7.278   4.292  11.961  0.00  0.00    +0.000 OA
ENDBRANCH  13  15
ENDBRANCH  12  13
ENDBRANCH   8  12
ENDBRANCH   1  10
BRANCH   4  17
ATOM     17  N   UNL     1       2.019   3.056  21.027  0.00  0.00    +0.000 N 
ATOM     18  O   UNL     1       0.786   2.991  20.956  0.00  0.00    +0.000 OA
ATOM     19  O   UNL     1       2.668   2.951  22.076  0.00  0.00    +0.000 OA
ENDBRANCH   4  17
TORSDOF 5
ENDMDL
