MODEL 1
REMARK VINA RESULT:      -6.3      0.000      0.000
REMARK  Name = 
REMARK  3 active torsions:
REMARK  status: ('A' for Active; 'I' for Inactive)
REMARK    1  A    between atoms: C_1  and  C_2
REMARK    2  A    between atoms: C_3  and  N_4
REMARK    3  A    between atoms: C_18  and  N_19
REMARK                            x       y       z     vdW  Elec       q    Type
REMARK                         _______ _______ _______ _____ _____    ______ ____
ROOT
ATOM      1  C   UNL     1       1.675   5.754  20.693  0.00  0.00    +0.000 C 
ATOM      2  C   UNL     1       2.495   4.920  19.743  0.00  0.00    +0.000 C 
ATOM      3  C   UNL     1       2.629   3.561  19.707  0.00  0.00    +0.000 C 
ATOM      4  C   UNL     1       3.599   2.887  18.685  0.00  0.00    +0.000 C 
ATOM      5  O   UNL     1       3.821   1.678  18.698  0.00  0.00    +0.000 OA
ATOM      6  C   UNL     1       4.210   3.795  17.735  0.00  0.00    +0.000 A 
ATOM      7  N   UNL     1       5.045   3.454  16.675  0.00  0.00    +0.000 NA
ATOM      8  C   UNL     1       5.321   4.600  16.100  0.00  0.00    +0.000 A 
ATOM      9  N   UNL     1       4.703   5.633  16.738  0.00  0.00    +0.000 N 
ATOM     10  C   UNL     1       4.002   5.153  17.779  0.00  0.00    +0.000 A 
ATOM     11  C   UNL     1       3.194   5.819  18.740  0.00  0.00    +0.000 C 
ATOM     12  O   UNL     1       3.052   7.037  18.752  0.00  0.00    +0.000 OA
ATOM     13  C   UNL     1       4.882   6.909  16.081  0.00  0.00    +0.000 C 
ATOM     14  C   UNL     1       5.413   6.482  14.699  0.00  0.00    +0.000 C 
ATOM     15  C   UNL     1       6.050   5.074  14.894  0.00  0.00    +0.000 C 
ENDROOT
BRANCH   3  16
ATOM     16  N   UNL     1       2.014   2.554  20.460  0.00  0.00    +0.000 N 
ATOM     17  C   UNL     1       2.518   2.192  21.778  0.00  0.00    +0.000 C 
ATOM     18  C   UNL     1       1.148   2.794  21.603  0.00  0.00    +0.000 C 
ENDBRANCH   3  16
BRANCH  15  19
ATOM     19  N   UNL     1       7.487   5.163  15.126  0.00  0.00    +0.000 NA
ATOM     20  H   UNL     1       7.768   4.573  15.903  0.00  0.00    +0.000 HD
ATOM     21  H   UNL     1       7.744   6.119  15.361  0.00  0.00    +0.000 HD
ENDBRANCH  15  19
TORSDOF 2
ENDMDL
MODEL 2
REMARK VINA RESULT:      -6.1      2.121      5.853
REMARK  Name = 
REMARK  3 active torsions:
REMARK  status: ('A' for Active; 'I' for Inactive)
REMARK    1  A    between atoms: C_1  and  C_2
REMARK    2  A    between atoms: C_3  and  N_4
REMARK    3  A    between atoms: C_18  and  N_19
REMARK                            x       y       z     vdW  Elec       q    Type
REMARK                         _______ _______ _______ _____ _____    ______ ____
ROOT
ATOM      1  C   UNL     1       5.496   4.308  15.156  0.00  0.00    +0.000 C 
ATOM      2  C   UNL     1       5.315   4.447  16.645  0.00  0.00    +0.000 C 
ATOM      3  C   UNL     1       6.162   5.020  17.552  0.00  0.00    +0.000 C 
ATOM      4  C   UNL     1       5.827   4.992  19.077  0.00  0.00    +0.000 C 
ATOM      5  O   UNL     1       6.616   5.403  19.925  0.00  0.00    +0.000 OA
ATOM      6  C   UNL     1       4.525   4.445  19.405  0.00  0.00    +0.000 A 
ATOM      7  N   UNL     1       3.944   4.374  20.668  0.00  0.00    +0.000 NA
ATOM      8  C   UNL     1       2.772   3.825  20.454  0.00  0.00    +0.000 A 
ATOM      9  N   UNL     1       2.590   3.553  19.131  0.00  0.00    +0.000 N 
ATOM     10  C   UNL     1       3.684   3.927  18.448  0.00  0.00    +0.000 A 
ATOM     11  C   UNL     1       3.981   3.856  17.060  0.00  0.00    +0.000 C 
ATOM     12  O   UNL     1       3.207   3.367  16.244  0.00  0.00    +0.000 OA
ATOM     13  C   UNL     1       1.270   3.048  18.822  0.00  0.00    +0.000 C 
ATOM     14  C   UNL     1       0.492   3.383  20.109  0.00  0.00    +0.000 C 
ATOM     15  C   UNL     1       1.555   3.497  21.242  0.00  0.00    +0.000 C 
ENDROOT
BRANCH   3  16
ATOM     16  N   UNL     1       7.375   5.696  17.380  0.00  0.00    +0.000 N 
ATOM     17  C   UNL     1       7.413   7.029  16.792  0.00  0.00    +0.000 C 
ATOM     18  C   UNL     1       7.833   6.791  18.218  0.00  0.00    +0.000 C 
ENDBRANCH   3  16
BRANCH  15  19
ATOM     19  N   UNL     1       1.700   2.242  21.970  0.00  0.00    +0.000 NA
ATOM     20  H   UNL     1       1.093   1.525  21.584  0.00  0.00    +0.000 HD
ATOM     21  H   UNL     1       1.438   2.371  22.945  0.00  0.00    +0.000 HD
ENDBRANCH  15  19
TORSDOF 2
ENDMDL
MODEL 3
REMARK VINA RESULT:      -6.0      3.217      4.774
REMARK  Name = 
REMARK  3 active torsions:
REMARK  status: ('A' for Active; 'I' for Inactive)
REMARK    1  A    between atoms: C_1  and  C_2
REMARK    2  A    between atoms: C_3  and  N_4
REMARK    3  A    between atoms: C_18  and  N_19
REMARK                            x       y       z     vdW  Elec       q    Type
REMARK                         _______ _______ _______ _____ _____    ______ ____
ROOT
ATOM      1  C   UNL     1       2.367   4.206  21.223  0.00  0.00    +0.000 C 
ATOM      2  C   UNL     1       2.636   5.129  20.063  0.00  0.00    +0.000 C 
ATOM      3  C   UNL     1       3.354   4.878  18.928  0.00  0.00    +0.000 C 
ATOM      4  C   UNL     1       3.586   6.003  17.871  0.00  0.00    +0.000 C 
ATOM      5  O   UNL     1       4.314   5.839  16.894  0.00  0.00    +0.000 OA
ATOM      6  C   UNL     1       2.884   7.243  18.137  0.00  0.00    +0.000 A 
ATOM      7  N   UNL     1       2.851   8.373  17.325  0.00  0.00    +0.000 NA
ATOM      8  C   UNL     1       2.080   9.214  17.973  0.00  0.00    +0.000 A 
ATOM      9  N   UNL     1       1.629   8.671  19.139  0.00  0.00    +0.000 N 
ATOM     10  C   UNL     1       2.129   7.431  19.271  0.00  0.00    +0.000 A 
ATOM     11  C   UNL     1       1.956   6.465  20.298  0.00  0.00    +0.000 C 
ATOM     12  O   UNL     1       1.287   6.683  21.303  0.00  0.00    +0.000 OA
ATOM     13  C   UNL     1       0.686   9.512  19.841  0.00  0.00    +0.000 C 
ATOM     14  C   UNL     1       0.307  10.539  18.757  0.00  0.00    +0.000 C 
ATOM     15  C   UNL     1       1.493  10.560  17.746  0.00  0.00    +0.000 C 
ENDROOT
BRANCH   3  16
ATOM     16  N   UNL     1       3.974   3.709  18.470  0.00  0.00    +0.000 N 
ATOM     17  C   UNL     1       3.992   2.502  19.287  0.00  0.00    +0.000 C 
ATOM     18  C   UNL     1       3.265   2.544  17.968  0.00  0.00    +0.000 C 
ENDBRANCH   3  16
BRANCH  15  19
ATOM     19  N   UNL     1       2.439  11.626  18.053  0.00  0.00    +0.000 NA
ATOM     20  H   UNL     1       2.504  11.779  19.054  0.00  0.00    +0.000 HD
ATOM     21  H   UNL     1       2.132  12.499  17.630  0.00  0.00    +0.000 HD
ENDBRANCH  15  19
TORSDOF 2
ENDMDL
MODEL 4
REMARK VINA RESULT:      -5.8      3.198      5.075
REMARK  Name = 
REMARK  3 active torsions:
REMARK  status: ('A' for Active; 'I' for Inactive)
REMARK    1  A    between atoms: C_1  and  C_2
REMARK    2  A    between atoms: C_3  and  N_4
REMARK    3  A    between atoms: C_18  and  N_19
REMARK                            x       y       z     vdW  Elec       q    Type
REMARK                         _______ _______ _______ _____ _____    ______ ____
ROOT
ATOM      1  C   UNL     1       1.992  10.233  17.770  0.00  0.00    +0.000 C 
ATOM      2  C   UNL     1       2.001   8.977  18.601  0.00  0.00    +0.000 C 
ATOM      3  C   UNL     1       1.381   8.747  19.796  0.00  0.00    +0.000 C 
ATOM      4  C   UNL     1       1.581   7.391  20.546  0.00  0.00    +0.000 C 
ATOM      5  O   UNL     1       1.124   7.194  21.670  0.00  0.00    +0.000 OA
ATOM      6  C   UNL     1       2.345   6.399  19.816  0.00  0.00    +0.000 A 
ATOM      7  N   UNL     1       2.604   5.089  20.211  0.00  0.00    +0.000 NA
ATOM      8  C   UNL     1       3.306   4.587  19.224  0.00  0.00    +0.000 A 
ATOM      9  N   UNL     1       3.495   5.507  18.236  0.00  0.00    +0.000 N 
ATOM     10  C   UNL     1       2.906   6.662  18.588  0.00  0.00    +0.000 A 
ATOM     11  C   UNL     1       2.820   7.905  17.906  0.00  0.00    +0.000 C 
ATOM     12  O   UNL     1       3.354   8.100  16.819  0.00  0.00    +0.000 OA
ATOM     13  C   UNL     1       4.169   4.974  17.072  0.00  0.00    +0.000 C 
ATOM     14  C   UNL     1       4.060   3.456  17.309  0.00  0.00    +0.000 C 
ATOM     15  C   UNL     1       3.877   3.267  18.845  0.00  0.00    +0.000 C 
ENDROOT
BRANCH   3  16
ATOM     16  N   UNL     1       0.517   9.545  20.555  0.00  0.00    +0.000 N 
ATOM     17  C   UNL     1       0.762  10.973  20.714  0.00  0.00    +0.000 C 
ATOM     18  C   UNL     1      -0.459  10.465  19.994  0.00  0.00    +0.000 C 
ENDBRANCH   3  16
BRANCH  15  19
ATOM     19  N   UNL     1       5.150   3.015  19.509  0.00  0.00    +0.000 NA
ATOM     20  H   UNL     1       5.216   2.050  19.817  0.00  0.00    +0.000 HD
ATOM     21  H   UNL     1       5.237   3.605  20.334  0.00  0.00    +0.000 HD
ENDBRANCH  15  19
TORSDOF 2
ENDMDL
MODEL 5
REMARK VINA RESULT:      -5.8      0.935      1.068
REMARK  Name = 
REMARK  3 active torsions:
REMARK  status: ('A' for Active; 'I' for Inactive)
REMARK    1  A    between atoms: C_1  and  C_2
REMARK    2  A    between atoms: C_3  and  N_4
REMARK    3  A    between atoms: C_18  and  N_19
REMARK                            x       y       z     vdW  Elec       q    Type
REMARK                         _______ _______ _______ _____ _____    ______ ____
ROOT
ATOM      1  C   UNL     1       1.634   6.888  20.508  0.00  0.00    +0.000 C 
ATOM      2  C   UNL     1       2.542   5.823  19.950  0.00  0.00    +0.000 C 
ATOM      3  C   UNL     1       2.753   4.558  20.419  0.00  0.00    +0.000 C 
ATOM      4  C   UNL     1       3.805   3.625  19.740  0.00  0.00    +0.000 C 
ATOM      5  O   UNL     1       4.094   2.523  20.201  0.00  0.00    +0.000 OA
ATOM      6  C   UNL     1       4.408   4.163  18.536  0.00  0.00    +0.000 A 
ATOM      7  N   UNL     1       5.310   3.517  17.695  0.00  0.00    +0.000 NA
ATOM      8  C   UNL     1       5.548   4.390  16.746  0.00  0.00    +0.000 A 
ATOM      9  N   UNL     1       4.844   5.540  16.945  0.00  0.00    +0.000 N 
ATOM     10  C   UNL     1       4.123   5.426  18.073  0.00  0.00    +0.000 A 
ATOM     11  C   UNL     1       3.236   6.339  18.703  0.00  0.00    +0.000 C 
ATOM     12  O   UNL     1       3.026   7.465  18.264  0.00  0.00    +0.000 OA
ATOM     13  C   UNL     1       4.983   6.496  15.869  0.00  0.00    +0.000 C 
ATOM     14  C   UNL     1       5.600   5.632  14.753  0.00  0.00    +0.000 C 
ATOM     15  C   UNL     1       6.305   4.439  15.467  0.00  0.00    +0.000 C 
ENDROOT
BRANCH   3  16
ATOM     16  N   UNL     1       2.160   3.856  21.475  0.00  0.00    +0.000 N 
ATOM     17  C   UNL     1       0.999   3.005  21.250  0.00  0.00    +0.000 C 
ATOM     18  C   UNL     1       2.314   2.429  21.704  0.00  0.00    +0.000 C 
ENDBRANCH   3  16
BRANCH  15  19
ATOM     19  N   UNL     1       7.722   4.706  15.683  0.00  0.00    +0.000 NA
ATOM     20  H   UNL     1       8.273   4.421  14.880  0.00  0.00    +0.000 HD
ATOM     21  H   UNL     1       8.058   4.180  16.486  0.00  0.00    +0.000 HD
ENDBRANCH  15  19
TORSDOF 2
ENDMDL
MODEL 6
REMARK VINA RESULT:      -5.8      3.221      5.238
REMARK  Name = 
REMARK  3 active torsions:
REMARK  status: ('A' for Active; 'I' for Inactive)
REMARK    1  A    between atoms: C_1  and  C_2
REMARK    2  A    between atoms: C_3  and  N_4
REMARK    3  A    between atoms: C_18  and  N_19
REMARK                            x       y       z     vdW  Elec       q    Type
REMARK                         _______ _______ _______ _____ _____    ______ ____
ROOT
ATOM      1  C   UNL     1       0.169   8.292  21.612  0.00  0.00    +0.000 C 
ATOM      2  C   UNL     1       1.051   8.253  20.391  0.00  0.00    +0.000 C 
ATOM      3  C   UNL     1       1.230   9.220  19.443  0.00  0.00    +0.000 C 
ATOM      4  C   UNL     1       2.135   8.952  18.199  0.00  0.00    +0.000 C 
ATOM      5  O   UNL     1       2.232   9.760  17.277  0.00  0.00    +0.000 OA
ATOM      6  C   UNL     1       2.841   7.686  18.220  0.00  0.00    +0.000 A 
ATOM      7  N   UNL     1       3.766   7.232  17.285  0.00  0.00    +0.000 NA
ATOM      8  C   UNL     1       4.136   6.059  17.740  0.00  0.00    +0.000 A 
ATOM      9  N   UNL     1       3.497   5.759  18.906  0.00  0.00    +0.000 N 
ATOM     10  C   UNL     1       2.667   6.766  19.226  0.00  0.00    +0.000 A 
ATOM     11  C   UNL     1       1.793   6.931  20.334  0.00  0.00    +0.000 C 
ATOM     12  O   UNL     1       1.656   6.073  21.200  0.00  0.00    +0.000 OA
ATOM     13  C   UNL     1       3.949   4.526  19.511  0.00  0.00    +0.000 C 
ATOM     14  C   UNL     1       5.254   4.253  18.741  0.00  0.00    +0.000 C 
ATOM     15  C   UNL     1       5.123   5.006  17.383  0.00  0.00    +0.000 C 
ENDROOT
BRANCH   3  16
ATOM     16  N   UNL     1       0.730  10.524  19.351  0.00  0.00    +0.000 N 
ATOM     17  C   UNL     1      -0.689  10.768  19.123  0.00  0.00    +0.000 C 
ATOM     18  C   UNL     1      -0.017  11.195  20.402  0.00  0.00    +0.000 C 
ENDBRANCH   3  16
BRANCH  15  19
ATOM     19  N   UNL     1       4.626   4.129  16.330  0.00  0.00    +0.000 NA
ATOM     20  H   UNL     1       4.058   4.644  15.664  0.00  0.00    +0.000 HD
ATOM     21  H   UNL     1       4.042   3.399  16.730  0.00  0.00    +0.000 HD
ENDBRANCH  15  19
TORSDOF 2
ENDMDL
MODEL 7
REMARK VINA RESULT:      -5.8      2.008      2.228
REMARK  Name = 
REMARK  3 active torsions:
REMARK  status: ('A' for Active; 'I' for Inactive)
REMARK    1  A    between atoms: C_1  and  C_2
REMARK    2  A    between atoms: C_3  and  N_4
REMARK    3  A    between atoms: C_18  and  N_19
REMARK                            x       y       z     vdW  Elec       q    Type
REMARK                         _______ _______ _______ _____ _____    ______ ____
ROOT
ATOM      1  C   UNL     1       0.899   2.724  18.478  0.00  0.00    +0.000 C 
ATOM      2  C   UNL     1       2.360   3.067  18.610  0.00  0.00    +0.000 C 
ATOM      3  C   UNL     1       3.139   3.042  19.732  0.00  0.00    +0.000 C 
ATOM      4  C   UNL     1       4.626   3.515  19.675  0.00  0.00    +0.000 C 
ATOM      5  O   UNL     1       5.321   3.605  20.685  0.00  0.00    +0.000 OA
ATOM      6  C   UNL     1       5.113   3.838  18.348  0.00  0.00    +0.000 A 
ATOM      7  N   UNL     1       6.410   4.206  18.002  0.00  0.00    +0.000 NA
ATOM      8  C   UNL     1       6.362   4.374  16.702  0.00  0.00    +0.000 A 
ATOM      9  N   UNL     1       5.111   4.128  16.219  0.00  0.00    +0.000 N 
ATOM     10  C   UNL     1       4.301   3.797  17.239  0.00  0.00    +0.000 A 
ATOM     11  C   UNL     1       2.923   3.452  17.255  0.00  0.00    +0.000 C 
ATOM     12  O   UNL     1       2.233   3.447  16.241  0.00  0.00    +0.000 OA
ATOM     13  C   UNL     1       5.027   4.191  14.777  0.00  0.00    +0.000 C 
ATOM     14  C   UNL     1       6.511   4.152  14.369  0.00  0.00    +0.000 C 
ATOM     15  C   UNL     1       7.314   4.673  15.600  0.00  0.00    +0.000 C 
ENDROOT
BRANCH   3  16
ATOM     16  N   UNL     1       2.856   2.636  21.041  0.00  0.00    +0.000 N 
ATOM     17  C   UNL     1       2.316   3.575  22.016  0.00  0.00    +0.000 C 
ATOM     18  C   UNL     1       1.520   2.382  21.554  0.00  0.00    +0.000 C 
ENDBRANCH   3  16
BRANCH  15  19
ATOM     19  N   UNL     1       7.592   6.100  15.493  0.00  0.00    +0.000 NA
ATOM     20  H   UNL     1       7.010   6.634  16.130  0.00  0.00    +0.000 HD
ATOM     21  H   UNL     1       7.393   6.425  14.550  0.00  0.00    +0.000 HD
ENDBRANCH  15  19
TORSDOF 2
ENDMDL
MODEL 8
REMARK VINA RESULT:      -5.7      3.708      5.608
REMARK  Name = 
REMARK  3 active torsions:
REMARK  status: ('A' for Active; 'I' for Inactive)
REMARK    1  A    between atoms: C_1  and  C_2
REMARK    2  A    between atoms: C_3  and  N_4
REMARK    3  A    between atoms: C_18  and  N_19
REMARK                            x       y       z     vdW  Elec       q    Type
REMARK                         _______ _______ _______ _____ _____    ______ ____
ROOT
ATOM      1  C   UNL     1       2.451   4.619  20.823  0.00  0.00    +0.000 C 
ATOM      2  C   UNL     1       2.593   5.738  19.824  0.00  0.00    +0.000 C 
ATOM      3  C   UNL     1       3.309   5.752  18.662  0.00  0.00    +0.000 C 
ATOM      4  C   UNL     1       3.396   7.050  17.798  0.00  0.00    +0.000 C 
ATOM      5  O   UNL     1       4.116   7.125  16.805  0.00  0.00    +0.000 OA
ATOM      6  C   UNL     1       2.568   8.146  18.261  0.00  0.00    +0.000 A 
ATOM      7  N   UNL     1       2.394   9.380  17.641  0.00  0.00    +0.000 NA
ATOM      8  C   UNL     1       1.550  10.016  18.418  0.00  0.00    +0.000 A 
ATOM      9  N   UNL     1       1.186   9.247  19.483  0.00  0.00    +0.000 N 
ATOM     10  C   UNL     1       1.821   8.066  19.413  0.00  0.00    +0.000 A 
ATOM     11  C   UNL     1       1.775   6.936  20.273  0.00  0.00    +0.000 C 
ATOM     12  O   UNL     1       1.108   6.916  21.302  0.00  0.00    +0.000 OA
ATOM     13  C   UNL     1       0.171   9.857  20.314  0.00  0.00    +0.000 C 
ATOM     14  C   UNL     1      -0.341  10.993  19.409  0.00  0.00    +0.000 C 
ATOM     15  C   UNL     1       0.814  11.307  18.411  0.00  0.00    +0.000 C 
ENDROOT
BRANCH   3  16
ATOM     16  N   UNL     1       4.044   4.747  18.020  0.00  0.00    +0.000 N 
ATOM     17  C   UNL     1       5.209   4.148  18.659  0.00  0.00    +0.000 C 
ATOM     18  C   UNL     1       3.977   3.336  18.359  0.00  0.00    +0.000 C 
ENDBRANCH   3  16
BRANCH  15  19
ATOM     19  N   UNL     1       1.644  12.409  18.882  0.00  0.00    +0.000 NA
ATOM     20  H   UNL     1       1.316  12.757  19.777  0.00  0.00    +0.000 HD
ATOM     21  H   UNL     1       1.606  13.182  18.221  0.00  0.00    +0.000 HD
ENDBRANCH  15  19
TORSDOF 2
ENDMDL
MODEL 9
REMARK VINA RESULT:      -5.6      2.371      2.506
REMARK  Name = 
REMARK  3 active torsions:
REMARK  status: ('A' for Active; 'I' for Inactive)
REMARK    1  A    between atoms: C_1  and  C_2
REMARK    2  A    between atoms: C_3  and  N_4
REMARK    3  A    between atoms: C_18  and  N_19
REMARK                            x       y       z     vdW  Elec       q    Type
REMARK                         _______ _______ _______ _____ _____    ______ ____
ROOT
ATOM      1  C   UNL     1       1.140   4.764  17.738  0.00  0.00    +0.000 C 
ATOM      2  C   UNL     1       2.543   4.507  18.224  0.00  0.00    +0.000 C 
ATOM      3  C   UNL     1       3.015   3.430  18.918  0.00  0.00    +0.000 C 
ATOM      4  C   UNL     1       4.498   3.389  19.405  0.00  0.00    +0.000 C 
ATOM      5  O   UNL     1       4.925   2.484  20.120  0.00  0.00    +0.000 OA
ATOM      6  C   UNL     1       5.319   4.494  18.951  0.00  0.00    +0.000 A 
ATOM      7  N   UNL     1       6.684   4.664  19.169  0.00  0.00    +0.000 NA
ATOM      8  C   UNL     1       6.971   5.787  18.556  0.00  0.00    +0.000 A 
ATOM      9  N   UNL     1       5.866   6.323  17.966  0.00  0.00    +0.000 N 
ATOM     10  C   UNL     1       4.808   5.531  18.207  0.00  0.00    +0.000 A 
ATOM     11  C   UNL     1       3.449   5.652  17.811  0.00  0.00    +0.000 C 
ATOM     12  O   UNL     1       3.032   6.607  17.163  0.00  0.00    +0.000 OA
ATOM     13  C   UNL     1       6.146   7.506  17.182  0.00  0.00    +0.000 C 
ATOM     14  C   UNL     1       7.679   7.445  17.051  0.00  0.00    +0.000 C 
ATOM     15  C   UNL     1       8.184   6.591  18.253  0.00  0.00    +0.000 C 
ENDROOT
BRANCH   3  16
ATOM     16  N   UNL     1       2.390   2.241  19.312  0.00  0.00    +0.000 N 
ATOM     17  C   UNL     1       1.489   2.213  20.458  0.00  0.00    +0.000 C 
ATOM     18  C   UNL     1       0.993   1.925  19.065  0.00  0.00    +0.000 C 
ENDBRANCH   3  16
BRANCH  15  19
ATOM     19  N   UNL     1       8.577   7.430  19.378  0.00  0.00    +0.000 NA
ATOM     20  H   UNL     1       9.247   6.953  19.973  0.00  0.00    +0.000 HD
ATOM     21  H   UNL     1       7.764   7.650  19.950  0.00  0.00    +0.000 HD
ENDBRANCH  15  19
TORSDOF 2
ENDMDL
