MODEL 1
REMARK VINA RESULT:      -7.8      0.000      0.000
REMARK  Name = 
REMARK  7 active torsions:
REMARK  status: ('A' for Active; 'I' for Inactive)
REMARK    1  A    between atoms: C_1  and  C_2
REMARK    2  A    between atoms: C_2  and  C_3
REMARK    3  A    between atoms: C_3  and  C_4
REMARK    4  A    between atoms: C_4  and  O_5
REMARK    5  A    between atoms: O_5  and  C_6
REMARK    6  A    between atoms: C_9  and  N_10
REMARK    7  A    between atoms: N_10  and  C_11
REMARK                            x       y       z     vdW  Elec       q    Type
REMARK                         _______ _______ _______ _____ _____    ______ ____
ROOT
ATOM      1  C   UNL     1       6.516   6.523  16.942  0.00  0.00    +0.000 A 
ATOM      2  C   UNL     1       7.461   6.871  17.915  0.00  0.00    +0.000 A 
ATOM      3  C   UNL     1       7.806   5.786  18.704  0.00  0.00    +0.000 A 
ATOM      4  N   UNL     1       7.066   4.638  18.721  0.00  0.00    +0.000 NA
ATOM      5  C   UNL     1       5.797   4.703  18.254  0.00  0.00    +0.000 A 
ATOM      6  C   UNL     1       4.841   3.747  18.682  0.00  0.00    +0.000 A 
ATOM      7  C   UNL     1       3.462   3.975  18.793  0.00  0.00    +0.000 A 
ATOM      8  C   UNL     1       3.226   5.319  18.614  0.00  0.00    +0.000 A 
ATOM      9  C   UNL     1       2.143   5.983  19.125  0.00  0.00    +0.000 A 
ATOM     10  N   UNL     1       2.468   7.295  18.974  0.00  0.00    +0.000 N 
ATOM     11  N   UNL     1       3.570   7.513  18.209  0.00  0.00    +0.000 NA
ATOM     12  C   UNL     1       4.136   6.293  18.042  0.00  0.00    +0.000 A 
ATOM     13  C   UNL     1       5.426   5.843  17.526  0.00  0.00    +0.000 A 
ATOM     14  H   UNL     1       1.995   8.089  19.395  0.00  0.00    +0.000 HD
ENDROOT
BRANCH   1  15
ATOM     15  N   UNL     1       7.384   5.708  15.880  0.00  0.00    +0.000 N 
ATOM     16  H   UNL     1       7.551   4.854  16.445  0.00  0.00    +0.000 HD
BRANCH  15  20
ATOM     17  C   UNL     1       6.273   3.788  12.209  0.00  0.00    +0.000 A 
ATOM     18  C   UNL     1       7.373   4.646  12.227  0.00  0.00    +0.000 A 
ATOM     19  C   UNL     1       7.819   5.269  13.432  0.00  0.00    +0.000 A 
ATOM     20  C   UNL     1       7.174   5.037  14.640  0.00  0.00    +0.000 A 
ATOM     21  C   UNL     1       6.083   4.124  14.608  0.00  0.00    +0.000 A 
ATOM     22  C   UNL     1       5.624   3.519  13.424  0.00  0.00    +0.000 A 
BRANCH  17  23
ATOM     23  O   UNL     1       5.695   3.179  11.139  0.00  0.00    +0.000 OA
BRANCH  23  24
ATOM     24  C   UNL     1       4.546   2.344  11.302  0.00  0.00    +0.000 C 
BRANCH  24  25
ATOM     25  C   UNL     1       3.278   3.041  10.803  0.00  0.00    +0.000 C 
BRANCH  25  27
ATOM     26  C   UNL     1       2.336   4.716   9.159  0.00  0.00    +0.000 C 
ATOM     27  C   UNL     1       3.586   4.218   9.870  0.00  0.00    +0.000 C 
ENDBRANCH  25  27
ENDBRANCH  24  25
ENDBRANCH  23  24
ENDBRANCH  17  23
ENDBRANCH  15  20
ENDBRANCH   1  15
TORSDOF 6
ENDMDL
MODEL 2
REMARK VINA RESULT:      -7.7      3.840      7.518
REMARK  Name = 
REMARK  7 active torsions:
REMARK  status: ('A' for Active; 'I' for Inactive)
REMARK    1  A    between atoms: C_1  and  C_2
REMARK    2  A    between atoms: C_2  and  C_3
REMARK    3  A    between atoms: C_3  and  C_4
REMARK    4  A    between atoms: C_4  and  O_5
REMARK    5  A    between atoms: O_5  and  C_6
REMARK    6  A    between atoms: C_9  and  N_10
REMARK    7  A    between atoms: N_10  and  C_11
REMARK                            x       y       z     vdW  Elec       q    Type
REMARK                         _______ _______ _______ _____ _____    ______ ____
ROOT
ATOM      1  C   UNL     1       3.329   3.943  17.595  0.00  0.00    +0.000 A 
ATOM      2  C   UNL     1       3.523   2.676  18.157  0.00  0.00    +0.000 A 
ATOM      3  C   UNL     1       4.445   2.710  19.189  0.00  0.00    +0.000 A 
ATOM      4  N   UNL     1       5.275   3.778  19.384  0.00  0.00    +0.000 NA
ATOM      5  C   UNL     1       5.451   4.631  18.349  0.00  0.00    +0.000 A 
ATOM      6  C   UNL     1       6.622   5.431  18.289  0.00  0.00    +0.000 A 
ATOM      7  C   UNL     1       7.234   5.881  17.111  0.00  0.00    +0.000 A 
ATOM      8  C   UNL     1       6.634   5.258  16.041  0.00  0.00    +0.000 A 
ATOM      9  C   UNL     1       7.245   5.049  14.833  0.00  0.00    +0.000 A 
ATOM     10  N   UNL     1       6.427   4.160  14.208  0.00  0.00    +0.000 N 
ATOM     11  N   UNL     1       5.237   3.960  14.833  0.00  0.00    +0.000 NA
ATOM     12  C   UNL     1       5.364   4.559  16.043  0.00  0.00    +0.000 A 
ATOM     13  C   UNL     1       4.566   4.538  17.266  0.00  0.00    +0.000 A 
ATOM     14  H   UNL     1       6.638   3.630  13.367  0.00  0.00    +0.000 HD
ENDROOT
BRANCH   1  15
ATOM     15  N   UNL     1       2.445   4.688  18.693  0.00  0.00    +0.000 N 
ATOM     16  H   UNL     1       2.937   4.346  19.540  0.00  0.00    +0.000 HD
BRANCH  15  20
ATOM     17  C   UNL     1       1.539   8.759  19.695  0.00  0.00    +0.000 A 
ATOM     18  C   UNL     1       1.503   7.785  20.693  0.00  0.00    +0.000 A 
ATOM     19  C   UNL     1       1.848   6.425  20.426  0.00  0.00    +0.000 A 
ATOM     20  C   UNL     1       2.241   6.020  19.157  0.00  0.00    +0.000 A 
ATOM     21  C   UNL     1       2.315   7.038  18.164  0.00  0.00    +0.000 A 
ATOM     22  C   UNL     1       1.961   8.377  18.412  0.00  0.00    +0.000 A 
BRANCH  17  23
ATOM     23  O   UNL     1       1.179  10.067  19.779  0.00  0.00    +0.000 OA
BRANCH  23  24
ATOM     24  C   UNL     1       0.418  10.688  18.741  0.00  0.00    +0.000 C 
BRANCH  24  25
ATOM     25  C   UNL     1      -1.081  10.442  18.927  0.00  0.00    +0.000 C 
BRANCH  25  27
ATOM     26  C   UNL     1      -2.934   9.771  17.342  0.00  0.00    +0.000 C 
ATOM     27  C   UNL     1      -1.896  10.828  17.685  0.00  0.00    +0.000 C 
ENDBRANCH  25  27
ENDBRANCH  24  25
ENDBRANCH  23  24
ENDBRANCH  17  23
ENDBRANCH  15  20
ENDBRANCH   1  15
TORSDOF 6
ENDMDL
MODEL 3
REMARK VINA RESULT:      -7.5      2.333      4.519
REMARK  Name = 
REMARK  7 active torsions:
REMARK  status: ('A' for Active; 'I' for Inactive)
REMARK    1  A    between atoms: C_1  and  C_2
REMARK    2  A    between atoms: C_2  and  C_3
REMARK    3  A    between atoms: C_3  and  C_4
REMARK    4  A    between atoms: C_4  and  O_5
REMARK    5  A    between atoms: O_5  and  C_6
REMARK    6  A    between atoms: C_9  and  N_10
REMARK    7  A    between atoms: N_10  and  C_11
REMARK                            x       y       z     vdW  Elec       q    Type
REMARK                         _______ _______ _______ _____ _____    ______ ____
ROOT
ATOM      1  C   UNL     1       2.833   4.845  20.150  0.00  0.00    +0.000 A 
ATOM      2  C   UNL     1       1.759   3.973  19.940  0.00  0.00    +0.000 A 
ATOM      3  C   UNL     1       1.384   3.933  18.608  0.00  0.00    +0.000 A 
ATOM      4  N   UNL     1       1.803   4.873  17.709  0.00  0.00    +0.000 NA
ATOM      5  C   UNL     1       2.274   6.042  18.200  0.00  0.00    +0.000 A 
ATOM      6  C   UNL     1       2.251   7.205  17.387  0.00  0.00    +0.000 A 
ATOM      7  C   UNL     1       2.129   8.520  17.859  0.00  0.00    +0.000 A 
ATOM      8  C   UNL     1       1.836   8.476  19.203  0.00  0.00    +0.000 A 
ATOM      9  C   UNL     1       1.175   9.467  19.878  0.00  0.00    +0.000 A 
ATOM     10  N   UNL     1       0.843   8.885  21.061  0.00  0.00    +0.000 N 
ATOM     11  N   UNL     1       1.432   7.680  21.277  0.00  0.00    +0.000 NA
ATOM     12  C   UNL     1       1.991   7.338  20.090  0.00  0.00    +0.000 A 
ATOM     13  C   UNL     1       2.574   6.105  19.568  0.00  0.00    +0.000 A 
ATOM     14  H   UNL     1       0.192   9.247  21.752  0.00  0.00    +0.000 HD
ENDROOT
BRANCH   1  15
ATOM     15  N   UNL     1       4.073   4.029  19.568  0.00  0.00    +0.000 N 
ATOM     16  H   UNL     1       3.545   3.293  19.061  0.00  0.00    +0.000 HD
BRANCH  15  20
ATOM     17  C   UNL     1       6.745   4.687  16.277  0.00  0.00    +0.000 A 
ATOM     18  C   UNL     1       7.061   5.212  17.531  0.00  0.00    +0.000 A 
ATOM     19  C   UNL     1       6.235   4.978  18.672  0.00  0.00    +0.000 A 
ATOM     20  C   UNL     1       5.083   4.208  18.577  0.00  0.00    +0.000 A 
ATOM     21  C   UNL     1       4.803   3.644  17.301  0.00  0.00    +0.000 A 
ATOM     22  C   UNL     1       5.600   3.882  16.166  0.00  0.00    +0.000 A 
BRANCH  17  23
ATOM     23  O   UNL     1       7.391   4.875  15.096  0.00  0.00    +0.000 OA
BRANCH  23  24
ATOM     24  C   UNL     1       6.662   5.001  13.872  0.00  0.00    +0.000 C 
BRANCH  24  25
ATOM     25  C   UNL     1       7.407   4.338  12.711  0.00  0.00    +0.000 C 
BRANCH  25  27
ATOM     26  C   UNL     1       5.086   3.471  12.204  0.00  0.00    +0.000 C 
ATOM     27  C   UNL     1       6.580   3.235  12.039  0.00  0.00    +0.000 C 
ENDBRANCH  25  27
ENDBRANCH  24  25
ENDBRANCH  23  24
ENDBRANCH  17  23
ENDBRANCH  15  20
ENDBRANCH   1  15
TORSDOF 6
ENDMDL
MODEL 4
REMARK VINA RESULT:      -7.5      3.928      8.344
REMARK  Name = 
REMARK  7 active torsions:
REMARK  status: ('A' for Active; 'I' for Inactive)
REMARK    1  A    between atoms: C_1  and  C_2
REMARK    2  A    between atoms: C_2  and  C_3
REMARK    3  A    between atoms: C_3  and  C_4
REMARK    4  A    between atoms: C_4  and  O_5
REMARK    5  A    between atoms: O_5  and  C_6
REMARK    6  A    between atoms: C_9  and  N_10
REMARK    7  A    between atoms: N_10  and  C_11
REMARK                            x       y       z     vdW  Elec       q    Type
REMARK                         _______ _______ _______ _____ _____    ______ ____
ROOT
ATOM      1  C   UNL     1       3.377   3.502  17.582  0.00  0.00    +0.000 A 
ATOM      2  C   UNL     1       3.663   2.271  18.183  0.00  0.00    +0.000 A 
ATOM      3  C   UNL     1       4.552   2.410  19.235  0.00  0.00    +0.000 A 
ATOM      4  N   UNL     1       5.283   3.548  19.421  0.00  0.00    +0.000 NA
ATOM      5  C   UNL     1       5.413   4.388  18.367  0.00  0.00    +0.000 A 
ATOM      6  C   UNL     1       6.513   5.282  18.313  0.00  0.00    +0.000 A 
ATOM      7  C   UNL     1       7.115   5.754  17.138  0.00  0.00    +0.000 A 
ATOM      8  C   UNL     1       6.598   5.055  16.071  0.00  0.00    +0.000 A 
ATOM      9  C   UNL     1       7.255   4.868  14.884  0.00  0.00    +0.000 A 
ATOM     10  N   UNL     1       6.532   3.897  14.265  0.00  0.00    +0.000 N 
ATOM     11  N   UNL     1       5.347   3.612  14.867  0.00  0.00    +0.000 NA
ATOM     12  C   UNL     1       5.392   4.250  16.062  0.00  0.00    +0.000 A 
ATOM     13  C   UNL     1       4.567   4.192  17.266  0.00  0.00    +0.000 A 
ATOM     14  H   UNL     1       6.809   3.366  13.444  0.00  0.00    +0.000 HD
ENDROOT
BRANCH   1  15
ATOM     15  N   UNL     1       2.404   4.197  18.639  0.00  0.00    +0.000 N 
ATOM     16  H   UNL     1       2.911   3.934  19.505  0.00  0.00    +0.000 HD
BRANCH  15  20
ATOM     17  C   UNL     1       1.604   8.067  20.304  0.00  0.00    +0.000 A 
ATOM     18  C   UNL     1       2.088   7.971  18.999  0.00  0.00    +0.000 A 
ATOM     19  C   UNL     1       2.321   6.707  18.377  0.00  0.00    +0.000 A 
ATOM     20  C   UNL     1       2.065   5.519  19.049  0.00  0.00    +0.000 A 
ATOM     21  C   UNL     1       1.529   5.639  20.362  0.00  0.00    +0.000 A 
ATOM     22  C   UNL     1       1.312   6.879  20.991  0.00  0.00    +0.000 A 
BRANCH  17  23
ATOM     23  O   UNL     1       1.397   9.187  21.046  0.00  0.00    +0.000 OA
BRANCH  23  24
ATOM     24  C   UNL     1       1.387   9.129  22.475  0.00  0.00    +0.000 C 
BRANCH  24  25
ATOM     25  C   UNL     1       0.051   9.615  23.041  0.00  0.00    +0.000 C 
BRANCH  25  27
ATOM     26  C   UNL     1      -1.665  11.474  23.033  0.00  0.00    +0.000 C 
ATOM     27  C   UNL     1      -0.478  10.856  22.310  0.00  0.00    +0.000 C 
ENDBRANCH  25  27
ENDBRANCH  24  25
ENDBRANCH  23  24
ENDBRANCH  17  23
ENDBRANCH  15  20
ENDBRANCH   1  15
TORSDOF 6
ENDMDL
MODEL 5
REMARK VINA RESULT:      -7.4      4.454      7.969
REMARK  Name = 
REMARK  7 active torsions:
REMARK  status: ('A' for Active; 'I' for Inactive)
REMARK    1  A    between atoms: C_1  and  C_2
REMARK    2  A    between atoms: C_2  and  C_3
REMARK    3  A    between atoms: C_3  and  C_4
REMARK    4  A    between atoms: C_4  and  O_5
REMARK    5  A    between atoms: O_5  and  C_6
REMARK    6  A    between atoms: C_9  and  N_10
REMARK    7  A    between atoms: N_10  and  C_11
REMARK                            x       y       z     vdW  Elec       q    Type
REMARK                         _______ _______ _______ _____ _____    ______ ____
ROOT
ATOM      1  C   UNL     1       3.215   6.078  17.854  0.00  0.00    +0.000 A 
ATOM      2  C   UNL     1       2.542   4.861  18.015  0.00  0.00    +0.000 A 
ATOM      3  C   UNL     1       3.112   4.090  19.014  0.00  0.00    +0.000 A 
ATOM      4  N   UNL     1       4.352   4.360  19.519  0.00  0.00    +0.000 NA
ATOM      5  C   UNL     1       5.169   5.150  18.785  0.00  0.00    +0.000 A 
ATOM      6  C   UNL     1       6.574   5.071  18.969  0.00  0.00    +0.000 A 
ATOM      7  C   UNL     1       7.535   5.324  17.980  0.00  0.00    +0.000 A 
ATOM      8  C   UNL     1       6.892   5.461  16.771  0.00  0.00    +0.000 A 
ATOM      9  C   UNL     1       7.478   5.219  15.557  0.00  0.00    +0.000 A 
ATOM     10  N   UNL     1       6.427   5.179  14.694  0.00  0.00    +0.000 N 
ATOM     11  N   UNL     1       5.249   5.595  15.228  0.00  0.00    +0.000 NA
ATOM     12  C   UNL     1       5.475   5.691  16.561  0.00  0.00    +0.000 A 
ATOM     13  C   UNL     1       4.604   5.866  17.720  0.00  0.00    +0.000 A 
ATOM     14  H   UNL     1       6.445   4.846  13.734  0.00  0.00    +0.000 HD
ENDROOT
BRANCH   1  15
ATOM     15  N   UNL     1       2.737   6.919  19.122  0.00  0.00    +0.000 N 
ATOM     16  H   UNL     1       3.643   7.366  19.356  0.00  0.00    +0.000 HD
BRANCH  15  20
ATOM     17  C   UNL     1       0.041  10.233  19.507  0.00  0.00    +0.000 A 
ATOM     18  C   UNL     1       0.353   9.471  20.633  0.00  0.00    +0.000 A 
ATOM     19  C   UNL     1       1.285   8.390  20.573  0.00  0.00    +0.000 A 
ATOM     20  C   UNL     1       1.925   8.062  19.384  0.00  0.00    +0.000 A 
ATOM     21  C   UNL     1       1.628   8.880  18.259  0.00  0.00    +0.000 A 
ATOM     22  C   UNL     1       0.698   9.935  18.303  0.00  0.00    +0.000 A 
BRANCH  17  23
ATOM     23  O   UNL     1      -0.866  11.239  19.394  0.00  0.00    +0.000 OA
BRANCH  23  24
ATOM     24  C   UNL     1      -1.458  11.557  18.132  0.00  0.00    +0.000 C 
BRANCH  24  25
ATOM     25  C   UNL     1      -2.981  11.418  18.180  0.00  0.00    +0.000 C 
BRANCH  25  27
ATOM     26  C   UNL     1      -2.589  10.152  16.026  0.00  0.00    +0.000 C 
ATOM     27  C   UNL     1      -3.572  10.988  16.832  0.00  0.00    +0.000 C 
ENDBRANCH  25  27
ENDBRANCH  24  25
ENDBRANCH  23  24
ENDBRANCH  17  23
ENDBRANCH  15  20
ENDBRANCH   1  15
TORSDOF 6
ENDMDL
MODEL 6
REMARK VINA RESULT:      -7.4      3.929      7.680
REMARK  Name = 
REMARK  7 active torsions:
REMARK  status: ('A' for Active; 'I' for Inactive)
REMARK    1  A    between atoms: C_1  and  C_2
REMARK    2  A    between atoms: C_2  and  C_3
REMARK    3  A    between atoms: C_3  and  C_4
REMARK    4  A    between atoms: C_4  and  O_5
REMARK    5  A    between atoms: O_5  and  C_6
REMARK    6  A    between atoms: C_9  and  N_10
REMARK    7  A    between atoms: N_10  and  C_11
REMARK                            x       y       z     vdW  Elec       q    Type
REMARK                         _______ _______ _______ _____ _____    ______ ____
ROOT
ATOM      1  C   UNL     1       3.566   4.551  17.854  0.00  0.00    +0.000 A 
ATOM      2  C   UNL     1       3.694   3.331  18.528  0.00  0.00    +0.000 A 
ATOM      3  C   UNL     1       4.743   3.353  19.431  0.00  0.00    +0.000 A 
ATOM      4  N   UNL     1       5.704   4.324  19.403  0.00  0.00    +0.000 NA
ATOM      5  C   UNL     1       5.832   5.045  18.264  0.00  0.00    +0.000 A 
ATOM      6  C   UNL     1       7.064   5.685  17.974  0.00  0.00    +0.000 A 
ATOM      7  C   UNL     1       7.560   5.940  16.687  0.00  0.00    +0.000 A 
ATOM      8  C   UNL     1       6.759   5.294  15.774  0.00  0.00    +0.000 A 
ATOM      9  C   UNL     1       7.177   4.894  14.533  0.00  0.00    +0.000 A 
ATOM     10  N   UNL     1       6.191   4.055  14.116  0.00  0.00    +0.000 N 
ATOM     11  N   UNL     1       5.080   4.065  14.898  0.00  0.00    +0.000 NA
ATOM     12  C   UNL     1       5.431   4.758  16.008  0.00  0.00    +0.000 A 
ATOM     13  C   UNL     1       4.805   4.955  17.313  0.00  0.00    +0.000 A 
ATOM     14  H   UNL     1       6.229   3.424  13.320  0.00  0.00    +0.000 HD
ENDROOT
BRANCH   1  15
ATOM     15  N   UNL     1       2.922   5.503  18.961  0.00  0.00    +0.000 N 
ATOM     16  H   UNL     1       3.798   5.800  19.431  0.00  0.00    +0.000 HD
BRANCH  15  20
ATOM     17  C   UNL     1       1.226   9.399  19.541  0.00  0.00    +0.000 A 
ATOM     18  C   UNL     1       1.699   9.040  18.279  0.00  0.00    +0.000 A 
ATOM     19  C   UNL     1       2.224   7.738  18.016  0.00  0.00    +0.000 A 
ATOM     20  C   UNL     1       2.276   6.772  19.013  0.00  0.00    +0.000 A 
ATOM     21  C   UNL     1       1.747   7.144  20.281  0.00  0.00    +0.000 A 
ATOM     22  C   UNL     1       1.244   8.429  20.555  0.00  0.00    +0.000 A 
BRANCH  17  23
ATOM     23  O   UNL     1       0.764  10.608  19.956  0.00  0.00    +0.000 OA
BRANCH  23  24
ATOM     24  C   UNL     1      -0.638  10.887  19.989  0.00  0.00    +0.000 C 
BRANCH  24  25
ATOM     25  C   UNL     1      -1.143  11.358  18.623  0.00  0.00    +0.000 C 
BRANCH  25  27
ATOM     26  C   UNL     1      -3.230  10.265  17.703  0.00  0.00    +0.000 C 
ATOM     27  C   UNL     1      -1.712  10.209  17.781  0.00  0.00    +0.000 C 
ENDBRANCH  25  27
ENDBRANCH  24  25
ENDBRANCH  23  24
ENDBRANCH  17  23
ENDBRANCH  15  20
ENDBRANCH   1  15
TORSDOF 6
ENDMDL
MODEL 7
REMARK VINA RESULT:      -7.4      4.293      8.578
REMARK  Name = 
REMARK  7 active torsions:
REMARK  status: ('A' for Active; 'I' for Inactive)
REMARK    1  A    between atoms: C_1  and  C_2
REMARK    2  A    between atoms: C_2  and  C_3
REMARK    3  A    between atoms: C_3  and  C_4
REMARK    4  A    between atoms: C_4  and  O_5
REMARK    5  A    between atoms: O_5  and  C_6
REMARK    6  A    between atoms: C_9  and  N_10
REMARK    7  A    between atoms: N_10  and  C_11
REMARK                            x       y       z     vdW  Elec       q    Type
REMARK                         _______ _______ _______ _____ _____    ______ ____
ROOT
ATOM      1  C   UNL     1       3.143   5.092  17.694  0.00  0.00    +0.000 A 
ATOM      2  C   UNL     1       2.645   3.814  17.976  0.00  0.00    +0.000 A 
ATOM      3  C   UNL     1       3.412   3.165  18.928  0.00  0.00    +0.000 A 
ATOM      4  N   UNL     1       4.658   3.602  19.277  0.00  0.00    +0.000 NA
ATOM      5  C   UNL     1       5.287   4.445  18.425  0.00  0.00    +0.000 A 
ATOM      6  C   UNL     1       6.702   4.540  18.448  0.00  0.00    +0.000 A 
ATOM      7  C   UNL     1       7.510   4.854  17.346  0.00  0.00    +0.000 A 
ATOM      8  C   UNL     1       6.726   4.856  16.216  0.00  0.00    +0.000 A 
ATOM      9  C   UNL     1       7.199   4.624  14.952  0.00  0.00    +0.000 A 
ATOM     10  N   UNL     1       6.072   4.419  14.218  0.00  0.00    +0.000 N 
ATOM     11  N   UNL     1       4.918   4.720  14.869  0.00  0.00    +0.000 NA
ATOM     12  C   UNL     1       5.277   4.907  16.163  0.00  0.00    +0.000 A 
ATOM     13  C   UNL     1       4.525   5.037  17.408  0.00  0.00    +0.000 A 
ATOM     14  H   UNL     1       6.023   4.043  13.275  0.00  0.00    +0.000 HD
ENDROOT
BRANCH   1  15
ATOM     15  N   UNL     1       2.710   5.934  18.978  0.00  0.00    +0.000 N 
ATOM     16  H   UNL     1       3.651   6.075  19.390  0.00  0.00    +0.000 HD
BRANCH  15  20
ATOM     17  C   UNL     1       0.931   9.809  19.442  0.00  0.00    +0.000 A 
ATOM     18  C   UNL     1       1.070   8.981  20.558  0.00  0.00    +0.000 A 
ATOM     19  C   UNL     1       1.703   7.704  20.470  0.00  0.00    +0.000 A 
ATOM     20  C   UNL     1       2.214   7.239  19.265  0.00  0.00    +0.000 A 
ATOM     21  C   UNL     1       2.102   8.116  18.150  0.00  0.00    +0.000 A 
ATOM     22  C   UNL     1       1.465   9.368  18.221  0.00  0.00    +0.000 A 
BRANCH  17  23
ATOM     23  O   UNL     1       0.299  11.009  19.356  0.00  0.00    +0.000 OA
BRANCH  23  24
ATOM     24  C   UNL     1      -0.874  11.279  20.128  0.00  0.00    +0.000 C 
BRANCH  24  25
ATOM     25  C   UNL     1      -0.540  12.090  21.382  0.00  0.00    +0.000 C 
BRANCH  25  27
ATOM     26  C   UNL     1      -2.330  11.989  23.166  0.00  0.00    +0.000 C 
ATOM     27  C   UNL     1      -1.018  11.403  22.668  0.00  0.00    +0.000 C 
ENDBRANCH  25  27
ENDBRANCH  24  25
ENDBRANCH  23  24
ENDBRANCH  17  23
ENDBRANCH  15  20
ENDBRANCH   1  15
TORSDOF 6
ENDMDL
MODEL 8
REMARK VINA RESULT:      -7.4      3.889      7.890
REMARK  Name = 
REMARK  7 active torsions:
REMARK  status: ('A' for Active; 'I' for Inactive)
REMARK    1  A    between atoms: C_1  and  C_2
REMARK    2  A    between atoms: C_2  and  C_3
REMARK    3  A    between atoms: C_3  and  C_4
REMARK    4  A    between atoms: C_4  and  O_5
REMARK    5  A    between atoms: O_5  and  C_6
REMARK    6  A    between atoms: C_9  and  N_10
REMARK    7  A    between atoms: N_10  and  C_11
REMARK                            x       y       z     vdW  Elec       q    Type
REMARK                         _______ _______ _______ _____ _____    ______ ____
ROOT
ATOM      1  C   UNL     1       3.254   4.061  17.574  0.00  0.00    +0.000 A 
ATOM      2  C   UNL     1       3.292   2.743  18.042  0.00  0.00    +0.000 A 
ATOM      3  C   UNL     1       4.184   2.598  19.092  0.00  0.00    +0.000 A 
ATOM      4  N   UNL     1       5.120   3.550  19.384  0.00  0.00    +0.000 NA
ATOM      5  C   UNL     1       5.417   4.453  18.420  0.00  0.00    +0.000 A 
ATOM      6  C   UNL     1       6.668   5.119  18.444  0.00  0.00    +0.000 A 
ATOM      7  C   UNL     1       7.359   5.585  17.316  0.00  0.00    +0.000 A 
ATOM      8  C   UNL     1       6.725   5.113  16.190  0.00  0.00    +0.000 A 
ATOM      9  C   UNL     1       7.342   4.926  14.982  0.00  0.00    +0.000 A 
ATOM     10  N   UNL     1       6.449   4.182  14.275  0.00  0.00    +0.000 N 
ATOM     11  N   UNL     1       5.228   4.070  14.860  0.00  0.00    +0.000 NA
ATOM     12  C   UNL     1       5.386   4.560  16.114  0.00  0.00    +0.000 A 
ATOM     13  C   UNL     1       4.557   4.538  17.316  0.00  0.00    +0.000 A 
ATOM     14  H   UNL     1       6.625   3.695  13.401  0.00  0.00    +0.000 HD
ENDROOT
BRANCH   1  15
ATOM     15  N   UNL     1       2.426   4.817  18.709  0.00  0.00    +0.000 N 
ATOM     16  H   UNL     1       2.977   4.505  19.531  0.00  0.00    +0.000 HD
BRANCH  15  20
ATOM     17  C   UNL     1       1.530   8.905  19.650  0.00  0.00    +0.000 A 
ATOM     18  C   UNL     1       1.490   7.945  20.662  0.00  0.00    +0.000 A 
ATOM     19  C   UNL     1       1.831   6.580  20.416  0.00  0.00    +0.000 A 
ATOM     20  C   UNL     1       2.225   6.156  19.153  0.00  0.00    +0.000 A 
ATOM     21  C   UNL     1       2.303   7.159  18.146  0.00  0.00    +0.000 A 
ATOM     22  C   UNL     1       1.952   8.502  18.374  0.00  0.00    +0.000 A 
BRANCH  17  23
ATOM     23  O   UNL     1       1.174  10.215  19.716  0.00  0.00    +0.000 OA
BRANCH  23  24
ATOM     24  C   UNL     1       0.453  10.834  18.647  0.00  0.00    +0.000 C 
BRANCH  24  25
ATOM     25  C   UNL     1      -1.059  10.724  18.859  0.00  0.00    +0.000 C 
BRANCH  25  27
ATOM     26  C   UNL     1      -1.558  11.983  20.996  0.00  0.00    +0.000 C 
ATOM     27  C   UNL     1      -1.656  11.995  19.478  0.00  0.00    +0.000 C 
ENDBRANCH  25  27
ENDBRANCH  24  25
ENDBRANCH  23  24
ENDBRANCH  17  23
ENDBRANCH  15  20
ENDBRANCH   1  15
TORSDOF 6
ENDMDL
MODEL 9
REMARK VINA RESULT:      -7.4      3.911      7.750
REMARK  Name = 
REMARK  7 active torsions:
REMARK  status: ('A' for Active; 'I' for Inactive)
REMARK    1  A    between atoms: C_1  and  C_2
REMARK    2  A    between atoms: C_2  and  C_3
REMARK    3  A    between atoms: C_3  and  C_4
REMARK    4  A    between atoms: C_4  and  O_5
REMARK    5  A    between atoms: O_5  and  C_6
REMARK    6  A    between atoms: C_9  and  N_10
REMARK    7  A    between atoms: N_10  and  C_11
REMARK                            x       y       z     vdW  Elec       q    Type
REMARK                         _______ _______ _______ _____ _____    ______ ____
ROOT
ATOM      1  C   UNL     1       3.253   3.966  17.529  0.00  0.00    +0.000 A 
ATOM      2  C   UNL     1       3.342   2.655  18.009  0.00  0.00    +0.000 A 
ATOM      3  C   UNL     1       4.217   2.559  19.078  0.00  0.00    +0.000 A 
ATOM      4  N   UNL     1       5.102   3.554  19.381  0.00  0.00    +0.000 NA
ATOM      5  C   UNL     1       5.378   4.462  18.417  0.00  0.00    +0.000 A 
ATOM      6  C   UNL     1       6.597   5.186  18.461  0.00  0.00    +0.000 A 
ATOM      7  C   UNL     1       7.290   5.674  17.344  0.00  0.00    +0.000 A 
ATOM      8  C   UNL     1       6.702   5.165  16.209  0.00  0.00    +0.000 A 
ATOM      9  C   UNL     1       7.352   4.998  15.015  0.00  0.00    +0.000 A 
ATOM     10  N   UNL     1       6.510   4.208  14.297  0.00  0.00    +0.000 N 
ATOM     11  N   UNL     1       5.282   4.045  14.857  0.00  0.00    +0.000 NA
ATOM     12  C   UNL     1       5.391   4.551  16.109  0.00  0.00    +0.000 A 
ATOM     13  C   UNL     1       4.539   4.500  17.294  0.00  0.00    +0.000 A 
ATOM     14  H   UNL     1       6.726   3.724  13.430  0.00  0.00    +0.000 HD
ENDROOT
BRANCH   1  15
ATOM     15  N   UNL     1       2.368   4.692  18.640  0.00  0.00    +0.000 N 
ATOM     16  H   UNL     1       2.836   4.305  19.482  0.00  0.00    +0.000 HD
BRANCH  15  20
ATOM     17  C   UNL     1       1.538   8.741  19.787  0.00  0.00    +0.000 A 
ATOM     18  C   UNL     1       1.489   7.733  20.751  0.00  0.00    +0.000 A 
ATOM     19  C   UNL     1       1.808   6.377  20.436  0.00  0.00    +0.000 A 
ATOM     20  C   UNL     1       2.190   6.011  19.151  0.00  0.00    +0.000 A 
ATOM     21  C   UNL     1       2.278   7.061  18.195  0.00  0.00    +0.000 A 
ATOM     22  C   UNL     1       1.948   8.396  18.490  0.00  0.00    +0.000 A 
BRANCH  17  23
ATOM     23  O   UNL     1       1.202  10.051  19.919  0.00  0.00    +0.000 OA
BRANCH  23  24
ATOM     24  C   UNL     1       0.087  10.598  19.211  0.00  0.00    +0.000 C 
BRANCH  24  25
ATOM     25  C   UNL     1       0.314  12.073  18.870  0.00  0.00    +0.000 C 
BRANCH  25  27
ATOM     26  C   UNL     1       2.587  12.907  18.137  0.00  0.00    +0.000 C 
ATOM     27  C   UNL     1       1.693  12.572  19.321  0.00  0.00    +0.000 C 
ENDBRANCH  25  27
ENDBRANCH  24  25
ENDBRANCH  23  24
ENDBRANCH  17  23
ENDBRANCH  15  20
ENDBRANCH   1  15
TORSDOF 6
ENDMDL
