MODEL 1
REMARK VINA RESULT:      -7.1      0.000      0.000
REMARK  Name = 
REMARK  6 active torsions:
REMARK  status: ('A' for Active; 'I' for Inactive)
REMARK    1  A    between atoms: C_1  and  N_2
REMARK    2  A    between atoms: N_2  and  C_3
REMARK    3  A    between atoms: C_3  and  C_4
REMARK    4  A    between atoms: C_10  and  C_12
REMARK    5  A    between atoms: C_12  and  O_13
REMARK    6  A    between atoms: O_13  and  C_14
REMARK                            x       y       z     vdW  Elec       q    Type
REMARK                         _______ _______ _______ _____ _____    ______ ____
ROOT
ATOM      1  C   UNL     1       0.468   9.291  20.588  0.00  0.00    +0.000 C 
ATOM      2  N   UNL     1       0.825   9.751  19.254  0.00  0.00    +0.000 N 
ATOM      3  C   UNL     1       1.713   9.070  18.425  0.00  0.00    +0.000 C 
ATOM      4  O   UNL     1       2.046   9.505  17.319  0.00  0.00    +0.000 OA
ENDROOT
BRANCH   2   5
ATOM      5  C   UNL     1       0.232  11.004  18.783  0.00  0.00    +0.000 C 
BRANCH   5   6
ATOM      6  C   UNL     1      -1.222  10.873  18.379  0.00  0.00    +0.000 A 
ATOM      7  C   UNL     1      -2.193  11.725  18.929  0.00  0.00    +0.000 A 
ATOM      8  C   UNL     1      -3.537  11.611  18.558  0.00  0.00    +0.000 A 
ATOM      9  C   UNL     1      -3.922  10.646  17.632  0.00  0.00    +0.000 A 
ATOM     10  C   UNL     1      -2.966   9.810  17.061  0.00  0.00    +0.000 A 
ATOM     11  C   UNL     1      -1.622   9.924  17.428  0.00  0.00    +0.000 A 
ENDBRANCH   5   6
ENDBRANCH   2   5
BRANCH   3  12
ATOM     12  C   UNL     1       2.257   7.717  18.910  0.00  0.00    +0.000 C 
BRANCH  12  13
ATOM     13  O   UNL     1       3.232   7.217  18.012  0.00  0.00    +0.000 OA
BRANCH  13  14
ATOM     14  C   UNL     1       3.351   5.870  17.791  0.00  0.00    +0.000 A 
ATOM     15  C   UNL     1       2.258   5.166  18.333  0.00  0.00    +0.000 A 
ATOM     16  C   UNL     1       2.153   3.779  18.208  0.00  0.00    +0.000 A 
ATOM     17 CL   UNL     1       0.804   2.953  18.883  0.00  0.00    +0.000 Cl
ATOM     18  C   UNL     1       3.133   3.062  17.537  0.00  0.00    +0.000 A 
ATOM     19  C   UNL     1       4.224   3.741  16.997  0.00  0.00    +0.000 A 
ATOM     20  C   UNL     1       4.343   5.138  17.120  0.00  0.00    +0.000 A 
ATOM     21 CL   UNL     1       5.758   5.799  16.380  0.00  0.00    +0.000 Cl
ENDBRANCH  13  14
ENDBRANCH  12  13
ENDBRANCH   3  12
TORSDOF 5
ENDMDL
MODEL 2
REMARK VINA RESULT:      -7.0      5.538      8.052
REMARK  Name = 
REMARK  6 active torsions:
REMARK  status: ('A' for Active; 'I' for Inactive)
REMARK    1  A    between atoms: C_1  and  N_2
REMARK    2  A    between atoms: N_2  and  C_3
REMARK    3  A    between atoms: C_3  and  C_4
REMARK    4  A    between atoms: C_10  and  C_12
REMARK    5  A    between atoms: C_12  and  O_13
REMARK    6  A    between atoms: O_13  and  C_14
REMARK                            x       y       z     vdW  Elec       q    Type
REMARK                         _______ _______ _______ _____ _____    ______ ____
ROOT
ATOM      1  C   UNL     1       5.573   6.475  16.378  0.00  0.00    +0.000 C 
ATOM      2  N   UNL     1       6.730   5.595  16.452  0.00  0.00    +0.000 N 
ATOM      3  C   UNL     1       7.095   4.912  17.609  0.00  0.00    +0.000 C 
ATOM      4  O   UNL     1       8.111   4.214  17.668  0.00  0.00    +0.000 OA
ENDROOT
BRANCH   2   5
ATOM      5  C   UNL     1       7.551   5.447  15.250  0.00  0.00    +0.000 C 
BRANCH   5   6
ATOM      6  C   UNL     1       6.858   4.704  14.128  0.00  0.00    +0.000 A 
ATOM      7  C   UNL     1       7.487   4.546  12.883  0.00  0.00    +0.000 A 
ATOM      8  C   UNL     1       6.853   3.858  11.843  0.00  0.00    +0.000 A 
ATOM      9  C   UNL     1       5.585   3.318  12.039  0.00  0.00    +0.000 A 
ATOM     10  C   UNL     1       4.959   3.447  13.276  0.00  0.00    +0.000 A 
ATOM     11  C   UNL     1       5.592   4.131  14.318  0.00  0.00    +0.000 A 
ENDBRANCH   5   6
ENDBRANCH   2   5
BRANCH   3  12
ATOM     12  C   UNL     1       6.170   5.020  18.831  0.00  0.00    +0.000 C 
BRANCH  12  13
ATOM     13  O   UNL     1       5.522   3.784  19.081  0.00  0.00    +0.000 OA
BRANCH  13  14
ATOM     14  C   UNL     1       4.165   3.733  19.263  0.00  0.00    +0.000 A 
ATOM     15  C   UNL     1       3.669   4.957  19.750  0.00  0.00    +0.000 A 
ATOM     16  C   UNL     1       2.306   5.146  19.989  0.00  0.00    +0.000 A 
ATOM     17 CL   UNL     1       1.736   6.656  20.584  0.00  0.00    +0.000 Cl
ATOM     18  C   UNL     1       1.405   4.119  19.743  0.00  0.00    +0.000 A 
ATOM     19  C   UNL     1       1.878   2.899  19.264  0.00  0.00    +0.000 A 
ATOM     20  C   UNL     1       3.250   2.695  19.024  0.00  0.00    +0.000 A 
ATOM     21 CL   UNL     1       3.642   1.122  18.425  0.00  0.00    +0.000 Cl
ENDBRANCH  13  14
ENDBRANCH  12  13
ENDBRANCH   3  12
TORSDOF 5
ENDMDL
MODEL 3
REMARK VINA RESULT:      -7.0      0.680      1.266
REMARK  Name = 
REMARK  6 active torsions:
REMARK  status: ('A' for Active; 'I' for Inactive)
REMARK    1  A    between atoms: C_1  and  N_2
REMARK    2  A    between atoms: N_2  and  C_3
REMARK    3  A    between atoms: C_3  and  C_4
REMARK    4  A    between atoms: C_10  and  C_12
REMARK    5  A    between atoms: C_12  and  O_13
REMARK    6  A    between atoms: O_13  and  C_14
REMARK                            x       y       z     vdW  Elec       q    Type
REMARK                         _______ _______ _______ _____ _____    ______ ____
ROOT
ATOM      1  C   UNL     1       0.669   9.252  20.577  0.00  0.00    +0.000 C 
ATOM      2  N   UNL     1       1.031   9.625  19.217  0.00  0.00    +0.000 N 
ATOM      3  C   UNL     1       1.867   8.856  18.413  0.00  0.00    +0.000 C 
ATOM      4  O   UNL     1       2.207   9.218  17.282  0.00  0.00    +0.000 OA
ENDROOT
BRANCH   2   5
ATOM      5  C   UNL     1       0.499  10.884  18.692  0.00  0.00    +0.000 C 
BRANCH   5   6
ATOM      6  C   UNL     1      -0.974  10.825  18.347  0.00  0.00    +0.000 A 
ATOM      7  C   UNL     1      -1.450   9.886  17.418  0.00  0.00    +0.000 A 
ATOM      8  C   UNL     1      -2.810   9.825  17.097  0.00  0.00    +0.000 A 
ATOM      9  C   UNL     1      -3.708  10.699  17.704  0.00  0.00    +0.000 A 
ATOM     10  C   UNL     1      -3.252  11.620  18.645  0.00  0.00    +0.000 A 
ATOM     11  C   UNL     1      -1.894  11.680  18.970  0.00  0.00    +0.000 A 
ENDBRANCH   5   6
ENDBRANCH   2   5
BRANCH   3  12
ATOM     12  C   UNL     1       2.344   7.501  18.957  0.00  0.00    +0.000 C 
BRANCH  12  13
ATOM     13  O   UNL     1       2.987   6.750  17.942  0.00  0.00    +0.000 OA
BRANCH  13  14
ATOM     14  C   UNL     1       3.056   5.384  18.025  0.00  0.00    +0.000 A 
ATOM     15  C   UNL     1       2.181   4.887  19.009  0.00  0.00    +0.000 A 
ATOM     16  C   UNL     1       2.066   3.517  19.254  0.00  0.00    +0.000 A 
ATOM     17 CL   UNL     1       0.986   2.946  20.465  0.00  0.00    +0.000 Cl
ATOM     18  C   UNL     1       2.817   2.610  18.520  0.00  0.00    +0.000 A 
ATOM     19  C   UNL     1       3.692   3.084  17.544  0.00  0.00    +0.000 A 
ATOM     20  C   UNL     1       3.820   4.462  17.291  0.00  0.00    +0.000 A 
ATOM     21 CL   UNL     1       4.946   4.854  16.040  0.00  0.00    +0.000 Cl
ENDBRANCH  13  14
ENDBRANCH  12  13
ENDBRANCH   3  12
TORSDOF 5
ENDMDL
MODEL 4
REMARK VINA RESULT:      -6.9      3.199      7.361
REMARK  Name = 
REMARK  6 active torsions:
REMARK  status: ('A' for Active; 'I' for Inactive)
REMARK    1  A    between atoms: C_1  and  N_2
REMARK    2  A    between atoms: N_2  and  C_3
REMARK    3  A    between atoms: C_3  and  C_4
REMARK    4  A    between atoms: C_10  and  C_12
REMARK    5  A    between atoms: C_12  and  O_13
REMARK    6  A    between atoms: O_13  and  C_14
REMARK                            x       y       z     vdW  Elec       q    Type
REMARK                         _______ _______ _______ _____ _____    ______ ____
ROOT
ATOM      1  C   UNL     1       1.428   8.027  20.559  0.00  0.00    +0.000 C 
ATOM      2  N   UNL     1       2.211   7.712  19.373  0.00  0.00    +0.000 N 
ATOM      3  C   UNL     1       2.175   8.475  18.210  0.00  0.00    +0.000 C 
ATOM      4  O   UNL     1       2.804   8.160  17.196  0.00  0.00    +0.000 OA
ENDROOT
BRANCH   2   5
ATOM      5  C   UNL     1       3.058   6.518  19.414  0.00  0.00    +0.000 C 
BRANCH   5   6
ATOM      6  C   UNL     1       2.278   5.220  19.413  0.00  0.00    +0.000 A 
ATOM      7  C   UNL     1       1.948   4.589  18.203  0.00  0.00    +0.000 A 
ATOM      8  C   UNL     1       1.229   3.389  18.194  0.00  0.00    +0.000 A 
ATOM      9  C   UNL     1       0.837   2.806  19.396  0.00  0.00    +0.000 A 
ATOM     10  C   UNL     1       1.179   3.409  20.604  0.00  0.00    +0.000 A 
ATOM     11  C   UNL     1       1.899   4.606  20.615  0.00  0.00    +0.000 A 
ENDBRANCH   5   6
ENDBRANCH   2   5
BRANCH   3  12
ATOM     12  C   UNL     1       1.343   9.767  18.223  0.00  0.00    +0.000 C 
BRANCH  12  13
ATOM     13  O   UNL     1       0.051   9.538  17.689  0.00  0.00    +0.000 OA
BRANCH  13  14
ATOM     14  C   UNL     1      -1.010  10.317  18.072  0.00  0.00    +0.000 A 
ATOM     15  C   UNL     1      -0.778  10.911  19.327  0.00  0.00    +0.000 A 
ATOM     16  C   UNL     1      -1.716  11.768  19.909  0.00  0.00    +0.000 A 
ATOM     17 CL   UNL     1      -1.399  12.477  21.444  0.00  0.00    +0.000 Cl
ATOM     18  C   UNL     1      -2.903  12.054  19.251  0.00  0.00    +0.000 A 
ATOM     19  C   UNL     1      -3.151  11.472  18.010  0.00  0.00    +0.000 A 
ATOM     20  C   UNL     1      -2.217  10.604  17.415  0.00  0.00    +0.000 A 
ATOM     21 CL   UNL     1      -2.698   9.988  15.873  0.00  0.00    +0.000 Cl
ENDBRANCH  13  14
ENDBRANCH  12  13
ENDBRANCH   3  12
TORSDOF 5
ENDMDL
MODEL 5
REMARK VINA RESULT:      -6.9      5.212      6.750
REMARK  Name = 
REMARK  6 active torsions:
REMARK  status: ('A' for Active; 'I' for Inactive)
REMARK    1  A    between atoms: C_1  and  N_2
REMARK    2  A    between atoms: N_2  and  C_3
REMARK    3  A    between atoms: C_3  and  C_4
REMARK    4  A    between atoms: C_10  and  C_12
REMARK    5  A    between atoms: C_12  and  O_13
REMARK    6  A    between atoms: O_13  and  C_14
REMARK                            x       y       z     vdW  Elec       q    Type
REMARK                         _______ _______ _______ _____ _____    ______ ____
ROOT
ATOM      1  C   UNL     1       4.454   6.861  17.272  0.00  0.00    +0.000 C 
ATOM      2  N   UNL     1       4.762   6.176  18.519  0.00  0.00    +0.000 N 
ATOM      3  C   UNL     1       6.029   5.691  18.829  0.00  0.00    +0.000 C 
ATOM      4  O   UNL     1       6.257   5.063  19.868  0.00  0.00    +0.000 OA
ENDROOT
BRANCH   2   5
ATOM      5  C   UNL     1       3.670   5.975  19.473  0.00  0.00    +0.000 C 
BRANCH   5   6
ATOM      6  C   UNL     1       2.872   4.713  19.227  0.00  0.00    +0.000 A 
ATOM      7  C   UNL     1       1.933   4.656  18.185  0.00  0.00    +0.000 A 
ATOM      8  C   UNL     1       1.193   3.491  17.951  0.00  0.00    +0.000 A 
ATOM      9  C   UNL     1       1.389   2.372  18.754  0.00  0.00    +0.000 A 
ATOM     10  C   UNL     1       2.333   2.407  19.777  0.00  0.00    +0.000 A 
ATOM     11  C   UNL     1       3.076   3.568  20.011  0.00  0.00    +0.000 A 
ENDBRANCH   5   6
ENDBRANCH   2   5
BRANCH   3  12
ATOM     12  C   UNL     1       7.174   5.987  17.848  0.00  0.00    +0.000 C 
BRANCH  12  13
ATOM     13  O   UNL     1       7.531   4.821  17.126  0.00  0.00    +0.000 OA
BRANCH  13  14
ATOM     14  C   UNL     1       6.912   4.517  15.943  0.00  0.00    +0.000 A 
ATOM     15  C   UNL     1       7.604   5.069  14.848  0.00  0.00    +0.000 A 
ATOM     16  C   UNL     1       7.167   4.868  13.536  0.00  0.00    +0.000 A 
ATOM     17 CL   UNL     1       8.038   5.558  12.223  0.00  0.00    +0.000 Cl
ATOM     18  C   UNL     1       6.033   4.109  13.286  0.00  0.00    +0.000 A 
ATOM     19  C   UNL     1       5.333   3.558  14.358  0.00  0.00    +0.000 A 
ATOM     20  C   UNL     1       5.760   3.757  15.684  0.00  0.00    +0.000 A 
ATOM     21 CL   UNL     1       4.769   2.989  16.874  0.00  0.00    +0.000 Cl
ENDBRANCH  13  14
ENDBRANCH  12  13
ENDBRANCH   3  12
TORSDOF 5
ENDMDL
MODEL 6
REMARK VINA RESULT:      -6.8      5.190      6.693
REMARK  Name = 
REMARK  6 active torsions:
REMARK  status: ('A' for Active; 'I' for Inactive)
REMARK    1  A    between atoms: C_1  and  N_2
REMARK    2  A    between atoms: N_2  and  C_3
REMARK    3  A    between atoms: C_3  and  C_4
REMARK    4  A    between atoms: C_10  and  C_12
REMARK    5  A    between atoms: C_12  and  O_13
REMARK    6  A    between atoms: O_13  and  C_14
REMARK                            x       y       z     vdW  Elec       q    Type
REMARK                         _______ _______ _______ _____ _____    ______ ____
ROOT
ATOM      1  C   UNL     1       4.708   6.908  17.250  0.00  0.00    +0.000 C 
ATOM      2  N   UNL     1       4.920   6.194  18.500  0.00  0.00    +0.000 N 
ATOM      3  C   UNL     1       6.138   5.618  18.852  0.00  0.00    +0.000 C 
ATOM      4  O   UNL     1       6.282   4.968  19.892  0.00  0.00    +0.000 OA
ENDROOT
BRANCH   2   5
ATOM      5  C   UNL     1       3.782   6.064  19.411  0.00  0.00    +0.000 C 
BRANCH   5   6
ATOM      6  C   UNL     1       2.910   4.859  19.127  0.00  0.00    +0.000 A 
ATOM      7  C   UNL     1       2.951   3.736  19.968  0.00  0.00    +0.000 A 
ATOM      8  C   UNL     1       2.147   2.620  19.712  0.00  0.00    +0.000 A 
ATOM      9  C   UNL     1       1.291   2.619  18.614  0.00  0.00    +0.000 A 
ATOM     10  C   UNL     1       1.223   3.735  17.784  0.00  0.00    +0.000 A 
ATOM     11  C   UNL     1       2.024   4.852  18.040  0.00  0.00    +0.000 A 
ENDBRANCH   5   6
ENDBRANCH   2   5
BRANCH   3  12
ATOM     12  C   UNL     1       7.336   5.840  17.917  0.00  0.00    +0.000 C 
BRANCH  12  13
ATOM     13  O   UNL     1       7.609   4.671  17.163  0.00  0.00    +0.000 OA
BRANCH  13  14
ATOM     14  C   UNL     1       6.943   4.428  15.990  0.00  0.00    +0.000 A 
ATOM     15  C   UNL     1       7.625   4.986  14.892  0.00  0.00    +0.000 A 
ATOM     16  C   UNL     1       7.143   4.843  13.588  0.00  0.00    +0.000 A 
ATOM     17 CL   UNL     1       8.003   5.538  12.270  0.00  0.00    +0.000 Cl
ATOM     18  C   UNL     1       5.972   4.137  13.350  0.00  0.00    +0.000 A 
ATOM     19  C   UNL     1       5.282   3.581  14.425  0.00  0.00    +0.000 A 
ATOM     20  C   UNL     1       5.755   3.722  15.743  0.00  0.00    +0.000 A 
ATOM     21 CL   UNL     1       4.769   2.958  16.939  0.00  0.00    +0.000 Cl
ENDBRANCH  13  14
ENDBRANCH  12  13
ENDBRANCH   3  12
TORSDOF 5
ENDMDL
MODEL 7
REMARK VINA RESULT:      -6.8      0.954      2.615
REMARK  Name = 
REMARK  6 active torsions:
REMARK  status: ('A' for Active; 'I' for Inactive)
REMARK    1  A    between atoms: C_1  and  N_2
REMARK    2  A    between atoms: N_2  and  C_3
REMARK    3  A    between atoms: C_3  and  C_4
REMARK    4  A    between atoms: C_10  and  C_12
REMARK    5  A    between atoms: C_12  and  O_13
REMARK    6  A    between atoms: O_13  and  C_14
REMARK                            x       y       z     vdW  Elec       q    Type
REMARK                         _______ _______ _______ _____ _____    ______ ____
ROOT
ATOM      1  C   UNL     1       0.547   9.234  20.619  0.00  0.00    +0.000 C 
ATOM      2  N   UNL     1       0.901   9.710  19.290  0.00  0.00    +0.000 N 
ATOM      3  C   UNL     1       1.767   9.027  18.441  0.00  0.00    +0.000 C 
ATOM      4  O   UNL     1       2.099   9.476  17.340  0.00  0.00    +0.000 OA
ENDROOT
BRANCH   2   5
ATOM      5  C   UNL     1       0.328  10.983  18.848  0.00  0.00    +0.000 C 
BRANCH   5   6
ATOM      6  C   UNL     1      -1.116  10.878  18.405  0.00  0.00    +0.000 A 
ATOM      7  C   UNL     1      -1.498   9.936  17.436  0.00  0.00    +0.000 A 
ATOM      8  C   UNL     1      -2.831   9.833  17.025  0.00  0.00    +0.000 A 
ATOM      9  C   UNL     1      -3.796  10.667  17.581  0.00  0.00    +0.000 A 
ATOM     10  C   UNL     1      -3.436  11.590  18.561  0.00  0.00    +0.000 A 
ATOM     11  C   UNL     1      -2.105  11.693  18.976  0.00  0.00    +0.000 A 
ENDBRANCH   5   6
ENDBRANCH   2   5
BRANCH   3  12
ATOM     12  C   UNL     1       2.289   7.656  18.896  0.00  0.00    +0.000 C 
BRANCH  12  13
ATOM     13  O   UNL     1       2.363   6.758  17.802  0.00  0.00    +0.000 OA
BRANCH  13  14
ATOM     14  C   UNL     1       3.420   5.895  17.679  0.00  0.00    +0.000 A 
ATOM     15  C   UNL     1       4.641   6.592  17.609  0.00  0.00    +0.000 A 
ATOM     16  C   UNL     1       5.859   5.916  17.504  0.00  0.00    +0.000 A 
ATOM     17 CL   UNL     1       7.332   6.801  17.422  0.00  0.00    +0.000 Cl
ATOM     18  C   UNL     1       5.887   4.529  17.471  0.00  0.00    +0.000 A 
ATOM     19  C   UNL     1       4.688   3.822  17.535  0.00  0.00    +0.000 A 
ATOM     20  C   UNL     1       3.454   4.492  17.636  0.00  0.00    +0.000 A 
ATOM     21 CL   UNL     1       2.081   3.446  17.712  0.00  0.00    +0.000 Cl
ENDBRANCH  13  14
ENDBRANCH  12  13
ENDBRANCH   3  12
TORSDOF 5
ENDMDL
MODEL 8
REMARK VINA RESULT:      -6.7      5.873      7.769
REMARK  Name = 
REMARK  6 active torsions:
REMARK  status: ('A' for Active; 'I' for Inactive)
REMARK    1  A    between atoms: C_1  and  N_2
REMARK    2  A    between atoms: N_2  and  C_3
REMARK    3  A    between atoms: C_3  and  C_4
REMARK    4  A    between atoms: C_10  and  C_12
REMARK    5  A    between atoms: C_12  and  O_13
REMARK    6  A    between atoms: O_13  and  C_14
REMARK                            x       y       z     vdW  Elec       q    Type
REMARK                         _______ _______ _______ _____ _____    ______ ____
ROOT
ATOM      1  C   UNL     1       4.845   6.354  16.965  0.00  0.00    +0.000 C 
ATOM      2  N   UNL     1       6.132   5.681  17.069  0.00  0.00    +0.000 N 
ATOM      3  C   UNL     1       6.495   4.896  18.159  0.00  0.00    +0.000 C 
ATOM      4  O   UNL     1       7.612   4.378  18.254  0.00  0.00    +0.000 OA
ENDROOT
BRANCH   2   5
ATOM      5  C   UNL     1       7.087   5.866  15.975  0.00  0.00    +0.000 C 
BRANCH   5   6
ATOM      6  C   UNL     1       6.748   5.073  14.731  0.00  0.00    +0.000 A 
ATOM      7  C   UNL     1       7.594   5.110  13.611  0.00  0.00    +0.000 A 
ATOM      8  C   UNL     1       7.286   4.378  12.459  0.00  0.00    +0.000 A 
ATOM      9  C   UNL     1       6.133   3.600  12.417  0.00  0.00    +0.000 A 
ATOM     10  C   UNL     1       5.298   3.536  13.529  0.00  0.00    +0.000 A 
ATOM     11  C   UNL     1       5.604   4.264  14.683  0.00  0.00    +0.000 A 
ENDBRANCH   5   6
ENDBRANCH   2   5
BRANCH   3  12
ATOM     12  C   UNL     1       5.444   4.650  19.252  0.00  0.00    +0.000 C 
BRANCH  12  13
ATOM     13  O   UNL     1       4.910   3.341  19.152  0.00  0.00    +0.000 OA
BRANCH  13  14
ATOM     14  C   UNL     1       3.555   3.137  19.176  0.00  0.00    +0.000 A 
ATOM     15  C   UNL     1       3.096   2.917  20.489  0.00  0.00    +0.000 A 
ATOM     16  C   UNL     1       1.742   2.709  20.760  0.00  0.00    +0.000 A 
ATOM     17 CL   UNL     1       1.217   2.443  22.376  0.00  0.00    +0.000 Cl
ATOM     18  C   UNL     1       0.814   2.719  19.728  0.00  0.00    +0.000 A 
ATOM     19  C   UNL     1       1.250   2.932  18.422  0.00  0.00    +0.000 A 
ATOM     20  C   UNL     1       2.613   3.138  18.136  0.00  0.00    +0.000 A 
ATOM     21 CL   UNL     1       2.958   3.392  16.461  0.00  0.00    +0.000 Cl
ENDBRANCH  13  14
ENDBRANCH  12  13
ENDBRANCH   3  12
TORSDOF 5
ENDMDL
MODEL 9
REMARK VINA RESULT:      -6.7      1.142      2.387
REMARK  Name = 
REMARK  6 active torsions:
REMARK  status: ('A' for Active; 'I' for Inactive)
REMARK    1  A    between atoms: C_1  and  N_2
REMARK    2  A    between atoms: N_2  and  C_3
REMARK    3  A    between atoms: C_3  and  C_4
REMARK    4  A    between atoms: C_10  and  C_12
REMARK    5  A    between atoms: C_12  and  O_13
REMARK    6  A    between atoms: O_13  and  C_14
REMARK                            x       y       z     vdW  Elec       q    Type
REMARK                         _______ _______ _______ _____ _____    ______ ____
ROOT
ATOM      1  C   UNL     1       0.259   9.626  20.679  0.00  0.00    +0.000 C 
ATOM      2  N   UNL     1       0.665   9.909  19.310  0.00  0.00    +0.000 N 
ATOM      3  C   UNL     1       1.571   9.122  18.606  0.00  0.00    +0.000 C 
ATOM      4  O   UNL     1       1.946   9.410  17.465  0.00  0.00    +0.000 OA
ENDROOT
BRANCH   2   5
ATOM      5  C   UNL     1       0.101  11.096  18.664  0.00  0.00    +0.000 C 
BRANCH   5   6
ATOM      6  C   UNL     1      -1.356  10.944  18.280  0.00  0.00    +0.000 A 
ATOM      7  C   UNL     1      -2.330  11.786  18.838  0.00  0.00    +0.000 A 
ATOM      8  C   UNL     1      -3.678  11.652  18.486  0.00  0.00    +0.000 A 
ATOM      9  C   UNL     1      -4.063  10.678  17.570  0.00  0.00    +0.000 A 
ATOM     10  C   UNL     1      -3.103   9.850  16.992  0.00  0.00    +0.000 A 
ATOM     11  C   UNL     1      -1.756   9.984  17.339  0.00  0.00    +0.000 A 
ENDBRANCH   5   6
ENDBRANCH   2   5
BRANCH   3  12
ATOM     12  C   UNL     1       2.084   7.838  19.277  0.00  0.00    +0.000 C 
BRANCH  12  13
ATOM     13  O   UNL     1       2.506   6.897  18.304  0.00  0.00    +0.000 OA
BRANCH  13  14
ATOM     14  C   UNL     1       3.148   5.747  18.681  0.00  0.00    +0.000 A 
ATOM     15  C   UNL     1       4.464   5.711  18.181  0.00  0.00    +0.000 A 
ATOM     16  C   UNL     1       5.317   4.640  18.459  0.00  0.00    +0.000 A 
ATOM     17 CL   UNL     1       6.919   4.630  17.831  0.00  0.00    +0.000 Cl
ATOM     18  C   UNL     1       4.880   3.583  19.244  0.00  0.00    +0.000 A 
ATOM     19  C   UNL     1       3.579   3.600  19.745  0.00  0.00    +0.000 A 
ATOM     20  C   UNL     1       2.708   4.671  19.468  0.00  0.00    +0.000 A 
ATOM     21 CL   UNL     1       1.142   4.516  20.182  0.00  0.00    +0.000 Cl
ENDBRANCH  13  14
ENDBRANCH  12  13
ENDBRANCH   3  12
TORSDOF 5
ENDMDL
