MODEL 1
REMARK VINA RESULT:      -7.7      0.000      0.000
REMARK  Name = 
REMARK  11 active torsions:
REMARK  status: ('A' for Active; 'I' for Inactive)
REMARK    1  A    between atoms: C_1  and  C_2
REMARK    2  A    between atoms: C_9  and  N_10
REMARK    3  A    between atoms: C_11  and  C_13
REMARK    4  A    between atoms: C_13  and  C_14
REMARK    5  A    between atoms: C_14  and  C_15
REMARK    6  A    between atoms: C_18  and  N_19
REMARK    7  A    between atoms: C_20  and  O_22
REMARK    8  A    between atoms: O_22  and  C_23
REMARK    9  A    between atoms: C_23  and  C_24
REMARK   10  A    between atoms: C_23  and  C_25
REMARK   11  A    between atoms: C_23  and  C_26
REMARK                            x       y       z     vdW  Elec       q    Type
REMARK                         _______ _______ _______ _____ _____    ______ ____
ROOT
ATOM      1  C   UNL     1      -0.136   9.302  20.915  0.00  0.00    +0.000 C 
ENDROOT
BRANCH   1   3
ATOM      2  N   UNL     1       0.383  11.286  19.613  0.00  0.00    +0.000 N 
ATOM      3  C   UNL     1       0.337  10.733  20.888  0.00  0.00    +0.000 C 
ATOM      4  O   UNL     1       0.687  11.266  21.937  0.00  0.00    +0.000 OA
ATOM      5  H   UNL     1       0.038  10.716  18.848  0.00  0.00    +0.000 HD
BRANCH   2  14
ATOM      6  C   UNL     1       1.320  17.666  17.927  0.00  0.00    +0.000 C 
ATOM      7  C   UNL     1       2.242  16.519  18.208  0.00  0.00    +0.000 A 
ATOM      8  C   UNL     1       3.574  16.666  18.131  0.00  0.00    +0.000 A 
ATOM      9  C   UNL     1       4.533  15.581  18.389  0.00  0.00    +0.000 A 
ATOM     10  O   UNL     1       5.739  15.774  18.305  0.00  0.00    +0.000 OA
ATOM     11  O   UNL     1       4.000  14.353  18.721  0.00  0.00    +0.000 OA
ATOM     12  C   UNL     1       2.608  14.166  18.812  0.00  0.00    +0.000 A 
ATOM     13  C   UNL     1       2.203  12.878  19.156  0.00  0.00    +0.000 A 
ATOM     14  C   UNL     1       0.852  12.577  19.276  0.00  0.00    +0.000 A 
ATOM     15  C   UNL     1      -0.079  13.598  19.043  0.00  0.00    +0.000 A 
ATOM     16  C   UNL     1       0.345  14.896  18.695  0.00  0.00    +0.000 A 
ATOM     17  C   UNL     1       1.706  15.199  18.572  0.00  0.00    +0.000 A 
ENDBRANCH   2  14
ENDBRANCH   1   3
BRANCH   1  18
ATOM     18  C   UNL     1       0.972   8.434  21.494  0.00  0.00    +0.000 C 
BRANCH  18  19
ATOM     19  C   UNL     1       1.577   7.539  20.449  0.00  0.00    +0.000 A 
ATOM     20  C   UNL     1       2.071   8.096  19.273  0.00  0.00    +0.000 A 
ATOM     21  C   UNL     1       2.663   7.277  18.314  0.00  0.00    +0.000 A 
ATOM     22  C   UNL     1       2.788   5.895  18.507  0.00  0.00    +0.000 A 
ATOM     23  C   UNL     1       2.235   5.329  19.655  0.00  0.00    +0.000 A 
ATOM     24  C   UNL     1       1.641   6.149  20.626  0.00  0.00    +0.000 A 
BRANCH  22  25
ATOM     25  N   UNL     1       3.473   5.071  17.582  0.00  0.00    +0.000 N 
ATOM     26  C   UNL     1       4.823   4.825  17.640  0.00  0.00    +0.000 C 
ATOM     27  O   UNL     1       5.571   5.221  18.524  0.00  0.00    +0.000 OA
ATOM     28  H   UNL     1       2.944   4.521  16.919  0.00  0.00    +0.000 HD
BRANCH  26  29
ATOM     29  O   UNL     1       5.240   4.065  16.588  0.00  0.00    +0.000 OA
BRANCH  29  30
ATOM     30  C   UNL     1       5.867   4.774  15.477  0.00  0.00    +0.000 C 
ATOM     31  C   UNL     1       7.400   4.762  15.600  0.00  0.00    +0.000 C 
ATOM     32  C   UNL     1       5.499   4.014  14.191  0.00  0.00    +0.000 C 
ATOM     33  C   UNL     1       5.300   6.198  15.343  0.00  0.00    +0.000 C 
ENDBRANCH  29  30
ENDBRANCH  26  29
ENDBRANCH  22  25
ENDBRANCH  18  19
ENDBRANCH   1  18
TORSDOF 7
ENDMDL
MODEL 2
REMARK VINA RESULT:      -7.6      1.480      2.261
REMARK  Name = 
REMARK  11 active torsions:
REMARK  status: ('A' for Active; 'I' for Inactive)
REMARK    1  A    between atoms: C_1  and  C_2
REMARK    2  A    between atoms: C_9  and  N_10
REMARK    3  A    between atoms: C_11  and  C_13
REMARK    4  A    between atoms: C_13  and  C_14
REMARK    5  A    between atoms: C_14  and  C_15
REMARK    6  A    between atoms: C_18  and  N_19
REMARK    7  A    between atoms: C_20  and  O_22
REMARK    8  A    between atoms: O_22  and  C_23
REMARK    9  A    between atoms: C_23  and  C_24
REMARK   10  A    between atoms: C_23  and  C_25
REMARK   11  A    between atoms: C_23  and  C_26
REMARK                            x       y       z     vdW  Elec       q    Type
REMARK                         _______ _______ _______ _____ _____    ______ ____
ROOT
ATOM      1  C   UNL     1      -0.237   9.254  20.919  0.00  0.00    +0.000 C 
ENDROOT
BRANCH   1   3
ATOM      2  N   UNL     1       0.242  11.241  19.607  0.00  0.00    +0.000 N 
ATOM      3  C   UNL     1       0.273  10.672  20.875  0.00  0.00    +0.000 C 
ATOM      4  O   UNL     1       0.712  11.180  21.903  0.00  0.00    +0.000 OA
ATOM      5  H   UNL     1      -0.173  10.692  18.863  0.00  0.00    +0.000 HD
BRANCH   2  14
ATOM      6  C   UNL     1       3.683  16.717  17.996  0.00  0.00    +0.000 C 
ATOM      7  C   UNL     1       2.228  16.432  18.217  0.00  0.00    +0.000 A 
ATOM      8  C   UNL     1       1.307  17.402  18.108  0.00  0.00    +0.000 A 
ATOM      9  C   UNL     1      -0.133  17.189  18.316  0.00  0.00    +0.000 A 
ATOM     10  O   UNL     1      -0.928  18.112  18.201  0.00  0.00    +0.000 OA
ATOM     11  O   UNL     1      -0.526  15.909  18.648  0.00  0.00    +0.000 OA
ATOM     12  C   UNL     1       0.415  14.869  18.768  0.00  0.00    +0.000 A 
ATOM     13  C   UNL     1      -0.114  13.626  19.108  0.00  0.00    +0.000 A 
ATOM     14  C   UNL     1       0.721  12.525  19.254  0.00  0.00    +0.000 A 
ATOM     15  C   UNL     1       2.096  12.703  19.051  0.00  0.00    +0.000 A 
ATOM     16  C   UNL     1       2.618  13.966  18.709  0.00  0.00    +0.000 A 
ATOM     17  C   UNL     1       1.777  15.076  18.564  0.00  0.00    +0.000 A 
ENDBRANCH   2  14
ENDBRANCH   1   3
BRANCH   1  18
ATOM     18  C   UNL     1       0.834   8.371  21.545  0.00  0.00    +0.000 C 
BRANCH  18  19
ATOM     19  C   UNL     1       1.554   7.556  20.508  0.00  0.00    +0.000 A 
ATOM     20  C   UNL     1       1.719   6.187  20.706  0.00  0.00    +0.000 A 
ATOM     21  C   UNL     1       2.357   5.419  19.734  0.00  0.00    +0.000 A 
ATOM     22  C   UNL     1       2.832   5.988  18.546  0.00  0.00    +0.000 A 
ATOM     23  C   UNL     1       2.727   7.369  18.378  0.00  0.00    +0.000 A 
ATOM     24  C   UNL     1       2.082   8.147  19.351  0.00  0.00    +0.000 A 
BRANCH  22  25
ATOM     25  N   UNL     1       3.395   5.200  17.514  0.00  0.00    +0.000 N 
ATOM     26  C   UNL     1       4.513   4.421  17.680  0.00  0.00    +0.000 C 
ATOM     27  O   UNL     1       5.105   4.258  18.739  0.00  0.00    +0.000 OA
ATOM     28  H   UNL     1       2.892   5.085  16.645  0.00  0.00    +0.000 HD
BRANCH  26  29
ATOM     29  O   UNL     1       4.889   3.826  16.512  0.00  0.00    +0.000 OA
BRANCH  29  30
ATOM     30  C   UNL     1       5.883   4.533  15.710  0.00  0.00    +0.000 C 
ATOM     31  C   UNL     1       7.258   4.539  16.401  0.00  0.00    +0.000 C 
ATOM     32  C   UNL     1       6.032   3.758  14.389  0.00  0.00    +0.000 C 
ATOM     33  C   UNL     1       5.398   5.950  15.355  0.00  0.00    +0.000 C 
ENDBRANCH  29  30
ENDBRANCH  26  29
ENDBRANCH  22  25
ENDBRANCH  18  19
ENDBRANCH   1  18
TORSDOF 7
ENDMDL
MODEL 3
REMARK VINA RESULT:      -7.5      5.228     11.091
REMARK  Name = 
REMARK  11 active torsions:
REMARK  status: ('A' for Active; 'I' for Inactive)
REMARK    1  A    between atoms: C_1  and  C_2
REMARK    2  A    between atoms: C_9  and  N_10
REMARK    3  A    between atoms: C_11  and  C_13
REMARK    4  A    between atoms: C_13  and  C_14
REMARK    5  A    between atoms: C_14  and  C_15
REMARK    6  A    between atoms: C_18  and  N_19
REMARK    7  A    between atoms: C_20  and  O_22
REMARK    8  A    between atoms: O_22  and  C_23
REMARK    9  A    between atoms: C_23  and  C_24
REMARK   10  A    between atoms: C_23  and  C_25
REMARK   11  A    between atoms: C_23  and  C_26
REMARK                            x       y       z     vdW  Elec       q    Type
REMARK                         _______ _______ _______ _____ _____    ______ ____
ROOT
ATOM      1  C   UNL     1       7.890   8.137  17.250  0.00  0.00    +0.000 C 
ENDROOT
BRANCH   1   3
ATOM      2  N   UNL     1       5.848   6.939  17.795  0.00  0.00    +0.000 N 
ATOM      3  C   UNL     1       7.169   6.818  17.379  0.00  0.00    +0.000 C 
ATOM      4  O   UNL     1       7.788   5.779  17.173  0.00  0.00    +0.000 OA
ATOM      5  H   UNL     1       5.480   7.876  17.904  0.00  0.00    +0.000 HD
BRANCH   2  14
ATOM      6  C   UNL     1       1.669   1.746  17.791  0.00  0.00    +0.000 C 
ATOM      7  C   UNL     1       2.208   2.645  18.862  0.00  0.00    +0.000 A 
ATOM      8  C   UNL     1       1.847   2.488  20.145  0.00  0.00    +0.000 A 
ATOM      9  C   UNL     1       2.335   3.338  21.241  0.00  0.00    +0.000 A 
ATOM     10  O   UNL     1       1.972   3.147  22.395  0.00  0.00    +0.000 OA
ATOM     11  O   UNL     1       3.209   4.349  20.897  0.00  0.00    +0.000 OA
ATOM     12  C   UNL     1       3.609   4.538  19.561  0.00  0.00    +0.000 A 
ATOM     13  C   UNL     1       4.494   5.593  19.350  0.00  0.00    +0.000 A 
ATOM     14  C   UNL     1       4.957   5.874  18.070  0.00  0.00    +0.000 A 
ATOM     15  C   UNL     1       4.511   5.072  17.012  0.00  0.00    +0.000 A 
ATOM     16  C   UNL     1       3.616   4.008  17.239  0.00  0.00    +0.000 A 
ATOM     17  C   UNL     1       3.147   3.727  18.528  0.00  0.00    +0.000 A 
ENDBRANCH   2  14
ENDBRANCH   1   3
BRANCH   1  18
ATOM     18  C   UNL     1       8.365   8.569  18.630  0.00  0.00    +0.000 C 
BRANCH  18  19
ATOM     19  C   UNL     1       8.841   9.995  18.630  0.00  0.00    +0.000 A 
ATOM     20  C   UNL     1       9.851  10.379  19.508  0.00  0.00    +0.000 A 
ATOM     21  C   UNL     1      10.320  11.691  19.492  0.00  0.00    +0.000 A 
ATOM     22  C   UNL     1       9.809  12.641  18.599  0.00  0.00    +0.000 A 
ATOM     23  C   UNL     1       8.752  12.274  17.766  0.00  0.00    +0.000 A 
ATOM     24  C   UNL     1       8.278  10.954  17.775  0.00  0.00    +0.000 A 
BRANCH  22  25
ATOM     25  N   UNL     1      10.346  13.948  18.511  0.00  0.00    +0.000 N 
ATOM     26  C   UNL     1      10.191  14.898  19.490  0.00  0.00    +0.000 C 
ATOM     27  O   UNL     1       9.644  14.712  20.570  0.00  0.00    +0.000 OA
ATOM     28  H   UNL     1      10.988  14.172  17.764  0.00  0.00    +0.000 HD
BRANCH  26  29
ATOM     29  O   UNL     1      10.738  16.091  19.123  0.00  0.00    +0.000 OA
BRANCH  29  30
ATOM     30  C   UNL     1       9.848  17.043  18.464  0.00  0.00    +0.000 C 
ATOM     31  C   UNL     1       8.535  16.371  18.028  0.00  0.00    +0.000 C 
ATOM     32  C   UNL     1       9.494  18.124  19.500  0.00  0.00    +0.000 C 
ATOM     33  C   UNL     1      10.563  17.748  17.297  0.00  0.00    +0.000 C 
ENDBRANCH  29  30
ENDBRANCH  26  29
ENDBRANCH  22  25
ENDBRANCH  18  19
ENDBRANCH   1  18
TORSDOF 7
ENDMDL
MODEL 4
REMARK VINA RESULT:      -7.4      5.004      6.620
REMARK  Name = 
REMARK  11 active torsions:
REMARK  status: ('A' for Active; 'I' for Inactive)
REMARK    1  A    between atoms: C_1  and  C_2
REMARK    2  A    between atoms: C_9  and  N_10
REMARK    3  A    between atoms: C_11  and  C_13
REMARK    4  A    between atoms: C_13  and  C_14
REMARK    5  A    between atoms: C_14  and  C_15
REMARK    6  A    between atoms: C_18  and  N_19
REMARK    7  A    between atoms: C_20  and  O_22
REMARK    8  A    between atoms: O_22  and  C_23
REMARK    9  A    between atoms: C_23  and  C_24
REMARK   10  A    between atoms: C_23  and  C_25
REMARK   11  A    between atoms: C_23  and  C_26
REMARK                            x       y       z     vdW  Elec       q    Type
REMARK                         _______ _______ _______ _____ _____    ______ ____
ROOT
ATOM      1  C   UNL     1       8.963   8.905  18.908  0.00  0.00    +0.000 C 
ENDROOT
BRANCH   1   3
ATOM      2  N   UNL     1       9.020  11.170  18.030  0.00  0.00    +0.000 N 
ATOM      3  C   UNL     1       9.190  10.375  19.158  0.00  0.00    +0.000 C 
ATOM      4  O   UNL     1       9.549  10.741  20.274  0.00  0.00    +0.000 OA
ATOM      5  H   UNL     1       8.701  10.712  17.184  0.00  0.00    +0.000 HD
BRANCH   2  14
ATOM      6  C   UNL     1      11.248  17.405  17.271  0.00  0.00    +0.000 C 
ATOM      7  C   UNL     1       9.951  16.815  17.732  0.00  0.00    +0.000 A 
ATOM      8  C   UNL     1       8.930  17.598  18.116  0.00  0.00    +0.000 A 
ATOM      9  C   UNL     1       7.635  17.082  18.583  0.00  0.00    +0.000 A 
ATOM     10  O   UNL     1       6.738  17.845  18.919  0.00  0.00    +0.000 OA
ATOM     11  O   UNL     1       7.495  15.710  18.624  0.00  0.00    +0.000 OA
ATOM     12  C   UNL     1       8.545  14.862  18.227  0.00  0.00    +0.000 A 
ATOM     13  C   UNL     1       8.273  13.498  18.316  0.00  0.00    +0.000 A 
ATOM     14  C   UNL     1       9.237  12.566  17.950  0.00  0.00    +0.000 A 
ATOM     15  C   UNL     1      10.475  13.035  17.494  0.00  0.00    +0.000 A 
ATOM     16  C   UNL     1      10.737  14.417  17.409  0.00  0.00    +0.000 A 
ATOM     17  C   UNL     1       9.768  15.356  17.780  0.00  0.00    +0.000 A 
ENDBRANCH   2  14
ENDBRANCH   1   3
BRANCH   1  18
ATOM     18  C   UNL     1       8.161   8.749  17.623  0.00  0.00    +0.000 C 
BRANCH  18  19
ATOM     19  C   UNL     1       7.146   7.646  17.734  0.00  0.00    +0.000 A 
ATOM     20  C   UNL     1       5.868   7.836  17.216  0.00  0.00    +0.000 A 
ATOM     21  C   UNL     1       4.932   6.806  17.286  0.00  0.00    +0.000 A 
ATOM     22  C   UNL     1       5.248   5.567  17.857  0.00  0.00    +0.000 A 
ATOM     23  C   UNL     1       6.506   5.399  18.435  0.00  0.00    +0.000 A 
ATOM     24  C   UNL     1       7.454   6.431  18.364  0.00  0.00    +0.000 A 
BRANCH  22  25
ATOM     25  N   UNL     1       4.334   4.486  17.846  0.00  0.00    +0.000 N 
ATOM     26  C   UNL     1       4.367   3.458  18.755  0.00  0.00    +0.000 C 
ATOM     27  O   UNL     1       5.127   3.389  19.712  0.00  0.00    +0.000 OA
ATOM     28  H   UNL     1       3.531   4.519  17.233  0.00  0.00    +0.000 HD
BRANCH  26  29
ATOM     29  O   UNL     1       3.428   2.510  18.475  0.00  0.00    +0.000 OA
BRANCH  29  30
ATOM     30  C   UNL     1       2.054   2.817  18.859  0.00  0.00    +0.000 C 
ATOM     31  C   UNL     1       1.401   3.794  17.865  0.00  0.00    +0.000 C 
ATOM     32  C   UNL     1       1.262   1.499  18.802  0.00  0.00    +0.000 C 
ATOM     33  C   UNL     1       1.988   3.325  20.310  0.00  0.00    +0.000 C 
ENDBRANCH  29  30
ENDBRANCH  26  29
ENDBRANCH  22  25
ENDBRANCH  18  19
ENDBRANCH   1  18
TORSDOF 7
ENDMDL
MODEL 5
REMARK VINA RESULT:      -7.4      5.957      7.471
REMARK  Name = 
REMARK  11 active torsions:
REMARK  status: ('A' for Active; 'I' for Inactive)
REMARK    1  A    between atoms: C_1  and  C_2
REMARK    2  A    between atoms: C_9  and  N_10
REMARK    3  A    between atoms: C_11  and  C_13
REMARK    4  A    between atoms: C_13  and  C_14
REMARK    5  A    between atoms: C_14  and  C_15
REMARK    6  A    between atoms: C_18  and  N_19
REMARK    7  A    between atoms: C_20  and  O_22
REMARK    8  A    between atoms: O_22  and  C_23
REMARK    9  A    between atoms: C_23  and  C_24
REMARK   10  A    between atoms: C_23  and  C_25
REMARK   11  A    between atoms: C_23  and  C_26
REMARK                            x       y       z     vdW  Elec       q    Type
REMARK                         _______ _______ _______ _____ _____    ______ ____
ROOT
ATOM      1  C   UNL     1       8.991   9.041  18.631  0.00  0.00    +0.000 C 
ENDROOT
BRANCH   1   3
ATOM      2  N   UNL     1      10.019  11.035  19.565  0.00  0.00    +0.000 N 
ATOM      3  C   UNL     1       9.129  10.543  18.616  0.00  0.00    +0.000 C 
ATOM      4  O   UNL     1       8.436  11.198  17.843  0.00  0.00    +0.000 OA
ATOM      5  H   UNL     1      10.530  10.356  20.116  0.00  0.00    +0.000 HD
BRANCH   2  14
ATOM      6  C   UNL     1      10.821  17.190  21.992  0.00  0.00    +0.000 C 
ATOM      7  C   UNL     1      11.074  16.558  20.657  0.00  0.00    +0.000 A 
ATOM      8  C   UNL     1      11.560  17.276  19.632  0.00  0.00    +0.000 A 
ATOM      9  C   UNL     1      11.826  16.718  18.298  0.00  0.00    +0.000 A 
ATOM     10  O   UNL     1      12.272  17.421  17.400  0.00  0.00    +0.000 OA
ATOM     11  O   UNL     1      11.544  15.380  18.121  0.00  0.00    +0.000 OA
ATOM     12  C   UNL     1      11.036  14.600  19.176  0.00  0.00    +0.000 A 
ATOM     13  C   UNL     1      10.795  13.263  18.863  0.00  0.00    +0.000 A 
ATOM     14  C   UNL     1      10.292  12.398  19.828  0.00  0.00    +0.000 A 
ATOM     15  C   UNL     1      10.039  12.906  21.109  0.00  0.00    +0.000 A 
ATOM     16  C   UNL     1      10.287  14.260  21.410  0.00  0.00    +0.000 A 
ATOM     17  C   UNL     1      10.791  15.132  20.439  0.00  0.00    +0.000 A 
ENDBRANCH   2  14
ENDBRANCH   1   3
BRANCH   1  18
ATOM     18  C   UNL     1       8.073   8.626  17.490  0.00  0.00    +0.000 C 
BRANCH  18  19
ATOM     19  C   UNL     1       7.267   7.407  17.843  0.00  0.00    +0.000 A 
ATOM     20  C   UNL     1       7.749   6.523  18.805  0.00  0.00    +0.000 A 
ATOM     21  C   UNL     1       6.992   5.409  19.161  0.00  0.00    +0.000 A 
ATOM     22  C   UNL     1       5.743   5.156  18.581  0.00  0.00    +0.000 A 
ATOM     23  C   UNL     1       5.292   6.004  17.570  0.00  0.00    +0.000 A 
ATOM     24  C   UNL     1       6.046   7.130  17.210  0.00  0.00    +0.000 A 
BRANCH  22  25
ATOM     25  N   UNL     1       4.928   4.079  19.006  0.00  0.00    +0.000 N 
ATOM     26  C   UNL     1       3.787   3.688  18.349  0.00  0.00    +0.000 C 
ATOM     27  O   UNL     1       3.383   4.165  17.296  0.00  0.00    +0.000 OA
ATOM     28  H   UNL     1       5.251   3.471  19.746  0.00  0.00    +0.000 HD
BRANCH  26  29
ATOM     29  O   UNL     1       3.149   2.679  19.008  0.00  0.00    +0.000 OA
BRANCH  29  30
ATOM     30  C   UNL     1       1.880   3.015  19.646  0.00  0.00    +0.000 C 
ATOM     31  C   UNL     1       1.674   4.538  19.714  0.00  0.00    +0.000 C 
ATOM     32  C   UNL     1       0.762   2.434  18.763  0.00  0.00    +0.000 C 
ATOM     33  C   UNL     1       1.764   2.345  21.027  0.00  0.00    +0.000 C 
ENDBRANCH  29  30
ENDBRANCH  26  29
ENDBRANCH  22  25
ENDBRANCH  18  19
ENDBRANCH   1  18
TORSDOF 7
ENDMDL
MODEL 6
REMARK VINA RESULT:      -7.3      4.520      6.544
REMARK  Name = 
REMARK  11 active torsions:
REMARK  status: ('A' for Active; 'I' for Inactive)
REMARK    1  A    between atoms: C_1  and  C_2
REMARK    2  A    between atoms: C_9  and  N_10
REMARK    3  A    between atoms: C_11  and  C_13
REMARK    4  A    between atoms: C_13  and  C_14
REMARK    5  A    between atoms: C_14  and  C_15
REMARK    6  A    between atoms: C_18  and  N_19
REMARK    7  A    between atoms: C_20  and  O_22
REMARK    8  A    between atoms: O_22  and  C_23
REMARK    9  A    between atoms: C_23  and  C_24
REMARK   10  A    between atoms: C_23  and  C_25
REMARK   11  A    between atoms: C_23  and  C_26
REMARK                            x       y       z     vdW  Elec       q    Type
REMARK                         _______ _______ _______ _____ _____    ______ ____
ROOT
ATOM      1  C   UNL     1       0.471  11.826  19.938  0.00  0.00    +0.000 C 
ENDROOT
BRANCH   1   3
ATOM      2  N   UNL     1      -1.111  13.037  21.327  0.00  0.00    +0.000 N 
ATOM      3  C   UNL     1      -0.958  12.223  20.211  0.00  0.00    +0.000 C 
ATOM      4  O   UNL     1      -1.848  11.775  19.494  0.00  0.00    +0.000 OA
ATOM      5  H   UNL     1      -0.268  13.337  21.802  0.00  0.00    +0.000 HD
BRANCH   2  14
ATOM      6  C   UNL     1      -6.317  16.413  23.763  0.00  0.00    +0.000 C 
ATOM      7  C   UNL     1      -6.040  14.959  23.525  0.00  0.00    +0.000 A 
ATOM      8  C   UNL     1      -6.949  14.021  23.834  0.00  0.00    +0.000 A 
ATOM      9  C   UNL     1      -6.738  12.580  23.631  0.00  0.00    +0.000 A 
ATOM     10  O   UNL     1      -7.605  11.769  23.929  0.00  0.00    +0.000 OA
ATOM     11  O   UNL     1      -5.523  12.204  23.097  0.00  0.00    +0.000 OA
ATOM     12  C   UNL     1      -4.550  13.163  22.761  0.00  0.00    +0.000 A 
ATOM     13  C   UNL     1      -3.368  12.649  22.230  0.00  0.00    +0.000 A 
ATOM     14  C   UNL     1      -2.336  13.503  21.861  0.00  0.00    +0.000 A 
ATOM     15  C   UNL     1      -2.519  14.881  22.038  0.00  0.00    +0.000 A 
ATOM     16  C   UNL     1      -3.718  15.387  22.577  0.00  0.00    +0.000 A 
ATOM     17  C   UNL     1      -4.758  14.526  22.950  0.00  0.00    +0.000 A 
ENDBRANCH   2  14
ENDBRANCH   1   3
BRANCH   1  18
ATOM     18  C   UNL     1       0.490  10.849  18.771  0.00  0.00    +0.000 C 
BRANCH  18  19
ATOM     19  C   UNL     1       1.122   9.540  19.154  0.00  0.00    +0.000 A 
ATOM     20  C   UNL     1       0.939   9.042  20.441  0.00  0.00    +0.000 A 
ATOM     21  C   UNL     1       1.495   7.813  20.793  0.00  0.00    +0.000 A 
ATOM     22  C   UNL     1       2.229   7.052  19.876  0.00  0.00    +0.000 A 
ATOM     23  C   UNL     1       2.468   7.581  18.608  0.00  0.00    +0.000 A 
ATOM     24  C   UNL     1       1.909   8.815  18.246  0.00  0.00    +0.000 A 
BRANCH  22  25
ATOM     25  N   UNL     1       2.715   5.761  20.197  0.00  0.00    +0.000 N 
ATOM     26  C   UNL     1       2.239   4.608  19.622  0.00  0.00    +0.000 C 
ATOM     27  O   UNL     1       1.406   4.561  18.727  0.00  0.00    +0.000 OA
ATOM     28  H   UNL     1       3.540   5.670  20.773  0.00  0.00    +0.000 HD
BRANCH  26  29
ATOM     29  O   UNL     1       2.822   3.501  20.163  0.00  0.00    +0.000 OA
BRANCH  29  30
ATOM     30  C   UNL     1       3.842   2.839  19.356  0.00  0.00    +0.000 C 
ATOM     31  C   UNL     1       4.726   1.919  20.215  0.00  0.00    +0.000 C 
ATOM     32  C   UNL     1       3.106   1.953  18.335  0.00  0.00    +0.000 C 
ATOM     33  C   UNL     1       4.664   3.866  18.557  0.00  0.00    +0.000 C 
ENDBRANCH  29  30
ENDBRANCH  26  29
ENDBRANCH  22  25
ENDBRANCH  18  19
ENDBRANCH   1  18
TORSDOF 7
ENDMDL
MODEL 7
REMARK VINA RESULT:      -7.3      3.751      5.786
REMARK  Name = 
REMARK  11 active torsions:
REMARK  status: ('A' for Active; 'I' for Inactive)
REMARK    1  A    between atoms: C_1  and  C_2
REMARK    2  A    between atoms: C_9  and  N_10
REMARK    3  A    between atoms: C_11  and  C_13
REMARK    4  A    between atoms: C_13  and  C_14
REMARK    5  A    between atoms: C_14  and  C_15
REMARK    6  A    between atoms: C_18  and  N_19
REMARK    7  A    between atoms: C_20  and  O_22
REMARK    8  A    between atoms: O_22  and  C_23
REMARK    9  A    between atoms: C_23  and  C_24
REMARK   10  A    between atoms: C_23  and  C_25
REMARK   11  A    between atoms: C_23  and  C_26
REMARK                            x       y       z     vdW  Elec       q    Type
REMARK                         _______ _______ _______ _____ _____    ______ ____
ROOT
ATOM      1  C   UNL     1       1.799  11.732  18.819  0.00  0.00    +0.000 C 
ENDROOT
BRANCH   1   3
ATOM      2  N   UNL     1       0.758  12.403  20.909  0.00  0.00    +0.000 N 
ATOM      3  C   UNL     1       0.704  12.493  19.523  0.00  0.00    +0.000 C 
ATOM      4  O   UNL     1      -0.151  13.064  18.852  0.00  0.00    +0.000 OA
ATOM      5  H   UNL     1       1.545  11.906  21.311  0.00  0.00    +0.000 HD
BRANCH   2  14
ATOM      6  C   UNL     1      -2.816  16.010  25.226  0.00  0.00    +0.000 C 
ATOM      7  C   UNL     1      -2.974  14.642  24.634  0.00  0.00    +0.000 A 
ATOM      8  C   UNL     1      -4.012  13.859  24.965  0.00  0.00    +0.000 A 
ATOM      9  C   UNL     1      -4.222  12.508  24.425  0.00  0.00    +0.000 A 
ATOM     10  O   UNL     1      -5.190  11.838  24.762  0.00  0.00    +0.000 OA
ATOM     11  O   UNL     1      -3.276  12.045  23.534  0.00  0.00    +0.000 OA
ATOM     12  C   UNL     1      -2.176  12.843  23.165  0.00  0.00    +0.000 A 
ATOM     13  C   UNL     1      -1.296  12.257  22.257  0.00  0.00    +0.000 A 
ATOM     14  C   UNL     1      -0.174  12.951  21.821  0.00  0.00    +0.000 A 
ATOM     15  C   UNL     1       0.040  14.244  22.316  0.00  0.00    +0.000 A 
ATOM     16  C   UNL     1      -0.857  14.824  23.234  0.00  0.00    +0.000 A 
ATOM     17  C   UNL     1      -1.986  14.124  23.676  0.00  0.00    +0.000 A 
ENDBRANCH   2  14
ENDBRANCH   1   3
BRANCH   1  18
ATOM     18  C   UNL     1       1.169  10.604  18.015  0.00  0.00    +0.000 C 
BRANCH  18  19
ATOM     19  C   UNL     1       1.598   9.256  18.523  0.00  0.00    +0.000 A 
ATOM     20  C   UNL     1       2.344   8.419  17.697  0.00  0.00    +0.000 A 
ATOM     21  C   UNL     1       2.773   7.181  18.172  0.00  0.00    +0.000 A 
ATOM     22  C   UNL     1       2.483   6.756  19.474  0.00  0.00    +0.000 A 
ATOM     23  C   UNL     1       1.679   7.564  20.278  0.00  0.00    +0.000 A 
ATOM     24  C   UNL     1       1.248   8.813  19.807  0.00  0.00    +0.000 A 
BRANCH  22  25
ATOM     25  N   UNL     1       2.995   5.543  19.995  0.00  0.00    +0.000 N 
ATOM     26  C   UNL     1       2.373   4.329  19.839  0.00  0.00    +0.000 C 
ATOM     27  O   UNL     1       1.358   4.138  19.182  0.00  0.00    +0.000 OA
ATOM     28  H   UNL     1       3.927   5.524  20.387  0.00  0.00    +0.000 HD
BRANCH  26  29
ATOM     29  O   UNL     1       3.035   3.338  20.501  0.00  0.00    +0.000 OA
BRANCH  29  30
ATOM     30  C   UNL     1       4.063   2.624  19.751  0.00  0.00    +0.000 C 
ATOM     31  C   UNL     1       4.928   1.751  20.677  0.00  0.00    +0.000 C 
ATOM     32  C   UNL     1       3.338   1.683  18.772  0.00  0.00    +0.000 C 
ATOM     33  C   UNL     1       4.904   3.598  18.907  0.00  0.00    +0.000 C 
ENDBRANCH  29  30
ENDBRANCH  26  29
ENDBRANCH  22  25
ENDBRANCH  18  19
ENDBRANCH   1  18
TORSDOF 7
ENDMDL
MODEL 8
REMARK VINA RESULT:      -7.3      5.215     11.023
REMARK  Name = 
REMARK  11 active torsions:
REMARK  status: ('A' for Active; 'I' for Inactive)
REMARK    1  A    between atoms: C_1  and  C_2
REMARK    2  A    between atoms: C_9  and  N_10
REMARK    3  A    between atoms: C_11  and  C_13
REMARK    4  A    between atoms: C_13  and  C_14
REMARK    5  A    between atoms: C_14  and  C_15
REMARK    6  A    between atoms: C_18  and  N_19
REMARK    7  A    between atoms: C_20  and  O_22
REMARK    8  A    between atoms: O_22  and  C_23
REMARK    9  A    between atoms: C_23  and  C_24
REMARK   10  A    between atoms: C_23  and  C_25
REMARK   11  A    between atoms: C_23  and  C_26
REMARK                            x       y       z     vdW  Elec       q    Type
REMARK                         _______ _______ _______ _____ _____    ______ ____
ROOT
ATOM      1  C   UNL     1       8.001   8.447  17.717  0.00  0.00    +0.000 C 
ENDROOT
BRANCH   1   3
ATOM      2  N   UNL     1       6.006   7.061  17.682  0.00  0.00    +0.000 N 
ATOM      3  C   UNL     1       7.341   7.136  18.063  0.00  0.00    +0.000 C 
ATOM      4  O   UNL     1       7.982   6.290  18.679  0.00  0.00    +0.000 OA
ATOM      5  H   UNL     1       5.628   7.843  17.160  0.00  0.00    +0.000 HD
BRANCH   2  14
ATOM      6  C   UNL     1       1.885   1.823  17.598  0.00  0.00    +0.000 C 
ATOM      7  C   UNL     1       2.390   2.730  18.678  0.00  0.00    +0.000 A 
ATOM      8  C   UNL     1       2.002   2.573  19.953  0.00  0.00    +0.000 A 
ATOM      9  C   UNL     1       2.456   3.431  21.058  0.00  0.00    +0.000 A 
ATOM     10  O   UNL     1       2.069   3.239  22.203  0.00  0.00    +0.000 OA
ATOM     11  O   UNL     1       3.326   4.450  20.730  0.00  0.00    +0.000 OA
ATOM     12  C   UNL     1       3.754   4.640  19.403  0.00  0.00    +0.000 A 
ATOM     13  C   UNL     1       4.632   5.705  19.209  0.00  0.00    +0.000 A 
ATOM     14  C   UNL     1       5.121   5.988  17.940  0.00  0.00    +0.000 A 
ATOM     15  C   UNL     1       4.708   5.177  16.874  0.00  0.00    +0.000 A 
ATOM     16  C   UNL     1       3.819   4.105  17.084  0.00  0.00    +0.000 A 
ATOM     17  C   UNL     1       3.325   3.821  18.362  0.00  0.00    +0.000 A 
ENDBRANCH   2  14
ENDBRANCH   1   3
BRANCH   1  18
ATOM     18  C   UNL     1       8.928   8.841  18.858  0.00  0.00    +0.000 C 
BRANCH  18  19
ATOM     19  C   UNL     1       9.119  10.330  18.927  0.00  0.00    +0.000 A 
ATOM     20  C   UNL     1       8.899  11.102  17.790  0.00  0.00    +0.000 A 
ATOM     21  C   UNL     1       9.043  12.487  17.854  0.00  0.00    +0.000 A 
ATOM     22  C   UNL     1       9.394  13.132  19.046  0.00  0.00    +0.000 A 
ATOM     23  C   UNL     1       9.680  12.353  20.168  0.00  0.00    +0.000 A 
ATOM     24  C   UNL     1       9.533  10.960  20.110  0.00  0.00    +0.000 A 
BRANCH  22  25
ATOM     25  N   UNL     1       9.449  14.543  19.143  0.00  0.00    +0.000 N 
ATOM     26  C   UNL     1       8.671  15.385  18.388  0.00  0.00    +0.000 C 
ATOM     27  O   UNL     1       7.798  15.025  17.608  0.00  0.00    +0.000 OA
ATOM     28  H   UNL     1       9.981  14.970  19.889  0.00  0.00    +0.000 HD
BRANCH  26  29
ATOM     29  O   UNL     1       8.975  16.693  18.621  0.00  0.00    +0.000 OA
BRANCH  29  30
ATOM     30  C   UNL     1      10.254  17.169  18.103  0.00  0.00    +0.000 C 
ATOM     31  C   UNL     1      11.383  16.964  19.127  0.00  0.00    +0.000 C 
ATOM     32  C   UNL     1      10.588  16.315  16.867  0.00  0.00    +0.000 C 
ATOM     33  C   UNL     1      10.148  18.630  17.630  0.00  0.00    +0.000 C 
ENDBRANCH  29  30
ENDBRANCH  26  29
ENDBRANCH  22  25
ENDBRANCH  18  19
ENDBRANCH   1  18
TORSDOF 7
ENDMDL
MODEL 9
REMARK VINA RESULT:      -7.2      4.546      6.610
REMARK  Name = 
REMARK  11 active torsions:
REMARK  status: ('A' for Active; 'I' for Inactive)
REMARK    1  A    between atoms: C_1  and  C_2
REMARK    2  A    between atoms: C_9  and  N_10
REMARK    3  A    between atoms: C_11  and  C_13
REMARK    4  A    between atoms: C_13  and  C_14
REMARK    5  A    between atoms: C_14  and  C_15
REMARK    6  A    between atoms: C_18  and  N_19
REMARK    7  A    between atoms: C_20  and  O_22
REMARK    8  A    between atoms: O_22  and  C_23
REMARK    9  A    between atoms: C_23  and  C_24
REMARK   10  A    between atoms: C_23  and  C_25
REMARK   11  A    between atoms: C_23  and  C_26
REMARK                            x       y       z     vdW  Elec       q    Type
REMARK                         _______ _______ _______ _____ _____    ______ ____
ROOT
ATOM      1  C   UNL     1       0.541  11.858  20.428  0.00  0.00    +0.000 C 
ENDROOT
BRANCH   1   3
ATOM      2  N   UNL     1      -1.453  13.170  20.881  0.00  0.00    +0.000 N 
ATOM      3  C   UNL     1      -0.728  12.035  21.224  0.00  0.00    +0.000 C 
ATOM      4  O   UNL     1      -0.988  11.232  22.115  0.00  0.00    +0.000 OA
ATOM      5  H   UNL     1      -1.109  13.722  20.104  0.00  0.00    +0.000 HD
BRANCH   2  14
ATOM      6  C   UNL     1      -6.487  16.506  23.701  0.00  0.00    +0.000 C 
ATOM      7  C   UNL     1      -6.217  15.055  23.443  0.00  0.00    +0.000 A 
ATOM      8  C   UNL     1      -7.094  14.110  23.819  0.00  0.00    +0.000 A 
ATOM      9  C   UNL     1      -6.887  12.670  23.600  0.00  0.00    +0.000 A 
ATOM     10  O   UNL     1      -7.723  11.852  23.963  0.00  0.00    +0.000 OA
ATOM     11  O   UNL     1      -5.713  12.303  22.976  0.00  0.00    +0.000 OA
ATOM     12  C   UNL     1      -4.775  13.269  22.568  0.00  0.00    +0.000 A 
ATOM     13  C   UNL     1      -3.633  12.764  21.950  0.00  0.00    +0.000 A 
ATOM     14  C   UNL     1      -2.637  13.627  21.505  0.00  0.00    +0.000 A 
ATOM     15  C   UNL     1      -2.817  15.003  21.696  0.00  0.00    +0.000 A 
ATOM     16  C   UNL     1      -3.977  15.500  22.323  0.00  0.00    +0.000 A 
ATOM     17  C   UNL     1      -4.979  14.631  22.773  0.00  0.00    +0.000 A 
ENDBRANCH   2  14
ENDBRANCH   1   3
BRANCH   1  18
ATOM     18  C   UNL     1       0.221  11.052  19.177  0.00  0.00    +0.000 C 
BRANCH  18  19
ATOM     19  C   UNL     1       0.961   9.744  19.157  0.00  0.00    +0.000 A 
ATOM     20  C   UNL     1       1.150   9.045  20.346  0.00  0.00    +0.000 A 
ATOM     21  C   UNL     1       1.806   7.816  20.330  0.00  0.00    +0.000 A 
ATOM     22  C   UNL     1       2.276   7.251  19.138  0.00  0.00    +0.000 A 
ATOM     23  C   UNL     1       2.146   7.981  17.957  0.00  0.00    +0.000 A 
ATOM     24  C   UNL     1       1.482   9.217  17.965  0.00  0.00    +0.000 A 
BRANCH  22  25
ATOM     25  N   UNL     1       2.858   5.961  19.101  0.00  0.00    +0.000 N 
ATOM     26  C   UNL     1       2.305   4.863  19.713  0.00  0.00    +0.000 C 
ATOM     27  O   UNL     1       1.226   4.849  20.290  0.00  0.00    +0.000 OA
ATOM     28  H   UNL     1       3.646   5.788  18.492  0.00  0.00    +0.000 HD
BRANCH  26  29
ATOM     29  O   UNL     1       3.104   3.765  19.590  0.00  0.00    +0.000 OA
BRANCH  29  30
ATOM     30  C   UNL     1       2.692   2.764  18.611  0.00  0.00    +0.000 C 
ATOM     31  C   UNL     1       2.675   3.347  17.188  0.00  0.00    +0.000 C 
ATOM     32  C   UNL     1       3.745   1.642  18.640  0.00  0.00    +0.000 C 
ATOM     33  C   UNL     1       1.344   2.133  19.003  0.00  0.00    +0.000 C 
ENDBRANCH  29  30
ENDBRANCH  26  29
ENDBRANCH  22  25
ENDBRANCH  18  19
ENDBRANCH   1  18
TORSDOF 7
ENDMDL
