MODEL 1
REMARK VINA RESULT:      -7.0      0.000      0.000
REMARK  Name = 
REMARK  7 active torsions:
REMARK  status: ('A' for Active; 'I' for Inactive)
REMARK    1  A    between atoms: C_1  and  N_2
REMARK    2  A    between atoms: N_2  and  C_3
REMARK    3  A    between atoms: N_2  and  C_10
REMARK    4  A    between atoms: C_3  and  C_4
REMARK    5  A    between atoms: C_10  and  C_11
REMARK    6  A    between atoms: C_14  and  C_15
REMARK    7  A    between atoms: C_18  and  O_19
REMARK                            x       y       z     vdW  Elec       q    Type
REMARK                         _______ _______ _______ _____ _____    ______ ____
ROOT
ATOM      1  C   UNL     1       7.205   7.101  17.528  0.00  0.00    +0.000 A 
ATOM      2  C   UNL     1       8.019   6.686  18.557  0.00  0.00    +0.000 A 
ATOM      3  O   UNL     1       8.706   7.765  19.021  0.00  0.00    +0.000 OA
ATOM      4  C   UNL     1       8.272   8.807  18.239  0.00  0.00    +0.000 A 
ATOM      5  N   UNL     1       7.368   8.460  17.340  0.00  0.00    +0.000 NA
ENDROOT
BRANCH   4   6
ATOM      6  C   UNL     1       8.865  10.118  18.504  0.00  0.00    +0.000 A 
ATOM      7  C   UNL     1       9.683  10.346  19.623  0.00  0.00    +0.000 A 
ATOM      8  C   UNL     1      10.242  11.606  19.861  0.00  0.00    +0.000 A 
ATOM      9  C   UNL     1       9.983  12.647  18.978  0.00  0.00    +0.000 A 
ATOM     10  C   UNL     1       9.181  12.447  17.862  0.00  0.00    +0.000 A 
ATOM     11  C   UNL     1       8.624  11.186  17.625  0.00  0.00    +0.000 A 
BRANCH   9  12
ATOM     12  O   UNL     1      10.504  13.891  19.175  0.00  0.00    +0.000 OA
ATOM     13  H   UNL     1      10.146  14.490  18.499  0.00  0.00    +0.000 HD
ENDBRANCH   9  12
ENDBRANCH   4   6
BRANCH   1  14
ATOM     14  C   UNL     1       6.280   6.302  16.666  0.00  0.00    +0.000 C 
BRANCH  14  16
ATOM     15  C   UNL     1       4.034   6.875  17.386  0.00  0.00    +0.000 C 
ATOM     16  N   UNL     1       5.081   5.841  17.404  0.00  0.00    +0.000 NA
BRANCH  16  17
ATOM     17  C   UNL     1       4.534   4.615  16.780  0.00  0.00    +0.000 C 
BRANCH  17  18
ATOM     18  C   UNL     1       3.719   3.751  17.710  0.00  0.00    +0.000 A 
ATOM     19  C   UNL     1       2.487   3.210  17.328  0.00  0.00    +0.000 A 
ATOM     20  C   UNL     1       1.773   2.420  18.223  0.00  0.00    +0.000 A 
ATOM     21  C   UNL     1       2.317   2.189  19.475  0.00  0.00    +0.000 A 
ATOM     22  N   UNL     1       3.509   2.679  19.877  0.00  0.00    +0.000 NA
ATOM     23  C   UNL     1       4.181   3.443  18.986  0.00  0.00    +0.000 A 
ENDBRANCH  17  18
ENDBRANCH  16  17
ENDBRANCH  14  16
ENDBRANCH   1  14
TORSDOF 6
ENDMDL
MODEL 2
REMARK VINA RESULT:      -7.0      0.494      1.096
REMARK  Name = 
REMARK  7 active torsions:
REMARK  status: ('A' for Active; 'I' for Inactive)
REMARK    1  A    between atoms: C_1  and  N_2
REMARK    2  A    between atoms: N_2  and  C_3
REMARK    3  A    between atoms: N_2  and  C_10
REMARK    4  A    between atoms: C_3  and  C_4
REMARK    5  A    between atoms: C_10  and  C_11
REMARK    6  A    between atoms: C_14  and  C_15
REMARK    7  A    between atoms: C_18  and  O_19
REMARK                            x       y       z     vdW  Elec       q    Type
REMARK                         _______ _______ _______ _____ _____    ______ ____
ROOT
ATOM      1  C   UNL     1       7.072   7.183  17.514  0.00  0.00    +0.000 A 
ATOM      2  C   UNL     1       7.899   6.653  18.477  0.00  0.00    +0.000 A 
ATOM      3  O   UNL     1       8.675   7.655  18.972  0.00  0.00    +0.000 OA
ATOM      4  C   UNL     1       8.279   8.769  18.276  0.00  0.00    +0.000 A 
ATOM      5  N   UNL     1       7.317   8.538  17.401  0.00  0.00    +0.000 NA
ENDROOT
BRANCH   4   6
ATOM      6  C   UNL     1       8.969  10.020  18.591  0.00  0.00    +0.000 A 
ATOM      7  C   UNL     1       9.272  10.967  17.598  0.00  0.00    +0.000 A 
ATOM      8  C   UNL     1       9.933  12.158  17.917  0.00  0.00    +0.000 A 
ATOM      9  C   UNL     1      10.294  12.408  19.235  0.00  0.00    +0.000 A 
ATOM     10  C   UNL     1      10.001  11.491  20.236  0.00  0.00    +0.000 A 
ATOM     11  C   UNL     1       9.341  10.301  19.916  0.00  0.00    +0.000 A 
BRANCH   9  12
ATOM     12  O   UNL     1      10.941  13.554  19.589  0.00  0.00    +0.000 OA
ATOM     13  H   UNL     1      11.863  13.338  19.804  0.00  0.00    +0.000 HD
ENDBRANCH   9  12
ENDBRANCH   4   6
BRANCH   1  14
ATOM     14  C   UNL     1       6.059   6.500  16.650  0.00  0.00    +0.000 C 
BRANCH  14  16
ATOM     15  C   UNL     1       3.864   7.013  17.550  0.00  0.00    +0.000 C 
ATOM     16  N   UNL     1       4.910   5.984  17.430  0.00  0.00    +0.000 NA
BRANCH  16  17
ATOM     17  C   UNL     1       4.325   4.802  16.759  0.00  0.00    +0.000 C 
BRANCH  17  18
ATOM     18  C   UNL     1       3.461   3.942  17.649  0.00  0.00    +0.000 A 
ATOM     19  C   UNL     1       2.065   3.983  17.588  0.00  0.00    +0.000 A 
ATOM     20  C   UNL     1       1.313   3.171  18.432  0.00  0.00    +0.000 A 
ATOM     21  C   UNL     1       1.984   2.335  19.309  0.00  0.00    +0.000 A 
ATOM     22  N   UNL     1       3.329   2.255  19.388  0.00  0.00    +0.000 NA
ATOM     23  C   UNL     1       4.033   3.055  18.555  0.00  0.00    +0.000 A 
ENDBRANCH  17  18
ENDBRANCH  16  17
ENDBRANCH  14  16
ENDBRANCH   1  14
TORSDOF 6
ENDMDL
MODEL 3
REMARK VINA RESULT:      -6.9      5.055      7.208
REMARK  Name = 
REMARK  7 active torsions:
REMARK  status: ('A' for Active; 'I' for Inactive)
REMARK    1  A    between atoms: C_1  and  N_2
REMARK    2  A    between atoms: N_2  and  C_3
REMARK    3  A    between atoms: N_2  and  C_10
REMARK    4  A    between atoms: C_3  and  C_4
REMARK    5  A    between atoms: C_10  and  C_11
REMARK    6  A    between atoms: C_14  and  C_15
REMARK    7  A    between atoms: C_18  and  O_19
REMARK                            x       y       z     vdW  Elec       q    Type
REMARK                         _______ _______ _______ _____ _____    ______ ____
ROOT
ATOM      1  C   UNL     1       2.799   6.718  18.422  0.00  0.00    +0.000 A 
ATOM      2  C   UNL     1       2.816   7.885  17.694  0.00  0.00    +0.000 A 
ATOM      3  O   UNL     1       2.177   8.847  18.414  0.00  0.00    +0.000 OA
ATOM      4  C   UNL     1       1.792   8.210  19.567  0.00  0.00    +0.000 A 
ATOM      5  N   UNL     1       2.150   6.940  19.621  0.00  0.00    +0.000 NA
ENDROOT
BRANCH   4   6
ATOM      6  C   UNL     1       1.053   9.010  20.543  0.00  0.00    +0.000 A 
ATOM      7  C   UNL     1       0.290  10.126  20.159  0.00  0.00    +0.000 A 
ATOM      8  C   UNL     1      -0.411  10.880  21.106  0.00  0.00    +0.000 A 
ATOM      9  C   UNL     1      -0.352  10.521  22.446  0.00  0.00    +0.000 A 
ATOM     10  C   UNL     1       0.390   9.419  22.852  0.00  0.00    +0.000 A 
ATOM     11  C   UNL     1       1.090   8.667  21.904  0.00  0.00    +0.000 A 
BRANCH   9  12
ATOM     12  O   UNL     1      -1.017  11.230  23.401  0.00  0.00    +0.000 OA
ATOM     13  H   UNL     1      -0.500  11.207  24.223  0.00  0.00    +0.000 HD
ENDBRANCH   9  12
ENDBRANCH   4   6
BRANCH   1  14
ATOM     14  C   UNL     1       3.333   5.367  18.065  0.00  0.00    +0.000 C 
BRANCH  14  16
ATOM     15  C   UNL     1       5.384   5.375  19.365  0.00  0.00    +0.000 C 
ATOM     16  N   UNL     1       4.814   5.345  18.008  0.00  0.00    +0.000 NA
BRANCH  16  17
ATOM     17  C   UNL     1       5.283   4.113  17.334  0.00  0.00    +0.000 C 
BRANCH  17  18
ATOM     18  C   UNL     1       5.959   4.347  16.005  0.00  0.00    +0.000 A 
ATOM     19  C   UNL     1       5.522   3.722  14.833  0.00  0.00    +0.000 A 
ATOM     20  C   UNL     1       6.180   3.971  13.632  0.00  0.00    +0.000 A 
ATOM     21  C   UNL     1       7.254   4.845  13.640  0.00  0.00    +0.000 A 
ATOM     22  N   UNL     1       7.696   5.480  14.746  0.00  0.00    +0.000 NA
ATOM     23  C   UNL     1       7.037   5.220  15.898  0.00  0.00    +0.000 A 
ENDBRANCH  17  18
ENDBRANCH  16  17
ENDBRANCH  14  16
ENDBRANCH   1  14
TORSDOF 6
ENDMDL
MODEL 4
REMARK VINA RESULT:      -6.9      0.642      1.460
REMARK  Name = 
REMARK  7 active torsions:
REMARK  status: ('A' for Active; 'I' for Inactive)
REMARK    1  A    between atoms: C_1  and  N_2
REMARK    2  A    between atoms: N_2  and  C_3
REMARK    3  A    between atoms: N_2  and  C_10
REMARK    4  A    between atoms: C_3  and  C_4
REMARK    5  A    between atoms: C_10  and  C_11
REMARK    6  A    between atoms: C_14  and  C_15
REMARK    7  A    between atoms: C_18  and  O_19
REMARK                            x       y       z     vdW  Elec       q    Type
REMARK                         _______ _______ _______ _____ _____    ______ ____
ROOT
ATOM      1  C   UNL     1       7.215   6.996  17.499  0.00  0.00    +0.000 A 
ATOM      2  C   UNL     1       8.035   6.655  18.551  0.00  0.00    +0.000 A 
ATOM      3  O   UNL     1       8.672   7.779  18.979  0.00  0.00    +0.000 OA
ATOM      4  C   UNL     1       8.203   8.771  18.154  0.00  0.00    +0.000 A 
ATOM      5  N   UNL     1       7.323   8.353  17.261  0.00  0.00    +0.000 NA
ENDROOT
BRANCH   4   6
ATOM      6  C   UNL     1       8.738  10.115  18.373  0.00  0.00    +0.000 A 
ATOM      7  C   UNL     1       8.359  11.202  17.568  0.00  0.00    +0.000 A 
ATOM      8  C   UNL     1       8.880  12.481  17.792  0.00  0.00    +0.000 A 
ATOM      9  C   UNL     1       9.787  12.677  18.826  0.00  0.00    +0.000 A 
ATOM     10  C   UNL     1      10.175  11.621  19.640  0.00  0.00    +0.000 A 
ATOM     11  C   UNL     1       9.652  10.344  19.414  0.00  0.00    +0.000 A 
BRANCH   9  12
ATOM     12  O   UNL     1      10.322  13.906  19.076  0.00  0.00    +0.000 OA
ATOM     13  H   UNL     1      10.093  14.167  19.984  0.00  0.00    +0.000 HD
ENDBRANCH   9  12
ENDBRANCH   4   6
BRANCH   1  14
ATOM     14  C   UNL     1       6.333   6.127  16.661  0.00  0.00    +0.000 C 
BRANCH  14  16
ATOM     15  C   UNL     1       4.127   6.817  17.403  0.00  0.00    +0.000 C 
ATOM     16  N   UNL     1       5.103   5.716  17.378  0.00  0.00    +0.000 NA
BRANCH  16  17
ATOM     17  C   UNL     1       4.479   4.556  16.702  0.00  0.00    +0.000 C 
BRANCH  17  18
ATOM     18  C   UNL     1       3.678   3.659  17.613  0.00  0.00    +0.000 A 
ATOM     19  C   UNL     1       4.180   3.213  18.840  0.00  0.00    +0.000 A 
ATOM     20  C   UNL     1       3.401   2.386  19.644  0.00  0.00    +0.000 A 
ATOM     21  C   UNL     1       2.139   2.033  19.197  0.00  0.00    +0.000 A 
ATOM     22  N   UNL     1       1.613   2.453  18.027  0.00  0.00    +0.000 NA
ATOM     23  C   UNL     1       2.392   3.257  17.268  0.00  0.00    +0.000 A 
ENDBRANCH  17  18
ENDBRANCH  16  17
ENDBRANCH  14  16
ENDBRANCH   1  14
TORSDOF 6
ENDMDL
MODEL 5
REMARK VINA RESULT:      -6.9      5.128      6.373
REMARK  Name = 
REMARK  7 active torsions:
REMARK  status: ('A' for Active; 'I' for Inactive)
REMARK    1  A    between atoms: C_1  and  N_2
REMARK    2  A    between atoms: N_2  and  C_3
REMARK    3  A    between atoms: N_2  and  C_10
REMARK    4  A    between atoms: C_3  and  C_4
REMARK    5  A    between atoms: C_10  and  C_11
REMARK    6  A    between atoms: C_14  and  C_15
REMARK    7  A    between atoms: C_18  and  O_19
REMARK                            x       y       z     vdW  Elec       q    Type
REMARK                         _______ _______ _______ _____ _____    ______ ____
ROOT
ATOM      1  C   UNL     1       3.625   6.350  18.456  0.00  0.00    +0.000 A 
ATOM      2  C   UNL     1       3.424   7.320  17.501  0.00  0.00    +0.000 A 
ATOM      3  O   UNL     1       2.578   8.255  18.012  0.00  0.00    +0.000 OA
ATOM      4  C   UNL     1       2.297   7.805  19.278  0.00  0.00    +0.000 A 
ATOM      5  N   UNL     1       2.907   6.676  19.591  0.00  0.00    +0.000 NA
ENDROOT
BRANCH   4   6
ATOM      6  C   UNL     1       1.378   8.617  20.075  0.00  0.00    +0.000 A 
ATOM      7  C   UNL     1       1.127   8.337  21.429  0.00  0.00    +0.000 A 
ATOM      8  C   UNL     1       0.245   9.124  22.176  0.00  0.00    +0.000 A 
ATOM      9  C   UNL     1      -0.392  10.200  21.570  0.00  0.00    +0.000 A 
ATOM     10  C   UNL     1      -0.157  10.502  20.235  0.00  0.00    +0.000 A 
ATOM     11  C   UNL     1       0.724   9.714  19.490  0.00  0.00    +0.000 A 
BRANCH   9  12
ATOM     12  O   UNL     1      -1.260  10.991  22.261  0.00  0.00    +0.000 OA
ATOM     13  H   UNL     1      -0.770  11.459  22.958  0.00  0.00    +0.000 HD
ENDBRANCH   9  12
ENDBRANCH   4   6
BRANCH   1  14
ATOM     14  C   UNL     1       4.437   5.096  18.383  0.00  0.00    +0.000 C 
BRANCH  14  16
ATOM     15  C   UNL     1       4.799   3.960  16.269  0.00  0.00    +0.000 C 
ATOM     16  N   UNL     1       3.884   4.124  17.410  0.00  0.00    +0.000 NA
BRANCH  16  17
ATOM     17  C   UNL     1       3.701   2.804  18.054  0.00  0.00    +0.000 C 
BRANCH  17  18
ATOM     18  C   UNL     1       2.892   2.837  19.327  0.00  0.00    +0.000 A 
ATOM     19  C   UNL     1       1.534   3.170  19.333  0.00  0.00    +0.000 A 
ATOM     20  C   UNL     1       0.833   3.186  20.535  0.00  0.00    +0.000 A 
ATOM     21  C   UNL     1       1.512   2.861  21.697  0.00  0.00    +0.000 A 
ATOM     22  N   UNL     1       2.817   2.520  21.732  0.00  0.00    +0.000 NA
ATOM     23  C   UNL     1       3.473   2.511  20.549  0.00  0.00    +0.000 A 
ENDBRANCH  17  18
ENDBRANCH  16  17
ENDBRANCH  14  16
ENDBRANCH   1  14
TORSDOF 6
ENDMDL
MODEL 6
REMARK VINA RESULT:      -6.9      5.170      6.461
REMARK  Name = 
REMARK  7 active torsions:
REMARK  status: ('A' for Active; 'I' for Inactive)
REMARK    1  A    between atoms: C_1  and  N_2
REMARK    2  A    between atoms: N_2  and  C_3
REMARK    3  A    between atoms: N_2  and  C_10
REMARK    4  A    between atoms: C_3  and  C_4
REMARK    5  A    between atoms: C_10  and  C_11
REMARK    6  A    between atoms: C_14  and  C_15
REMARK    7  A    between atoms: C_18  and  O_19
REMARK                            x       y       z     vdW  Elec       q    Type
REMARK                         _______ _______ _______ _____ _____    ______ ____
ROOT
ATOM      1  C   UNL     1       3.394   4.535  19.888  0.00  0.00    +0.000 A 
ATOM      2  C   UNL     1       2.296   4.519  20.717  0.00  0.00    +0.000 A 
ATOM      3  O   UNL     1       1.664   5.720  20.612  0.00  0.00    +0.000 OA
ATOM      4  C   UNL     1       2.419   6.426  19.709  0.00  0.00    +0.000 A 
ATOM      5  N   UNL     1       3.457   5.755  19.241  0.00  0.00    +0.000 NA
ENDROOT
BRANCH   4   6
ATOM      6  C   UNL     1       1.980   7.788  19.407  0.00  0.00    +0.000 A 
ATOM      7  C   UNL     1       1.283   8.565  20.347  0.00  0.00    +0.000 A 
ATOM      8  C   UNL     1       0.869   9.866  20.041  0.00  0.00    +0.000 A 
ATOM      9  C   UNL     1       1.153  10.397  18.790  0.00  0.00    +0.000 A 
ATOM     10  C   UNL     1       1.845   9.652  17.844  0.00  0.00    +0.000 A 
ATOM     11  C   UNL     1       2.257   8.352  18.151  0.00  0.00    +0.000 A 
BRANCH   9  12
ATOM     12  O   UNL     1       0.766  11.659  18.450  0.00  0.00    +0.000 OA
ATOM     13  H   UNL     1       0.636  12.175  19.263  0.00  0.00    +0.000 HD
ENDBRANCH   9  12
ENDBRANCH   4   6
BRANCH   1  14
ATOM     14  C   UNL     1       4.431   3.482  19.664  0.00  0.00    +0.000 C 
BRANCH  14  16
ATOM     15  C   UNL     1       3.179   1.841  18.387  0.00  0.00    +0.000 C 
ATOM     16  N   UNL     1       4.281   2.815  18.349  0.00  0.00    +0.000 NA
BRANCH  16  17
ATOM     17  C   UNL     1       3.982   3.815  17.299  0.00  0.00    +0.000 C 
BRANCH  17  18
ATOM     18  C   UNL     1       5.155   4.166  16.418  0.00  0.00    +0.000 A 
ATOM     19  C   UNL     1       5.070   4.131  15.022  0.00  0.00    +0.000 A 
ATOM     20  C   UNL     1       6.182   4.463  14.254  0.00  0.00    +0.000 A 
ATOM     21  C   UNL     1       7.347   4.827  14.907  0.00  0.00    +0.000 A 
ATOM     22  N   UNL     1       7.466   4.887  16.250  0.00  0.00    +0.000 NA
ATOM     23  C   UNL     1       6.370   4.560  16.971  0.00  0.00    +0.000 A 
ENDBRANCH  17  18
ENDBRANCH  16  17
ENDBRANCH  14  16
ENDBRANCH   1  14
TORSDOF 6
ENDMDL
MODEL 7
REMARK VINA RESULT:      -6.8      4.828      6.274
REMARK  Name = 
REMARK  7 active torsions:
REMARK  status: ('A' for Active; 'I' for Inactive)
REMARK    1  A    between atoms: C_1  and  N_2
REMARK    2  A    between atoms: N_2  and  C_3
REMARK    3  A    between atoms: N_2  and  C_10
REMARK    4  A    between atoms: C_3  and  C_4
REMARK    5  A    between atoms: C_10  and  C_11
REMARK    6  A    between atoms: C_14  and  C_15
REMARK    7  A    between atoms: C_18  and  O_19
REMARK                            x       y       z     vdW  Elec       q    Type
REMARK                         _______ _______ _______ _____ _____    ______ ____
ROOT
ATOM      1  C   UNL     1       3.942   6.206  18.239  0.00  0.00    +0.000 A 
ATOM      2  C   UNL     1       4.177   7.153  17.269  0.00  0.00    +0.000 A 
ATOM      3  O   UNL     1       3.302   8.179  17.453  0.00  0.00    +0.000 OA
ATOM      4  C   UNL     1       2.561   7.803  18.546  0.00  0.00    +0.000 A 
ATOM      5  N   UNL     1       2.914   6.637  19.055  0.00  0.00    +0.000 NA
ENDROOT
BRANCH   4   6
ATOM      6  C   UNL     1       1.508   8.724  18.974  0.00  0.00    +0.000 A 
ATOM      7  C   UNL     1       0.854   9.572  18.065  0.00  0.00    +0.000 A 
ATOM      8  C   UNL     1      -0.151  10.448  18.491  0.00  0.00    +0.000 A 
ATOM      9  C   UNL     1      -0.506  10.479  19.833  0.00  0.00    +0.000 A 
ATOM     10  C   UNL     1       0.122   9.647  20.752  0.00  0.00    +0.000 A 
ATOM     11  C   UNL     1       1.125   8.773  20.324  0.00  0.00    +0.000 A 
BRANCH   9  12
ATOM     12  O   UNL     1      -1.477  11.318  20.291  0.00  0.00    +0.000 OA
ATOM     13  H   UNL     1      -2.328  11.052  19.904  0.00  0.00    +0.000 HD
ENDBRANCH   9  12
ENDBRANCH   4   6
BRANCH   1  14
ATOM     14  C   UNL     1       4.604   4.882  18.455  0.00  0.00    +0.000 C 
BRANCH  14  16
ATOM     15  C   UNL     1       5.135   3.605  16.460  0.00  0.00    +0.000 C 
ATOM     16  N   UNL     1       4.126   3.852  17.504  0.00  0.00    +0.000 NA
BRANCH  16  17
ATOM     17  C   UNL     1       3.870   2.578  18.213  0.00  0.00    +0.000 C 
BRANCH  17  18
ATOM     18  C   UNL     1       2.960   2.702  19.410  0.00  0.00    +0.000 A 
ATOM     19  C   UNL     1       1.605   3.020  19.280  0.00  0.00    +0.000 A 
ATOM     20  C   UNL     1       0.807   3.124  20.416  0.00  0.00    +0.000 A 
ATOM     21  C   UNL     1       1.391   2.899  21.651  0.00  0.00    +0.000 A 
ATOM     22  N   UNL     1       2.691   2.575  21.819  0.00  0.00    +0.000 NA
ATOM     23  C   UNL     1       3.441   2.481  20.697  0.00  0.00    +0.000 A 
ENDBRANCH  17  18
ENDBRANCH  16  17
ENDBRANCH  14  16
ENDBRANCH   1  14
TORSDOF 6
ENDMDL
MODEL 8
REMARK VINA RESULT:      -6.8      5.051      6.584
REMARK  Name = 
REMARK  7 active torsions:
REMARK  status: ('A' for Active; 'I' for Inactive)
REMARK    1  A    between atoms: C_1  and  N_2
REMARK    2  A    between atoms: N_2  and  C_3
REMARK    3  A    between atoms: N_2  and  C_10
REMARK    4  A    between atoms: C_3  and  C_4
REMARK    5  A    between atoms: C_10  and  C_11
REMARK    6  A    between atoms: C_14  and  C_15
REMARK    7  A    between atoms: C_18  and  O_19
REMARK                            x       y       z     vdW  Elec       q    Type
REMARK                         _______ _______ _______ _____ _____    ______ ____
ROOT
ATOM      1  C   UNL     1       3.472   4.776  19.695  0.00  0.00    +0.000 A 
ATOM      2  C   UNL     1       2.409   4.650  20.559  0.00  0.00    +0.000 A 
ATOM      3  O   UNL     1       1.720   5.824  20.564  0.00  0.00    +0.000 OA
ATOM      4  C   UNL     1       2.407   6.626  19.687  0.00  0.00    +0.000 A 
ATOM      5  N   UNL     1       3.455   6.040  19.136  0.00  0.00    +0.000 NA
ENDROOT
BRANCH   4   6
ATOM      6  C   UNL     1       1.896   7.983  19.500  0.00  0.00    +0.000 A 
ATOM      7  C   UNL     1       2.039   8.666  18.280  0.00  0.00    +0.000 A 
ATOM      8  C   UNL     1       1.544   9.964  18.119  0.00  0.00    +0.000 A 
ATOM      9  C   UNL     1       0.901  10.587  19.181  0.00  0.00    +0.000 A 
ATOM     10  C   UNL     1       0.741   9.933  20.396  0.00  0.00    +0.000 A 
ATOM     11  C   UNL     1       1.237   8.636  20.555  0.00  0.00    +0.000 A 
BRANCH   9  12
ATOM     12  O   UNL     1       0.406  11.852  19.067  0.00  0.00    +0.000 OA
ATOM     13  H   UNL     1      -0.327  11.844  18.430  0.00  0.00    +0.000 HD
ENDBRANCH   9  12
ENDBRANCH   4   6
BRANCH   1  14
ATOM     14  C   UNL     1       4.546   3.791  19.358  0.00  0.00    +0.000 C 
BRANCH  14  16
ATOM     15  C   UNL     1       3.199   2.237  18.069  0.00  0.00    +0.000 C 
ATOM     16  N   UNL     1       4.340   3.166  18.031  0.00  0.00    +0.000 NA
BRANCH  16  17
ATOM     17  C   UNL     1       4.060   4.204  17.013  0.00  0.00    +0.000 C 
BRANCH  17  18
ATOM     18  C   UNL     1       5.189   4.449  16.043  0.00  0.00    +0.000 A 
ATOM     19  C   UNL     1       5.271   3.779  14.818  0.00  0.00    +0.000 A 
ATOM     20  C   UNL     1       6.334   4.040  13.958  0.00  0.00    +0.000 A 
ATOM     21  C   UNL     1       7.282   4.970  14.349  0.00  0.00    +0.000 A 
ATOM     22  N   UNL     1       7.232   5.648  15.515  0.00  0.00    +0.000 NA
ATOM     23  C   UNL     1       6.187   5.375  16.330  0.00  0.00    +0.000 A 
ENDBRANCH  17  18
ENDBRANCH  16  17
ENDBRANCH  14  16
ENDBRANCH   1  14
TORSDOF 6
ENDMDL
MODEL 9
REMARK VINA RESULT:      -6.8      4.557      7.290
REMARK  Name = 
REMARK  7 active torsions:
REMARK  status: ('A' for Active; 'I' for Inactive)
REMARK    1  A    between atoms: C_1  and  N_2
REMARK    2  A    between atoms: N_2  and  C_3
REMARK    3  A    between atoms: N_2  and  C_10
REMARK    4  A    between atoms: C_3  and  C_4
REMARK    5  A    between atoms: C_10  and  C_11
REMARK    6  A    between atoms: C_14  and  C_15
REMARK    7  A    between atoms: C_18  and  O_19
REMARK                            x       y       z     vdW  Elec       q    Type
REMARK                         _______ _______ _______ _____ _____    ______ ____
ROOT
ATOM      1  C   UNL     1       2.555   5.865  19.149  0.00  0.00    +0.000 A 
ATOM      2  C   UNL     1       2.834   6.900  18.287  0.00  0.00    +0.000 A 
ATOM      3  O   UNL     1       2.327   8.047  18.816  0.00  0.00    +0.000 OA
ATOM      4  C   UNL     1       1.751   7.651  19.997  0.00  0.00    +0.000 A 
ATOM      5  N   UNL     1       1.871   6.359  20.244  0.00  0.00    +0.000 NA
ENDROOT
BRANCH   4   6
ATOM      6  C   UNL     1       1.097   8.692  20.790  0.00  0.00    +0.000 A 
ATOM      7  C   UNL     1       0.579   9.856  20.198  0.00  0.00    +0.000 A 
ATOM      8  C   UNL     1      -0.043  10.842  20.971  0.00  0.00    +0.000 A 
ATOM      9  C   UNL     1      -0.149  10.667  22.345  0.00  0.00    +0.000 A 
ATOM     10  C   UNL     1       0.350   9.523  22.955  0.00  0.00    +0.000 A 
ATOM     11  C   UNL     1       0.971   8.539  22.181  0.00  0.00    +0.000 A 
BRANCH   9  12
ATOM     12  O   UNL     1      -0.745  11.604  23.136  0.00  0.00    +0.000 OA
ATOM     13  H   UNL     1      -0.087  12.280  23.368  0.00  0.00    +0.000 HD
ENDBRANCH   9  12
ENDBRANCH   4   6
BRANCH   1  14
ATOM     14  C   UNL     1       2.864   4.408  19.018  0.00  0.00    +0.000 C 
BRANCH  14  16
ATOM     15  C   UNL     1       4.446   2.762  19.841  0.00  0.00    +0.000 C 
ATOM     16  N   UNL     1       4.293   4.110  19.272  0.00  0.00    +0.000 NA
BRANCH  16  17
ATOM     17  C   UNL     1       5.062   4.172  18.008  0.00  0.00    +0.000 C 
BRANCH  17  18
ATOM     18  C   UNL     1       6.050   5.310  17.933  0.00  0.00    +0.000 A 
ATOM     19  C   UNL     1       7.059   5.478  18.886  0.00  0.00    +0.000 A 
ATOM     20  C   UNL     1       7.945   6.545  18.772  0.00  0.00    +0.000 A 
ATOM     21  C   UNL     1       7.797   7.411  17.701  0.00  0.00    +0.000 A 
ATOM     22  N   UNL     1       6.847   7.275  16.753  0.00  0.00    +0.000 NA
ATOM     23  C   UNL     1       6.001   6.229  16.888  0.00  0.00    +0.000 A 
ENDBRANCH  17  18
ENDBRANCH  16  17
ENDBRANCH  14  16
ENDBRANCH   1  14
TORSDOF 6
ENDMDL
