MODEL 1
REMARK VINA RESULT:      -5.9      0.000      0.000
REMARK  Name = 
REMARK  8 active torsions:
REMARK  status: ('A' for Active; 'I' for Inactive)
REMARK    1  A    between atoms: C_1  and  O_2
REMARK    2  A    between atoms: O_2  and  C_3
REMARK    3  A    between atoms: C_3  and  C_4
REMARK    4  A    between atoms: C_4  and  N_5
REMARK    5  A    between atoms: C_15  and  C_17
REMARK    6  A    between atoms: C_18  and  C_19
REMARK    7  A    between atoms: N_21  and  C_22
REMARK    8  A    between atoms: C_23  and  C_24
REMARK                            x       y       z     vdW  Elec       q    Type
REMARK                         _______ _______ _______ _____ _____    ______ ____
ROOT
ATOM      1  N   UNL     1      10.782  13.064  19.570  0.00  0.00    +0.000 N 
ATOM      2  C   UNL     1      10.438  14.465  19.386  0.00  0.00    +0.000 C 
ATOM      3  C   UNL     1       9.758  14.733  18.031  0.00  0.00    +0.000 C 
ATOM      4  C   UNL     1      10.742  14.244  16.950  0.00  0.00    +0.000 C 
ATOM      5  C   UNL     1      11.127  12.777  17.144  0.00  0.00    +0.000 C 
ATOM      6  C   UNL     1      11.426  12.348  18.572  0.00  0.00    +0.000 C 
ATOM      7  O   UNL     1      12.096  11.339  18.789  0.00  0.00    +0.000 OA
ATOM      8  C   UNL     1       8.432  13.975  17.872  0.00  0.00    +0.000 C 
ATOM      9  C   UNL     1       7.386  14.445  18.854  0.00  0.00    +0.000 C 
ATOM     10  N   UNL     1       7.142  15.873  18.839  0.00  0.00    +0.000 N 
ATOM     11  C   UNL     1       5.893  16.442  19.174  0.00  0.00    +0.000 C 
ATOM     12  O   UNL     1       5.765  17.671  19.236  0.00  0.00    +0.000 OA
ATOM     13  C   UNL     1       8.331  16.731  18.835  0.00  0.00    +0.000 C 
ATOM     14  C   UNL     1       9.431  16.239  17.871  0.00  0.00    +0.000 C 
ENDROOT
BRANCH  11  15
ATOM     15  C   UNL     1       4.740  15.552  19.405  0.00  0.00    +0.000 A 
ATOM     16  C   UNL     1       4.277  14.856  20.569  0.00  0.00    +0.000 A 
ATOM     17  C   UNL     1       4.777  14.844  21.966  0.00  0.00    +0.000 C 
ATOM     18  N   UNL     1       3.224  14.079  20.306  0.00  0.00    +0.000 NA
ATOM     19  N   UNL     1       2.926  14.340  19.030  0.00  0.00    +0.000 N 
ATOM     20  C   UNL     1       1.795  13.661  18.442  0.00  0.00    +0.000 C 
ATOM     21  C   UNL     1       3.753  15.270  18.457  0.00  0.00    +0.000 A 
ATOM     22  C   UNL     1       3.549  15.811  17.086  0.00  0.00    +0.000 C 
ENDBRANCH  11  15
BRANCH   1  23
ATOM     23  C   UNL     1      10.608  12.455  20.896  0.00  0.00    +0.000 C 
BRANCH  23  24
ATOM     24  C   UNL     1       9.333  11.595  20.973  0.00  0.00    +0.000 C 
BRANCH  24  26
ATOM     25  C   UNL     1       8.005  13.019  22.328  0.00  0.00    +0.000 C 
ATOM     26  O   UNL     1       8.683  11.775  22.232  0.00  0.00    +0.000 OA
ENDBRANCH  24  26
ENDBRANCH  23  24
ENDBRANCH   1  23
TORSDOF 4
ENDMDL
MODEL 2
REMARK VINA RESULT:      -5.8      0.989      2.021
REMARK  Name = 
REMARK  8 active torsions:
REMARK  status: ('A' for Active; 'I' for Inactive)
REMARK    1  A    between atoms: C_1  and  O_2
REMARK    2  A    between atoms: O_2  and  C_3
REMARK    3  A    between atoms: C_3  and  C_4
REMARK    4  A    between atoms: C_4  and  N_5
REMARK    5  A    between atoms: C_15  and  C_17
REMARK    6  A    between atoms: C_18  and  C_19
REMARK    7  A    between atoms: N_21  and  C_22
REMARK    8  A    between atoms: C_23  and  C_24
REMARK                            x       y       z     vdW  Elec       q    Type
REMARK                         _______ _______ _______ _____ _____    ______ ____
ROOT
ATOM      1  N   UNL     1      10.709  13.227  19.439  0.00  0.00    +0.000 N 
ATOM      2  C   UNL     1      10.385  14.644  19.481  0.00  0.00    +0.000 C 
ATOM      3  C   UNL     1       9.790  15.153  18.155  0.00  0.00    +0.000 C 
ATOM      4  C   UNL     1      10.836  14.844  17.066  0.00  0.00    +0.000 C 
ATOM      5  C   UNL     1      11.201  13.359  17.025  0.00  0.00    +0.000 C 
ATOM      6  C   UNL     1      11.409  12.684  18.371  0.00  0.00    +0.000 C 
ATOM      7  O   UNL     1      12.060  11.643  18.448  0.00  0.00    +0.000 OA
ATOM      8  C   UNL     1       8.473  14.455  17.788  0.00  0.00    +0.000 C 
ATOM      9  C   UNL     1       7.371  14.764  18.773  0.00  0.00    +0.000 C 
ATOM     10  N   UNL     1       7.136  16.177  18.992  0.00  0.00    +0.000 N 
ATOM     11  C   UNL     1       5.871  16.698  19.346  0.00  0.00    +0.000 C 
ATOM     12  O   UNL     1       5.746  17.901  19.613  0.00  0.00    +0.000 OA
ATOM     13  C   UNL     1       8.327  17.004  19.208  0.00  0.00    +0.000 C 
ATOM     14  C   UNL     1       9.481  16.669  18.241  0.00  0.00    +0.000 C 
ENDROOT
BRANCH  11  15
ATOM     15  C   UNL     1       4.702  15.801  19.351  0.00  0.00    +0.000 A 
ATOM     16  C   UNL     1       3.700  15.516  18.367  0.00  0.00    +0.000 A 
ATOM     17  C   UNL     1       3.536  15.992  16.971  0.00  0.00    +0.000 C 
ATOM     18  N   UNL     1       2.758  14.690  18.830  0.00  0.00    +0.000 NA
ATOM     19  N   UNL     1       3.185  14.347  20.048  0.00  0.00    +0.000 N 
ATOM     20  C   UNL     1       2.381  13.425  20.816  0.00  0.00    +0.000 C 
ATOM     21  C   UNL     1       4.380  14.922  20.389  0.00  0.00    +0.000 A 
ATOM     22  C   UNL     1       5.114  14.600  21.643  0.00  0.00    +0.000 C 
ENDBRANCH  11  15
BRANCH   1  23
ATOM     23  C   UNL     1      10.451  12.400  20.625  0.00  0.00    +0.000 C 
BRANCH  23  24
ATOM     24  C   UNL     1       9.162  11.569  20.482  0.00  0.00    +0.000 C 
BRANCH  24  26
ATOM     25  C   UNL     1       8.885  10.036  18.693  0.00  0.00    +0.000 C 
ATOM     26  O   UNL     1       9.458  10.269  19.972  0.00  0.00    +0.000 OA
ENDBRANCH  24  26
ENDBRANCH  23  24
ENDBRANCH   1  23
TORSDOF 4
ENDMDL
MODEL 3
REMARK VINA RESULT:      -5.8      8.098      9.941
REMARK  Name = 
REMARK  8 active torsions:
REMARK  status: ('A' for Active; 'I' for Inactive)
REMARK    1  A    between atoms: C_1  and  O_2
REMARK    2  A    between atoms: O_2  and  C_3
REMARK    3  A    between atoms: C_3  and  C_4
REMARK    4  A    between atoms: C_4  and  N_5
REMARK    5  A    between atoms: C_15  and  C_17
REMARK    6  A    between atoms: C_18  and  C_19
REMARK    7  A    between atoms: N_21  and  C_22
REMARK    8  A    between atoms: C_23  and  C_24
REMARK                            x       y       z     vdW  Elec       q    Type
REMARK                         _______ _______ _______ _____ _____    ______ ____
ROOT
ATOM      1  N   UNL     1       1.147   9.647  20.688  0.00  0.00    +0.000 N 
ATOM      2  C   UNL     1       1.003  11.083  20.506  0.00  0.00    +0.000 C 
ATOM      3  C   UNL     1       0.267  11.441  19.202  0.00  0.00    +0.000 C 
ATOM      4  C   UNL     1       1.079  10.803  18.058  0.00  0.00    +0.000 C 
ATOM      5  C   UNL     1       1.255   9.296  18.248  0.00  0.00    +0.000 C 
ATOM      6  C   UNL     1       1.596   8.836  19.657  0.00  0.00    +0.000 C 
ATOM      7  O   UNL     1       2.123   7.739  19.840  0.00  0.00    +0.000 OA
ATOM      8  C   UNL     1      -1.166  10.890  19.158  0.00  0.00    +0.000 C 
ATOM      9  C   UNL     1      -2.050  11.519  20.208  0.00  0.00    +0.000 C 
ATOM     10  N   UNL     1      -2.078  12.967  20.186  0.00  0.00    +0.000 N 
ATOM     11  C   UNL     1      -3.198  13.719  20.605  0.00  0.00    +0.000 C 
ATOM     12  O   UNL     1      -3.136  14.954  20.654  0.00  0.00    +0.000 OA
ATOM     13  C   UNL     1      -0.778  13.636  20.076  0.00  0.00    +0.000 C 
ATOM     14  C   UNL     1       0.157  12.979  19.040  0.00  0.00    +0.000 C 
ENDROOT
BRANCH  11  15
ATOM     15  C   UNL     1      -4.449  13.015  20.940  0.00  0.00    +0.000 A 
ATOM     16  C   UNL     1      -5.105  12.752  22.187  0.00  0.00    +0.000 A 
ATOM     17  C   UNL     1      -4.769  13.159  23.574  0.00  0.00    +0.000 C 
ATOM     18  N   UNL     1      -6.192  11.991  22.035  0.00  0.00    +0.000 NA
ATOM     19  N   UNL     1      -6.317  11.848  20.713  0.00  0.00    +0.000 N 
ATOM     20  C   UNL     1      -7.434  11.080  20.214  0.00  0.00    +0.000 C 
ATOM     21  C   UNL     1      -5.346  12.499  19.999  0.00  0.00    +0.000 A 
ATOM     22  C   UNL     1      -5.342  12.586  18.514  0.00  0.00    +0.000 C 
ENDBRANCH  11  15
BRANCH   1  23
ATOM     23  C   UNL     1       0.987   9.079  22.034  0.00  0.00    +0.000 C 
BRANCH  23  24
ATOM     24  C   UNL     1      -0.467   9.172  22.532  0.00  0.00    +0.000 C 
BRANCH  24  26
ATOM     25  C   UNL     1      -1.447  11.208  23.255  0.00  0.00    +0.000 C 
ATOM     26  O   UNL     1      -0.576  10.134  23.582  0.00  0.00    +0.000 OA
ENDBRANCH  24  26
ENDBRANCH  23  24
ENDBRANCH   1  23
TORSDOF 4
ENDMDL
MODEL 4
REMARK VINA RESULT:      -5.7      7.885      9.829
REMARK  Name = 
REMARK  8 active torsions:
REMARK  status: ('A' for Active; 'I' for Inactive)
REMARK    1  A    between atoms: C_1  and  O_2
REMARK    2  A    between atoms: O_2  and  C_3
REMARK    3  A    between atoms: C_3  and  C_4
REMARK    4  A    between atoms: C_4  and  N_5
REMARK    5  A    between atoms: C_15  and  C_17
REMARK    6  A    between atoms: C_18  and  C_19
REMARK    7  A    between atoms: N_21  and  C_22
REMARK    8  A    between atoms: C_23  and  C_24
REMARK                            x       y       z     vdW  Elec       q    Type
REMARK                         _______ _______ _______ _____ _____    ______ ____
ROOT
ATOM      1  N   UNL     1       1.200   9.127  20.336  0.00  0.00    +0.000 N 
ATOM      2  C   UNL     1       1.162  10.580  20.370  0.00  0.00    +0.000 C 
ATOM      3  C   UNL     1       0.685  11.190  19.038  0.00  0.00    +0.000 C 
ATOM      4  C   UNL     1       1.654  10.674  17.956  0.00  0.00    +0.000 C 
ATOM      5  C   UNL     1       1.717   9.146  17.923  0.00  0.00    +0.000 C 
ATOM      6  C   UNL     1       1.783   8.451  19.274  0.00  0.00    +0.000 C 
ATOM      7  O   UNL     1       2.214   7.302  19.359  0.00  0.00    +0.000 OA
ATOM      8  C   UNL     1      -0.743  10.764  18.668  0.00  0.00    +0.000 C 
ATOM      9  C   UNL     1      -1.766  11.291  19.646  0.00  0.00    +0.000 C 
ATOM     10  N   UNL     1      -1.717  12.723  19.857  0.00  0.00    +0.000 N 
ATOM     11  C   UNL     1      -2.855  13.487  20.203  0.00  0.00    +0.000 C 
ATOM     12  O   UNL     1      -2.741  14.692  20.463  0.00  0.00    +0.000 OA
ATOM     13  C   UNL     1      -0.387  13.300  20.075  0.00  0.00    +0.000 C 
ATOM     14  C   UNL     1       0.682  12.738  19.115  0.00  0.00    +0.000 C 
ENDROOT
BRANCH  11  15
ATOM     15  C   UNL     1      -4.179  12.838  20.205  0.00  0.00    +0.000 A 
ATOM     16  C   UNL     1      -4.939  12.191  19.177  0.00  0.00    +0.000 A 
ATOM     17  C   UNL     1      -4.616  11.899  17.759  0.00  0.00    +0.000 C 
ATOM     18  N   UNL     1      -6.147  11.816  19.603  0.00  0.00    +0.000 NA
ATOM     19  N   UNL     1      -6.146  12.104  20.908  0.00  0.00    +0.000 N 
ATOM     20  C   UNL     1      -7.328  11.789  21.675  0.00  0.00    +0.000 C 
ATOM     21  C   UNL     1      -4.969  12.652  21.344  0.00  0.00    +0.000 A 
ATOM     22  C   UNL     1      -4.684  12.946  22.774  0.00  0.00    +0.000 C 
ENDBRANCH  11  15
BRANCH   1  23
ATOM     23  C   UNL     1       0.778   8.374  21.524  0.00  0.00    +0.000 C 
BRANCH  23  24
ATOM     24  C   UNL     1       0.700   9.266  22.777  0.00  0.00    +0.000 C 
BRANCH  24  26
ATOM     25  C   UNL     1      -1.113  10.756  23.127  0.00  0.00    +0.000 C 
ATOM     26  O   UNL     1      -0.655   9.414  23.203  0.00  0.00    +0.000 OA
ENDBRANCH  24  26
ENDBRANCH  23  24
ENDBRANCH   1  23
TORSDOF 4
ENDMDL
MODEL 5
REMARK VINA RESULT:      -5.7      7.363     11.094
REMARK  Name = 
REMARK  8 active torsions:
REMARK  status: ('A' for Active; 'I' for Inactive)
REMARK    1  A    between atoms: C_1  and  O_2
REMARK    2  A    between atoms: O_2  and  C_3
REMARK    3  A    between atoms: C_3  and  C_4
REMARK    4  A    between atoms: C_4  and  N_5
REMARK    5  A    between atoms: C_15  and  C_17
REMARK    6  A    between atoms: C_18  and  C_19
REMARK    7  A    between atoms: N_21  and  C_22
REMARK    8  A    between atoms: C_23  and  C_24
REMARK                            x       y       z     vdW  Elec       q    Type
REMARK                         _______ _______ _______ _____ _____    ______ ____
ROOT
ATOM      1  N   UNL     1       0.308  11.276  19.517  0.00  0.00    +0.000 N 
ATOM      2  C   UNL     1      -0.285  11.321  20.844  0.00  0.00    +0.000 C 
ATOM      3  C   UNL     1      -0.576  12.759  21.312  0.00  0.00    +0.000 C 
ATOM      4  C   UNL     1       0.771  13.508  21.266  0.00  0.00    +0.000 C 
ATOM      5  C   UNL     1       1.414  13.451  19.880  0.00  0.00    +0.000 C 
ATOM      6  C   UNL     1       1.367  12.103  19.177  0.00  0.00    +0.000 C 
ATOM      7  O   UNL     1       2.161  11.849  18.271  0.00  0.00    +0.000 OA
ATOM      8  C   UNL     1      -1.578  13.487  20.405  0.00  0.00    +0.000 C 
ATOM      9  C   UNL     1      -2.947  12.854  20.446  0.00  0.00    +0.000 C 
ATOM     10  N   UNL     1      -3.504  12.704  21.776  0.00  0.00    +0.000 N 
ATOM     11  C   UNL     1      -4.893  12.721  22.033  0.00  0.00    +0.000 C 
ATOM     12  O   UNL     1      -5.319  12.495  23.173  0.00  0.00    +0.000 OA
ATOM     13  C   UNL     1      -2.603  12.156  22.795  0.00  0.00    +0.000 C 
ATOM     14  C   UNL     1      -1.185  12.758  22.737  0.00  0.00    +0.000 C 
ENDROOT
BRANCH  11  15
ATOM     15  C   UNL     1      -5.821  13.052  20.935  0.00  0.00    +0.000 A 
ATOM     16  C   UNL     1      -6.763  12.264  20.198  0.00  0.00    +0.000 A 
ATOM     17  C   UNL     1      -7.171  10.843  20.335  0.00  0.00    +0.000 C 
ATOM     18  N   UNL     1      -7.341  12.957  19.214  0.00  0.00    +0.000 NA
ATOM     19  N   UNL     1      -6.879  14.202  19.367  0.00  0.00    +0.000 N 
ATOM     20  C   UNL     1      -7.344  15.218  18.452  0.00  0.00    +0.000 C 
ATOM     21  C   UNL     1      -6.020  14.338  20.426  0.00  0.00    +0.000 A 
ATOM     22  C   UNL     1      -5.470  15.647  20.868  0.00  0.00    +0.000 C 
ENDBRANCH  11  15
BRANCH   1  23
ATOM     23  C   UNL     1      -0.103  10.215  18.588  0.00  0.00    +0.000 C 
BRANCH  23  24
ATOM     24  C   UNL     1      -1.536  10.427  18.065  0.00  0.00    +0.000 C 
BRANCH  24  26
ATOM     25  C   UNL     1      -2.609  10.373  15.950  0.00  0.00    +0.000 C 
ATOM     26  O   UNL     1      -1.739   9.704  16.850  0.00  0.00    +0.000 OA
ENDBRANCH  24  26
ENDBRANCH  23  24
ENDBRANCH   1  23
TORSDOF 4
ENDMDL
MODEL 6
REMARK VINA RESULT:      -5.7      7.880     12.061
REMARK  Name = 
REMARK  8 active torsions:
REMARK  status: ('A' for Active; 'I' for Inactive)
REMARK    1  A    between atoms: C_1  and  O_2
REMARK    2  A    between atoms: O_2  and  C_3
REMARK    3  A    between atoms: C_3  and  C_4
REMARK    4  A    between atoms: C_4  and  N_5
REMARK    5  A    between atoms: C_15  and  C_17
REMARK    6  A    between atoms: C_18  and  C_19
REMARK    7  A    between atoms: N_21  and  C_22
REMARK    8  A    between atoms: C_23  and  C_24
REMARK                            x       y       z     vdW  Elec       q    Type
REMARK                         _______ _______ _______ _____ _____    ______ ____
ROOT
ATOM      1  N   UNL     1      -5.223  13.256  22.284  0.00  0.00    +0.000 N 
ATOM      2  C   UNL     1      -3.996  13.999  22.525  0.00  0.00    +0.000 C 
ATOM      3  C   UNL     1      -3.114  13.349  23.607  0.00  0.00    +0.000 C 
ATOM      4  C   UNL     1      -3.983  13.262  24.877  0.00  0.00    +0.000 C 
ATOM      5  C   UNL     1      -5.285  12.499  24.632  0.00  0.00    +0.000 C 
ATOM      6  C   UNL     1      -6.014  12.821  23.337  0.00  0.00    +0.000 C 
ATOM      7  O   UNL     1      -7.214  12.572  23.223  0.00  0.00    +0.000 OA
ATOM      8  C   UNL     1      -2.653  11.935  23.226  0.00  0.00    +0.000 C 
ATOM      9  C   UNL     1      -1.737  11.939  22.026  0.00  0.00    +0.000 C 
ATOM     10  N   UNL     1      -0.590  12.816  22.144  0.00  0.00    +0.000 N 
ATOM     11  C   UNL     1       0.640  12.564  21.496  0.00  0.00    +0.000 C 
ATOM     12  O   UNL     1       1.557  13.393  21.555  0.00  0.00    +0.000 OA
ATOM     13  C   UNL     1      -0.860  14.167  22.646  0.00  0.00    +0.000 C 
ATOM     14  C   UNL     1      -1.832  14.186  23.844  0.00  0.00    +0.000 C 
ENDROOT
BRANCH  11  15
ATOM     15  C   UNL     1       0.827  11.284  20.789  0.00  0.00    +0.000 A 
ATOM     16  C   UNL     1       0.879   9.927  21.246  0.00  0.00    +0.000 A 
ATOM     17  C   UNL     1       0.700   9.342  22.598  0.00  0.00    +0.000 C 
ATOM     18  N   UNL     1       1.158   9.072  20.259  0.00  0.00    +0.000 NA
ATOM     19  N   UNL     1       1.177   9.828  19.158  0.00  0.00    +0.000 N 
ATOM     20  C   UNL     1       1.434   9.181  17.893  0.00  0.00    +0.000 C 
ATOM     21  C   UNL     1       0.913  11.150  19.400  0.00  0.00    +0.000 A 
ATOM     22  C   UNL     1       0.762  12.164  18.322  0.00  0.00    +0.000 C 
ENDBRANCH  11  15
BRANCH   1  23
ATOM     23  C   UNL     1      -5.719  13.124  20.908  0.00  0.00    +0.000 C 
BRANCH  23  24
ATOM     24  C   UNL     1      -4.610  12.686  19.933  0.00  0.00    +0.000 C 
BRANCH  24  26
ATOM     25  C   UNL     1      -4.208  11.526  17.903  0.00  0.00    +0.000 C 
ATOM     26  O   UNL     1      -5.133  11.796  18.946  0.00  0.00    +0.000 OA
ENDBRANCH  24  26
ENDBRANCH  23  24
ENDBRANCH   1  23
TORSDOF 4
ENDMDL
MODEL 7
REMARK VINA RESULT:      -5.6      7.777     11.388
REMARK  Name = 
REMARK  8 active torsions:
REMARK  status: ('A' for Active; 'I' for Inactive)
REMARK    1  A    between atoms: C_1  and  O_2
REMARK    2  A    between atoms: O_2  and  C_3
REMARK    3  A    between atoms: C_3  and  C_4
REMARK    4  A    between atoms: C_4  and  N_5
REMARK    5  A    between atoms: C_15  and  C_17
REMARK    6  A    between atoms: C_18  and  C_19
REMARK    7  A    between atoms: N_21  and  C_22
REMARK    8  A    between atoms: C_23  and  C_24
REMARK                            x       y       z     vdW  Elec       q    Type
REMARK                         _______ _______ _______ _____ _____    ______ ____
ROOT
ATOM      1  N   UNL     1       0.113  12.035  21.335  0.00  0.00    +0.000 N 
ATOM      2  C   UNL     1      -0.975  12.046  22.299  0.00  0.00    +0.000 C 
ATOM      3  C   UNL     1      -1.681  13.413  22.378  0.00  0.00    +0.000 C 
ATOM      4  C   UNL     1      -0.591  14.441  22.741  0.00  0.00    +0.000 C 
ATOM      5  C   UNL     1       0.569  14.425  21.745  0.00  0.00    +0.000 C 
ATOM      6  C   UNL     1       1.055  13.052  21.307  0.00  0.00    +0.000 C 
ATOM      7  O   UNL     1       2.184  12.916  20.837  0.00  0.00    +0.000 OA
ATOM      8  C   UNL     1      -2.326  13.825  21.047  0.00  0.00    +0.000 C 
ATOM      9  C   UNL     1      -3.455  12.905  20.652  0.00  0.00    +0.000 C 
ATOM     10  N   UNL     1      -4.478  12.734  21.663  0.00  0.00    +0.000 N 
ATOM     11  C   UNL     1      -5.827  12.457  21.351  0.00  0.00    +0.000 C 
ATOM     12  O   UNL     1      -6.642  12.228  22.255  0.00  0.00    +0.000 OA
ATOM     13  C   UNL     1      -4.002  12.482  23.027  0.00  0.00    +0.000 C 
ATOM     14  C   UNL     1      -2.816  13.382  23.432  0.00  0.00    +0.000 C 
ENDROOT
BRANCH  11  15
ATOM     15  C   UNL     1      -6.257  12.486  19.941  0.00  0.00    +0.000 A 
ATOM     16  C   UNL     1      -6.663  11.454  19.034  0.00  0.00    +0.000 A 
ATOM     17  C   UNL     1      -6.847   9.994  19.231  0.00  0.00    +0.000 C 
ATOM     18  N   UNL     1      -6.888  11.922  17.804  0.00  0.00    +0.000 NA
ATOM     19  N   UNL     1      -6.745  13.245  17.920  0.00  0.00    +0.000 N 
ATOM     20  C   UNL     1      -6.953  14.057  16.743  0.00  0.00    +0.000 C 
ATOM     21  C   UNL     1      -6.440  13.652  19.191  0.00  0.00    +0.000 A 
ATOM     22  C   UNL     1      -6.350  15.081  19.593  0.00  0.00    +0.000 C 
ENDBRANCH  11  15
BRANCH   1  23
ATOM     23  C   UNL     1       0.317  10.842  20.502  0.00  0.00    +0.000 C 
BRANCH  23  24
ATOM     24  C   UNL     1      -0.671  10.783  19.323  0.00  0.00    +0.000 C 
BRANCH  24  26
ATOM     25  C   UNL     1       1.254   9.698  18.459  0.00  0.00    +0.000 C 
ATOM     26  O   UNL     1      -0.082  10.110  18.209  0.00  0.00    +0.000 OA
ENDBRANCH  24  26
ENDBRANCH  23  24
ENDBRANCH   1  23
TORSDOF 4
ENDMDL
MODEL 8
REMARK VINA RESULT:      -5.6      8.272     11.909
REMARK  Name = 
REMARK  8 active torsions:
REMARK  status: ('A' for Active; 'I' for Inactive)
REMARK    1  A    between atoms: C_1  and  O_2
REMARK    2  A    between atoms: O_2  and  C_3
REMARK    3  A    between atoms: C_3  and  C_4
REMARK    4  A    between atoms: C_4  and  N_5
REMARK    5  A    between atoms: C_15  and  C_17
REMARK    6  A    between atoms: C_18  and  C_19
REMARK    7  A    between atoms: N_21  and  C_22
REMARK    8  A    between atoms: C_23  and  C_24
REMARK                            x       y       z     vdW  Elec       q    Type
REMARK                         _______ _______ _______ _____ _____    ______ ____
ROOT
ATOM      1  N   UNL     1      -0.387  11.937  21.693  0.00  0.00    +0.000 N 
ATOM      2  C   UNL     1      -1.405  12.041  22.726  0.00  0.00    +0.000 C 
ATOM      3  C   UNL     1      -2.036  13.444  22.795  0.00  0.00    +0.000 C 
ATOM      4  C   UNL     1      -0.875  14.428  23.042  0.00  0.00    +0.000 C 
ATOM      5  C   UNL     1       0.212  14.314  21.973  0.00  0.00    +0.000 C 
ATOM      6  C   UNL     1       0.600  12.903  21.561  0.00  0.00    +0.000 C 
ATOM      7  O   UNL     1       1.686  12.691  21.023  0.00  0.00    +0.000 OA
ATOM      8  C   UNL     1      -2.749  13.838  21.493  0.00  0.00    +0.000 C 
ATOM      9  C   UNL     1      -3.946  12.962  21.213  0.00  0.00    +0.000 C 
ATOM     10  N   UNL     1      -4.905  12.884  22.297  0.00  0.00    +0.000 N 
ATOM     11  C   UNL     1      -6.285  12.664  22.086  0.00  0.00    +0.000 C 
ATOM     12  O   UNL     1      -7.045  12.512  23.051  0.00  0.00    +0.000 OA
ATOM     13  C   UNL     1      -4.349  12.659  23.635  0.00  0.00    +0.000 C 
ATOM     14  C   UNL     1      -3.097  13.512  23.922  0.00  0.00    +0.000 C 
ENDROOT
BRANCH  11  15
ATOM     15  C   UNL     1      -6.808  12.662  20.708  0.00  0.00    +0.000 A 
ATOM     16  C   UNL     1      -7.133  11.601  19.801  0.00  0.00    +0.000 A 
ATOM     17  C   UNL     1      -7.110  10.127  19.970  0.00  0.00    +0.000 C 
ATOM     18  N   UNL     1      -7.500  12.057  18.601  0.00  0.00    +0.000 NA
ATOM     19  N   UNL     1      -7.526  13.386  18.743  0.00  0.00    +0.000 N 
ATOM     20  C   UNL     1      -7.917  14.184  17.605  0.00  0.00    +0.000 C 
ATOM     21  C   UNL     1      -7.192  13.806  20.003  0.00  0.00    +0.000 A 
ATOM     22  C   UNL     1      -7.265  15.227  20.437  0.00  0.00    +0.000 C 
ENDBRANCH  11  15
BRANCH   1  23
ATOM     23  C   UNL     1      -0.298  10.704  20.900  0.00  0.00    +0.000 C 
BRANCH  23  24
ATOM     24  C   UNL     1      -1.155  10.775  19.622  0.00  0.00    +0.000 C 
BRANCH  24  26
ATOM     25  C   UNL     1      -0.869  12.659  18.208  0.00  0.00    +0.000 C 
ATOM     26  O   UNL     1      -0.411  11.359  18.552  0.00  0.00    +0.000 OA
ENDBRANCH  24  26
ENDBRANCH  23  24
ENDBRANCH   1  23
TORSDOF 4
ENDMDL
MODEL 9
REMARK VINA RESULT:      -5.5      2.878      5.329
REMARK  Name = 
REMARK  8 active torsions:
REMARK  status: ('A' for Active; 'I' for Inactive)
REMARK    1  A    between atoms: C_1  and  O_2
REMARK    2  A    between atoms: O_2  and  C_3
REMARK    3  A    between atoms: C_3  and  C_4
REMARK    4  A    between atoms: C_4  and  N_5
REMARK    5  A    between atoms: C_15  and  C_17
REMARK    6  A    between atoms: C_18  and  C_19
REMARK    7  A    between atoms: N_21  and  C_22
REMARK    8  A    between atoms: C_23  and  C_24
REMARK                            x       y       z     vdW  Elec       q    Type
REMARK                         _______ _______ _______ _____ _____    ______ ____
ROOT
ATOM      1  N   UNL     1       9.678  14.750  18.308  0.00  0.00    +0.000 N 
ATOM      2  C   UNL     1       9.585  13.443  18.937  0.00  0.00    +0.000 C 
ATOM      3  C   UNL     1      10.564  13.284  20.115  0.00  0.00    +0.000 C 
ATOM      4  C   UNL     1      11.973  13.539  19.543  0.00  0.00    +0.000 C 
ATOM      5  C   UNL     1      12.078  14.904  18.862  0.00  0.00    +0.000 C 
ATOM      6  C   UNL     1      10.907  15.299  17.974  0.00  0.00    +0.000 C 
ATOM      7  O   UNL     1      11.051  16.158  17.105  0.00  0.00    +0.000 OA
ATOM      8  C   UNL     1      10.300  14.288  21.246  0.00  0.00    +0.000 C 
ATOM      9  C   UNL     1       8.963  14.060  21.908  0.00  0.00    +0.000 C 
ATOM     10  N   UNL     1       8.748  12.710  22.387  0.00  0.00    +0.000 N 
ATOM     11  C   UNL     1       7.924  12.411  23.496  0.00  0.00    +0.000 C 
ATOM     12  O   UNL     1       7.700  11.233  23.806  0.00  0.00    +0.000 OA
ATOM     13  C   UNL     1       9.103  11.631  21.460  0.00  0.00    +0.000 C 
ATOM     14  C   UNL     1      10.445  11.870  20.738  0.00  0.00    +0.000 C 
ENDROOT
BRANCH  11  15
ATOM     15  C   UNL     1       7.375  13.518  24.299  0.00  0.00    +0.000 A 
ATOM     16  C   UNL     1       7.857  14.195  25.466  0.00  0.00    +0.000 A 
ATOM     17  C   UNL     1       9.118  14.047  26.233  0.00  0.00    +0.000 C 
ATOM     18  N   UNL     1       6.983  15.096  25.924  0.00  0.00    +0.000 NA
ATOM     19  N   UNL     1       5.999  15.096  25.020  0.00  0.00    +0.000 N 
ATOM     20  C   UNL     1       4.891  16.000  25.221  0.00  0.00    +0.000 C 
ATOM     21  C   UNL     1       6.211  14.225  23.984  0.00  0.00    +0.000 A 
ATOM     22  C   UNL     1       5.317  14.133  22.799  0.00  0.00    +0.000 C 
ENDBRANCH  11  15
BRANCH   1  23
ATOM     23  C   UNL     1       8.448  15.415  17.858  0.00  0.00    +0.000 C 
BRANCH  23  24
ATOM     24  C   UNL     1       7.199  14.863  18.570  0.00  0.00    +0.000 C 
BRANCH  24  26
ATOM     25  C   UNL     1       4.923  14.962  17.908  0.00  0.00    +0.000 C 
ATOM     26  O   UNL     1       6.217  14.455  17.617  0.00  0.00    +0.000 OA
ENDBRANCH  24  26
ENDBRANCH  23  24
ENDBRANCH   1  23
TORSDOF 4
ENDMDL
