MODEL 1
REMARK VINA RESULT:      -9.1      0.000      0.000
REMARK  Name = 
REMARK  9 active torsions:
REMARK  status: ('A' for Active; 'I' for Inactive)
REMARK    1  A    between atoms: C_1  and  N_2
REMARK    2  A    between atoms: N_2  and  C_3
REMARK    3  A    between atoms: N_2  and  C_4
REMARK    4  A    between atoms: C_4  and  C_5
REMARK    5  A    between atoms: C_8  and  C_9
REMARK    6  A    between atoms: N_11  and  C_12
REMARK    7  A    between atoms: C_17  and  C_18
REMARK    8  A    between atoms: N_20  and  C_21
REMARK    9  A    between atoms: C_21  and  C_22
REMARK                            x       y       z     vdW  Elec       q    Type
REMARK                         _______ _______ _______ _____ _____    ______ ____
ROOT
ATOM      1  C   UNL     1       1.791   6.918  20.184  0.00  0.00    +0.000 C 
ATOM      2  O   UNL     1       1.374   6.292  21.153  0.00  0.00    +0.000 OA
ATOM      3  N   UNL     1       1.616   8.287  19.996  0.00  0.00    +0.000 N 
ATOM      4  H   UNL     1       1.648   8.620  19.027  0.00  0.00    +0.000 HD
ENDROOT
BRANCH   1   8
ATOM      5  C   UNL     1       4.109   4.864  17.185  0.00  0.00    +0.000 A 
ATOM      6  C   UNL     1       4.273   6.237  17.449  0.00  0.00    +0.000 A 
ATOM      7  C   UNL     1       3.464   6.898  18.370  0.00  0.00    +0.000 A 
ATOM      8  C   UNL     1       2.500   6.185  19.089  0.00  0.00    +0.000 A 
ATOM      9  C   UNL     1       2.290   4.792  18.843  0.00  0.00    +0.000 A 
ATOM     10  C   UNL     1       1.360   4.005  19.569  0.00  0.00    +0.000 A 
ATOM     11  C   UNL     1       1.149   2.651  19.288  0.00  0.00    +0.000 A 
ATOM     12  C   UNL     1       1.817   2.060  18.234  0.00  0.00    +0.000 A 
ATOM     13  C   UNL     1       2.751   2.801  17.513  0.00  0.00    +0.000 A 
ATOM     14  C   UNL     1       3.056   4.147  17.832  0.00  0.00    +0.000 A 
BRANCH   5  15
ATOM     15  C   UNL     1       5.157   4.189  16.297  0.00  0.00    +0.000 C 
BRANCH  15  17
ATOM     16  C   UNL     1       7.444   4.509  17.106  0.00  0.00    +0.000 C 
ATOM     17  N   UNL     1       6.407   4.976  16.176  0.00  0.00    +0.000 NA
ATOM     18  C   UNL     1       6.930   4.908  14.809  0.00  0.00    +0.000 C 
ENDBRANCH  15  17
ENDBRANCH   5  15
ENDBRANCH   1   8
BRANCH   3  19
ATOM     19  C   UNL     1       0.874   9.092  20.902  0.00  0.00    +0.000 A 
ATOM     20  C   UNL     1       0.996   8.918  22.284  0.00  0.00    +0.000 A 
ATOM     21  C   UNL     1       0.201   9.652  23.162  0.00  0.00    +0.000 A 
ATOM     22  C   UNL     1      -0.697  10.575  22.627  0.00  0.00    +0.000 A 
ATOM     23  N   UNL     1      -0.820  10.822  21.304  0.00  0.00    +0.000 NA
ATOM     24  C   UNL     1      -0.026  10.079  20.468  0.00  0.00    +0.000 A 
BRANCH  24  25
ATOM     25  C   UNL     1      -0.259  10.310  18.992  0.00  0.00    +0.000 C 
ATOM     26  O   UNL     1       0.642  10.677  18.254  0.00  0.00    +0.000 OA
ATOM     27  N   UNL     1      -1.550  10.058  18.558  0.00  0.00    +0.000 N 
ATOM     28  H   UNL     1      -2.245   9.846  19.272  0.00  0.00    +0.000 HD
BRANCH  27  29
ATOM     29  C   UNL     1      -1.903  10.196  17.161  0.00  0.00    +0.000 C 
BRANCH  29  30
ATOM     30  C   UNL     1      -2.920  11.311  17.014  0.00  0.00    +0.000 C 
ATOM     31  C   UNL     1      -4.117  10.981  16.078  0.00  0.00    +0.000 C 
ATOM     32  C   UNL     1      -5.006  11.795  17.037  0.00  0.00    +0.000 C 
ATOM     33  C   UNL     1      -3.976  11.485  18.142  0.00  0.00    +0.000 C 
ENDBRANCH  29  30
ENDBRANCH  27  29
ENDBRANCH  24  25
ENDBRANCH   3  19
TORSDOF 7
ENDMDL
MODEL 2
REMARK VINA RESULT:      -9.0      2.956      8.274
REMARK  Name = 
REMARK  9 active torsions:
REMARK  status: ('A' for Active; 'I' for Inactive)
REMARK    1  A    between atoms: C_1  and  N_2
REMARK    2  A    between atoms: N_2  and  C_3
REMARK    3  A    between atoms: N_2  and  C_4
REMARK    4  A    between atoms: C_4  and  C_5
REMARK    5  A    between atoms: C_8  and  C_9
REMARK    6  A    between atoms: N_11  and  C_12
REMARK    7  A    between atoms: C_17  and  C_18
REMARK    8  A    between atoms: N_20  and  C_21
REMARK    9  A    between atoms: C_21  and  C_22
REMARK                            x       y       z     vdW  Elec       q    Type
REMARK                         _______ _______ _______ _____ _____    ______ ____
ROOT
ATOM      1  C   UNL     1       2.262   6.555  19.026  0.00  0.00    +0.000 C 
ATOM      2  O   UNL     1       1.757   5.878  18.136  0.00  0.00    +0.000 OA
ATOM      3  N   UNL     1       3.034   6.042  20.065  0.00  0.00    +0.000 N 
ATOM      4  H   UNL     1       3.069   6.602  20.924  0.00  0.00    +0.000 HD
ENDROOT
BRANCH   1   8
ATOM      5  C   UNL     1       1.374  10.770  18.831  0.00  0.00    +0.000 A 
ATOM      6  C   UNL     1       2.123  10.115  17.835  0.00  0.00    +0.000 A 
ATOM      7  C   UNL     1       2.461   8.768  17.953  0.00  0.00    +0.000 A 
ATOM      8  C   UNL     1       2.013   8.031  19.053  0.00  0.00    +0.000 A 
ATOM      9  C   UNL     1       1.262   8.660  20.094  0.00  0.00    +0.000 A 
ATOM     10  C   UNL     1       0.741   7.958  21.211  0.00  0.00    +0.000 A 
ATOM     11  C   UNL     1       0.037   8.600  22.235  0.00  0.00    +0.000 A 
ATOM     12  C   UNL     1      -0.115   9.972  22.202  0.00  0.00    +0.000 A 
ATOM     13  C   UNL     1       0.368  10.689  21.109  0.00  0.00    +0.000 A 
ATOM     14  C   UNL     1       1.003  10.056  20.012  0.00  0.00    +0.000 A 
BRANCH   5  15
ATOM     15  C   UNL     1       0.899  12.193  18.530  0.00  0.00    +0.000 C 
BRANCH  15  17
ATOM     16  C   UNL     1       2.677  13.826  18.131  0.00  0.00    +0.000 C 
ATOM     17  N   UNL     1       1.771  13.233  19.124  0.00  0.00    +0.000 NA
ATOM     18  C   UNL     1       0.967  14.299  19.728  0.00  0.00    +0.000 C 
ENDBRANCH  15  17
ENDBRANCH   5  15
ENDBRANCH   1   8
BRANCH   3  19
ATOM     19  C   UNL     1       3.268   4.649  20.225  0.00  0.00    +0.000 A 
ATOM     20  C   UNL     1       2.366   3.845  20.929  0.00  0.00    +0.000 A 
ATOM     21  C   UNL     1       2.646   2.500  21.155  0.00  0.00    +0.000 A 
ATOM     22  C   UNL     1       3.834   1.976  20.644  0.00  0.00    +0.000 A 
ATOM     23  N   UNL     1       4.716   2.692  19.914  0.00  0.00    +0.000 NA
ATOM     24  C   UNL     1       4.411   4.015  19.714  0.00  0.00    +0.000 A 
BRANCH  24  25
ATOM     25  C   UNL     1       5.466   4.810  18.978  0.00  0.00    +0.000 C 
ATOM     26  O   UNL     1       5.592   6.013  19.146  0.00  0.00    +0.000 OA
ATOM     27  N   UNL     1       6.271   4.068  18.129  0.00  0.00    +0.000 N 
ATOM     28  H   UNL     1       6.022   3.090  17.993  0.00  0.00    +0.000 HD
BRANCH  27  29
ATOM     29  C   UNL     1       7.350   4.694  17.395  0.00  0.00    +0.000 C 
BRANCH  29  30
ATOM     30  C   UNL     1       6.981   4.754  15.925  0.00  0.00    +0.000 C 
ATOM     31  C   UNL     1       6.099   3.574  15.427  0.00  0.00    +0.000 C 
ATOM     32  C   UNL     1       5.381   4.583  14.511  0.00  0.00    +0.000 C 
ATOM     33  C   UNL     1       5.804   5.681  15.509  0.00  0.00    +0.000 C 
ENDBRANCH  29  30
ENDBRANCH  27  29
ENDBRANCH  24  25
ENDBRANCH   3  19
TORSDOF 7
ENDMDL
MODEL 3
REMARK VINA RESULT:      -8.8      2.671      8.545
REMARK  Name = 
REMARK  9 active torsions:
REMARK  status: ('A' for Active; 'I' for Inactive)
REMARK    1  A    between atoms: C_1  and  N_2
REMARK    2  A    between atoms: N_2  and  C_3
REMARK    3  A    between atoms: N_2  and  C_4
REMARK    4  A    between atoms: C_4  and  C_5
REMARK    5  A    between atoms: C_8  and  C_9
REMARK    6  A    between atoms: N_11  and  C_12
REMARK    7  A    between atoms: C_17  and  C_18
REMARK    8  A    between atoms: N_20  and  C_21
REMARK    9  A    between atoms: C_21  and  C_22
REMARK                            x       y       z     vdW  Elec       q    Type
REMARK                         _______ _______ _______ _____ _____    ______ ____
ROOT
ATOM      1  C   UNL     1       2.132   6.594  19.498  0.00  0.00    +0.000 C 
ATOM      2  O   UNL     1       2.501   6.145  20.579  0.00  0.00    +0.000 OA
ATOM      3  N   UNL     1       1.971   5.834  18.343  0.00  0.00    +0.000 N 
ATOM      4  H   UNL     1       2.043   6.340  17.453  0.00  0.00    +0.000 HD
ENDROOT
BRANCH   1   8
ATOM      5  C   UNL     1       1.222  10.758  18.851  0.00  0.00    +0.000 A 
ATOM      6  C   UNL     1       1.992  10.009  17.941  0.00  0.00    +0.000 A 
ATOM      7  C   UNL     1       2.336   8.685  18.203  0.00  0.00    +0.000 A 
ATOM      8  C   UNL     1       1.873   8.063  19.367  0.00  0.00    +0.000 A 
ATOM      9  C   UNL     1       1.101   8.791  20.325  0.00  0.00    +0.000 A 
ATOM     10  C   UNL     1       0.566   8.204  21.500  0.00  0.00    +0.000 A 
ATOM     11  C   UNL     1      -0.160   8.944  22.439  0.00  0.00    +0.000 A 
ATOM     12  C   UNL     1      -0.320  10.304  22.262  0.00  0.00    +0.000 A 
ATOM     13  C   UNL     1       0.178  10.907  21.108  0.00  0.00    +0.000 A 
ATOM     14  C   UNL     1       0.835  10.169  20.093  0.00  0.00    +0.000 A 
BRANCH   5  15
ATOM     15  C   UNL     1       0.744  12.139  18.396  0.00  0.00    +0.000 C 
BRANCH  15  17
ATOM     16  C   UNL     1       2.702  13.584  18.147  0.00  0.00    +0.000 C 
ATOM     17  N   UNL     1       1.537  13.248  18.976  0.00  0.00    +0.000 NA
ATOM     18  C   UNL     1       0.709  14.446  19.138  0.00  0.00    +0.000 C 
ENDBRANCH  15  17
ENDBRANCH   5  15
ENDBRANCH   1   8
BRANCH   3  19
ATOM     19  C   UNL     1       2.278   4.448  18.293  0.00  0.00    +0.000 A 
ATOM     20  C   UNL     1       1.438   3.503  18.889  0.00  0.00    +0.000 A 
ATOM     21  C   UNL     1       1.791   2.156  18.910  0.00  0.00    +0.000 A 
ATOM     22  C   UNL     1       2.989   1.777  18.304  0.00  0.00    +0.000 A 
ATOM     23  N   UNL     1       3.814   2.637  17.669  0.00  0.00    +0.000 NA
ATOM     24  C   UNL     1       3.438   3.957  17.671  0.00  0.00    +0.000 A 
BRANCH  24  25
ATOM     25  C   UNL     1       4.431   4.906  17.038  0.00  0.00    +0.000 C 
ATOM     26  O   UNL     1       4.677   5.995  17.533  0.00  0.00    +0.000 OA
ATOM     27  N   UNL     1       5.035   4.435  15.884  0.00  0.00    +0.000 N 
ATOM     28  H   UNL     1       4.690   3.553  15.507  0.00  0.00    +0.000 HD
BRANCH  27  29
ATOM     29  C   UNL     1       6.038   5.222  15.198  0.00  0.00    +0.000 C 
BRANCH  29  30
ATOM     30  C   UNL     1       6.748   4.346  14.185  0.00  0.00    +0.000 C 
ATOM     31  C   UNL     1       5.817   3.691  13.125  0.00  0.00    +0.000 C 
ATOM     32  C   UNL     1       6.953   3.887  12.102  0.00  0.00    +0.000 C 
ATOM     33  C   UNL     1       7.456   5.045  12.989  0.00  0.00    +0.000 C 
ENDBRANCH  29  30
ENDBRANCH  27  29
ENDBRANCH  24  25
ENDBRANCH   3  19
TORSDOF 7
ENDMDL
MODEL 4
REMARK VINA RESULT:      -8.7      2.267      8.338
REMARK  Name = 
REMARK  9 active torsions:
REMARK  status: ('A' for Active; 'I' for Inactive)
REMARK    1  A    between atoms: C_1  and  N_2
REMARK    2  A    between atoms: N_2  and  C_3
REMARK    3  A    between atoms: N_2  and  C_4
REMARK    4  A    between atoms: C_4  and  C_5
REMARK    5  A    between atoms: C_8  and  C_9
REMARK    6  A    between atoms: N_11  and  C_12
REMARK    7  A    between atoms: C_17  and  C_18
REMARK    8  A    between atoms: N_20  and  C_21
REMARK    9  A    between atoms: C_21  and  C_22
REMARK                            x       y       z     vdW  Elec       q    Type
REMARK                         _______ _______ _______ _____ _____    ______ ____
ROOT
ATOM      1  C   UNL     1       2.360   6.751  18.976  0.00  0.00    +0.000 C 
ATOM      2  O   UNL     1       2.030   6.117  17.978  0.00  0.00    +0.000 OA
ATOM      3  N   UNL     1       3.010   6.201  20.078  0.00  0.00    +0.000 N 
ATOM      4  H   UNL     1       2.889   6.695  20.969  0.00  0.00    +0.000 HD
ENDROOT
BRANCH   1   8
ATOM      5  C   UNL     1       1.187  10.899  18.972  0.00  0.00    +0.000 A 
ATOM      6  C   UNL     1       1.921  10.327  17.916  0.00  0.00    +0.000 A 
ATOM      7  C   UNL     1       2.353   9.004  17.969  0.00  0.00    +0.000 A 
ATOM      8  C   UNL     1       2.016   8.204  19.066  0.00  0.00    +0.000 A 
ATOM      9  C   UNL     1       1.285   8.749  20.167  0.00  0.00    +0.000 A 
ATOM     10  C   UNL     1       0.876   7.980  21.286  0.00  0.00    +0.000 A 
ATOM     11  C   UNL     1       0.189   8.542  22.367  0.00  0.00    +0.000 A 
ATOM     12  C   UNL     1      -0.055   9.901  22.390  0.00  0.00    +0.000 A 
ATOM     13  C   UNL     1       0.318  10.682  21.297  0.00  0.00    +0.000 A 
ATOM     14  C   UNL     1       0.931  10.127  20.146  0.00  0.00    +0.000 A 
BRANCH   5  15
ATOM     15  C   UNL     1       0.603  12.296  18.746  0.00  0.00    +0.000 C 
BRANCH  15  17
ATOM     16  C   UNL     1      -1.218  13.702  19.579  0.00  0.00    +0.000 C 
ATOM     17  N   UNL     1      -0.842  12.378  19.065  0.00  0.00    +0.000 NA
ATOM     18  C   UNL     1      -1.650  12.082  17.880  0.00  0.00    +0.000 C 
ENDBRANCH  15  17
ENDBRANCH   5  15
ENDBRANCH   1   8
BRANCH   3  19
ATOM     19  C   UNL     1       3.307   4.815  20.176  0.00  0.00    +0.000 A 
ATOM     20  C   UNL     1       2.486   3.954  20.910  0.00  0.00    +0.000 A 
ATOM     21  C   UNL     1       2.833   2.615  21.072  0.00  0.00    +0.000 A 
ATOM     22  C   UNL     1       4.002   2.155  20.466  0.00  0.00    +0.000 A 
ATOM     23  N   UNL     1       4.805   2.929  19.703  0.00  0.00    +0.000 NA
ATOM     24  C   UNL     1       4.437   4.244  19.568  0.00  0.00    +0.000 A 
BRANCH  24  25
ATOM     25  C   UNL     1       5.408   5.103  18.791  0.00  0.00    +0.000 C 
ATOM     26  O   UNL     1       6.408   5.570  19.314  0.00  0.00    +0.000 OA
ATOM     27  N   UNL     1       5.081   5.296  17.458  0.00  0.00    +0.000 N 
ATOM     28  H   UNL     1       4.179   4.939  17.147  0.00  0.00    +0.000 HD
BRANCH  27  29
ATOM     29  C   UNL     1       5.945   6.062  16.586  0.00  0.00    +0.000 C 
BRANCH  29  30
ATOM     30  C   UNL     1       5.815   5.534  15.171  0.00  0.00    +0.000 C 
ATOM     31  C   UNL     1       7.117   4.920  14.583  0.00  0.00    +0.000 C 
ATOM     32  C   UNL     1       6.229   3.883  13.871  0.00  0.00    +0.000 C 
ATOM     33  C   UNL     1       5.180   4.129  14.975  0.00  0.00    +0.000 C 
ENDBRANCH  29  30
ENDBRANCH  27  29
ENDBRANCH  24  25
ENDBRANCH   3  19
TORSDOF 7
ENDMDL
MODEL 5
REMARK VINA RESULT:      -8.5      2.602      8.430
REMARK  Name = 
REMARK  9 active torsions:
REMARK  status: ('A' for Active; 'I' for Inactive)
REMARK    1  A    between atoms: C_1  and  N_2
REMARK    2  A    between atoms: N_2  and  C_3
REMARK    3  A    between atoms: N_2  and  C_4
REMARK    4  A    between atoms: C_4  and  C_5
REMARK    5  A    between atoms: C_8  and  C_9
REMARK    6  A    between atoms: N_11  and  C_12
REMARK    7  A    between atoms: C_17  and  C_18
REMARK    8  A    between atoms: N_20  and  C_21
REMARK    9  A    between atoms: C_21  and  C_22
REMARK                            x       y       z     vdW  Elec       q    Type
REMARK                         _______ _______ _______ _____ _____    ______ ____
ROOT
ATOM      1  C   UNL     1       2.136   6.658  19.478  0.00  0.00    +0.000 C 
ATOM      2  O   UNL     1       2.582   6.211  20.530  0.00  0.00    +0.000 OA
ATOM      3  N   UNL     1       1.909   5.899  18.333  0.00  0.00    +0.000 N 
ATOM      4  H   UNL     1       1.915   6.408  17.443  0.00  0.00    +0.000 HD
ENDROOT
BRANCH   1   8
ATOM      5  C   UNL     1       1.137  10.812  18.899  0.00  0.00    +0.000 A 
ATOM      6  C   UNL     1       1.908  10.089  17.968  0.00  0.00    +0.000 A 
ATOM      7  C   UNL     1       2.281   8.769  18.208  0.00  0.00    +0.000 A 
ATOM      8  C   UNL     1       1.847   8.123  19.370  0.00  0.00    +0.000 A 
ATOM      9  C   UNL     1       1.075   8.823  20.348  0.00  0.00    +0.000 A 
ATOM     10  C   UNL     1       0.569   8.212  21.523  0.00  0.00    +0.000 A 
ATOM     11  C   UNL     1      -0.156   8.925  22.483  0.00  0.00    +0.000 A 
ATOM     12  C   UNL     1      -0.345  10.284  22.326  0.00  0.00    +0.000 A 
ATOM     13  C   UNL     1       0.124  10.911  21.173  0.00  0.00    +0.000 A 
ATOM     14  C   UNL     1       0.780  10.199  20.139  0.00  0.00    +0.000 A 
BRANCH   5  15
ATOM     15  C   UNL     1       0.626  12.189  18.469  0.00  0.00    +0.000 C 
BRANCH  15  17
ATOM     16  C   UNL     1       2.558  13.658  18.160  0.00  0.00    +0.000 C 
ATOM     17  N   UNL     1       1.425  13.305  19.027  0.00  0.00    +0.000 NA
ATOM     18  C   UNL     1       0.590  14.492  19.223  0.00  0.00    +0.000 C 
ENDBRANCH  15  17
ENDBRANCH   5  15
ENDBRANCH   1   8
BRANCH   3  19
ATOM     19  C   UNL     1       2.234   4.518  18.257  0.00  0.00    +0.000 A 
ATOM     20  C   UNL     1       1.427   3.556  18.873  0.00  0.00    +0.000 A 
ATOM     21  C   UNL     1       1.799   2.213  18.867  0.00  0.00    +0.000 A 
ATOM     22  C   UNL     1       2.980   1.856  18.215  0.00  0.00    +0.000 A 
ATOM     23  N   UNL     1       3.770   2.735  17.560  0.00  0.00    +0.000 NA
ATOM     24  C   UNL     1       3.376   4.049  17.589  0.00  0.00    +0.000 A 
BRANCH  24  25
ATOM     25  C   UNL     1       4.333   5.018  16.932  0.00  0.00    +0.000 C 
ATOM     26  O   UNL     1       4.086   6.211  16.862  0.00  0.00    +0.000 OA
ATOM     27  N   UNL     1       5.497   4.448  16.442  0.00  0.00    +0.000 N 
ATOM     28  H   UNL     1       5.562   3.431  16.470  0.00  0.00    +0.000 HD
BRANCH  27  29
ATOM     29  C   UNL     1       6.521   5.265  15.827  0.00  0.00    +0.000 C 
BRANCH  29  30
ATOM     30  C   UNL     1       7.579   5.597  16.861  0.00  0.00    +0.000 C 
ATOM     31  C   UNL     1       7.429   6.998  17.518  0.00  0.00    +0.000 C 
ATOM     32  C   UNL     1       7.924   6.363  18.832  0.00  0.00    +0.000 C 
ATOM     33  C   UNL     1       7.404   5.015  18.292  0.00  0.00    +0.000 C 
ENDBRANCH  29  30
ENDBRANCH  27  29
ENDBRANCH  24  25
ENDBRANCH   3  19
TORSDOF 7
ENDMDL
MODEL 6
REMARK VINA RESULT:      -8.4      1.979      8.652
REMARK  Name = 
REMARK  9 active torsions:
REMARK  status: ('A' for Active; 'I' for Inactive)
REMARK    1  A    between atoms: C_1  and  N_2
REMARK    2  A    between atoms: N_2  and  C_3
REMARK    3  A    between atoms: N_2  and  C_4
REMARK    4  A    between atoms: C_4  and  C_5
REMARK    5  A    between atoms: C_8  and  C_9
REMARK    6  A    between atoms: N_11  and  C_12
REMARK    7  A    between atoms: C_17  and  C_18
REMARK    8  A    between atoms: N_20  and  C_21
REMARK    9  A    between atoms: C_21  and  C_22
REMARK                            x       y       z     vdW  Elec       q    Type
REMARK                         _______ _______ _______ _____ _____    ______ ____
ROOT
ATOM      1  C   UNL     1       2.217   6.516  19.446  0.00  0.00    +0.000 C 
ATOM      2  O   UNL     1       2.678   6.070  20.493  0.00  0.00    +0.000 OA
ATOM      3  N   UNL     1       1.974   5.756  18.305  0.00  0.00    +0.000 N 
ATOM      4  H   UNL     1       1.968   6.264  17.414  0.00  0.00    +0.000 HD
ENDROOT
BRANCH   1   8
ATOM      5  C   UNL     1       1.203  10.668  18.883  0.00  0.00    +0.000 A 
ATOM      6  C   UNL     1       1.922   9.935  17.919  0.00  0.00    +0.000 A 
ATOM      7  C   UNL     1       2.302   8.615  18.151  0.00  0.00    +0.000 A 
ATOM      8  C   UNL     1       1.928   7.981  19.340  0.00  0.00    +0.000 A 
ATOM      9  C   UNL     1       1.211   8.693  20.351  0.00  0.00    +0.000 A 
ATOM     10  C   UNL     1       0.765   8.094  21.557  0.00  0.00    +0.000 A 
ATOM     11  C   UNL     1       0.093   8.819  22.546  0.00  0.00    +0.000 A 
ATOM     12  C   UNL     1      -0.099  10.177  22.387  0.00  0.00    +0.000 A 
ATOM     13  C   UNL     1       0.310  10.792  21.205  0.00  0.00    +0.000 A 
ATOM     14  C   UNL     1       0.909  10.068  20.145  0.00  0.00    +0.000 A 
BRANCH   5  15
ATOM     15  C   UNL     1       0.674  12.043  18.467  0.00  0.00    +0.000 C 
BRANCH  15  17
ATOM     16  C   UNL     1      -0.986  13.659  19.252  0.00  0.00    +0.000 C 
ATOM     17  N   UNL     1      -0.736  12.265  18.863  0.00  0.00    +0.000 NA
ATOM     18  C   UNL     1      -1.642  11.908  17.769  0.00  0.00    +0.000 C 
ENDBRANCH  15  17
ENDBRANCH   5  15
ENDBRANCH   1   8
BRANCH   3  19
ATOM     19  C   UNL     1       2.296   4.374  18.227  0.00  0.00    +0.000 A 
ATOM     20  C   UNL     1       1.480   3.411  18.827  0.00  0.00    +0.000 A 
ATOM     21  C   UNL     1       1.849   2.068  18.820  0.00  0.00    +0.000 A 
ATOM     22  C   UNL     1       3.037   1.711  18.181  0.00  0.00    +0.000 A 
ATOM     23  N   UNL     1       3.838   2.591  17.542  0.00  0.00    +0.000 NA
ATOM     24  C   UNL     1       3.447   3.906  17.572  0.00  0.00    +0.000 A 
BRANCH  24  25
ATOM     25  C   UNL     1       4.415   4.876  16.932  0.00  0.00    +0.000 C 
ATOM     26  O   UNL     1       4.628   5.977  17.415  0.00  0.00    +0.000 OA
ATOM     27  N   UNL     1       5.036   4.409  15.785  0.00  0.00    +0.000 N 
ATOM     28  H   UNL     1       4.718   3.514  15.417  0.00  0.00    +0.000 HD
BRANCH  27  29
ATOM     29  C   UNL     1       6.019   5.217  15.094  0.00  0.00    +0.000 C 
BRANCH  29  30
ATOM     30  C   UNL     1       6.769   4.347  14.105  0.00  0.00    +0.000 C 
ATOM     31  C   UNL     1       5.874   3.651  13.040  0.00  0.00    +0.000 C 
ATOM     32  C   UNL     1       7.020   3.863  12.033  0.00  0.00    +0.000 C 
ATOM     33  C   UNL     1       7.476   5.047  12.910  0.00  0.00    +0.000 C 
ENDBRANCH  29  30
ENDBRANCH  27  29
ENDBRANCH  24  25
ENDBRANCH   3  19
TORSDOF 7
ENDMDL
MODEL 7
REMARK VINA RESULT:      -8.4      1.136      1.274
REMARK  Name = 
REMARK  9 active torsions:
REMARK  status: ('A' for Active; 'I' for Inactive)
REMARK    1  A    between atoms: C_1  and  N_2
REMARK    2  A    between atoms: N_2  and  C_3
REMARK    3  A    between atoms: N_2  and  C_4
REMARK    4  A    between atoms: C_4  and  C_5
REMARK    5  A    between atoms: C_8  and  C_9
REMARK    6  A    between atoms: N_11  and  C_12
REMARK    7  A    between atoms: C_17  and  C_18
REMARK    8  A    between atoms: N_20  and  C_21
REMARK    9  A    between atoms: C_21  and  C_22
REMARK                            x       y       z     vdW  Elec       q    Type
REMARK                         _______ _______ _______ _____ _____    ______ ____
ROOT
ATOM      1  C   UNL     1       1.377   6.927  20.466  0.00  0.00    +0.000 C 
ATOM      2  O   UNL     1       0.355   6.392  20.885  0.00  0.00    +0.000 OA
ATOM      3  N   UNL     1       1.718   8.259  20.689  0.00  0.00    +0.000 N 
ATOM      4  H   UNL     1       2.349   8.686  20.003  0.00  0.00    +0.000 HD
ENDROOT
BRANCH   1   8
ATOM      5  C   UNL     1       4.314   4.872  18.071  0.00  0.00    +0.000 A 
ATOM      6  C   UNL     1       3.852   6.162  17.747  0.00  0.00    +0.000 A 
ATOM      7  C   UNL     1       2.850   6.779  18.491  0.00  0.00    +0.000 A 
ATOM      8  C   UNL     1       2.319   6.136  19.614  0.00  0.00    +0.000 A 
ATOM      9  C   UNL     1       2.750   4.820  19.971  0.00  0.00    +0.000 A 
ATOM     10  C   UNL     1       2.283   4.134  21.121  0.00  0.00    +0.000 A 
ATOM     11  C   UNL     1       2.694   2.834  21.432  0.00  0.00    +0.000 A 
ATOM     12  C   UNL     1       3.536   2.159  20.571  0.00  0.00    +0.000 A 
ATOM     13  C   UNL     1       4.028   2.812  19.443  0.00  0.00    +0.000 A 
ATOM     14  C   UNL     1       3.705   4.160  19.149  0.00  0.00    +0.000 A 
BRANCH   5  15
ATOM     15  C   UNL     1       5.537   4.353  17.311  0.00  0.00    +0.000 C 
BRANCH  15  17
ATOM     16  C   UNL     1       7.554   5.487  18.107  0.00  0.00    +0.000 C 
ATOM     17  N   UNL     1       6.544   5.407  17.044  0.00  0.00    +0.000 NA
ATOM     18  C   UNL     1       7.218   5.165  15.766  0.00  0.00    +0.000 C 
ENDBRANCH  15  17
ENDBRANCH   5  15
ENDBRANCH   1   8
BRANCH   3  19
ATOM     19  C   UNL     1       0.869   9.155  21.393  0.00  0.00    +0.000 A 
ATOM     20  C   UNL     1       0.814   9.146  22.790  0.00  0.00    +0.000 A 
ATOM     21  C   UNL     1      -0.083   9.969  23.467  0.00  0.00    +0.000 A 
ATOM     22  C   UNL     1      -0.905  10.811  22.717  0.00  0.00    +0.000 A 
ATOM     23  N   UNL     1      -0.859  10.899  21.370  0.00  0.00    +0.000 NA
ATOM     24  C   UNL     1       0.033  10.072  20.735  0.00  0.00    +0.000 A 
BRANCH  24  25
ATOM     25  C   UNL     1      -0.010  10.125  19.224  0.00  0.00    +0.000 C 
ATOM     26  O   UNL     1       1.009  10.217  18.559  0.00  0.00    +0.000 OA
ATOM     27  N   UNL     1      -1.279  10.045  18.673  0.00  0.00    +0.000 N 
ATOM     28  H   UNL     1      -2.067  10.063  19.320  0.00  0.00    +0.000 HD
BRANCH  27  29
ATOM     29  C   UNL     1      -1.466  10.039  17.238  0.00  0.00    +0.000 C 
BRANCH  29  30
ATOM     30  C   UNL     1      -2.948  10.104  16.930  0.00  0.00    +0.000 C 
ATOM     31  C   UNL     1      -3.745  11.135  17.779  0.00  0.00    +0.000 C 
ATOM     32  C   UNL     1      -4.600  11.408  16.527  0.00  0.00    +0.000 C 
ATOM     33  C   UNL     1      -3.397  10.926  15.689  0.00  0.00    +0.000 C 
ENDBRANCH  29  30
ENDBRANCH  27  29
ENDBRANCH  24  25
ENDBRANCH   3  19
TORSDOF 7
ENDMDL
MODEL 8
REMARK VINA RESULT:      -8.3      1.255      1.489
REMARK  Name = 
REMARK  9 active torsions:
REMARK  status: ('A' for Active; 'I' for Inactive)
REMARK    1  A    between atoms: C_1  and  N_2
REMARK    2  A    between atoms: N_2  and  C_3
REMARK    3  A    between atoms: N_2  and  C_4
REMARK    4  A    between atoms: C_4  and  C_5
REMARK    5  A    between atoms: C_8  and  C_9
REMARK    6  A    between atoms: N_11  and  C_12
REMARK    7  A    between atoms: C_17  and  C_18
REMARK    8  A    between atoms: N_20  and  C_21
REMARK    9  A    between atoms: C_21  and  C_22
REMARK                            x       y       z     vdW  Elec       q    Type
REMARK                         _______ _______ _______ _____ _____    ______ ____
ROOT
ATOM      1  C   UNL     1       1.694   8.027  20.596  0.00  0.00    +0.000 C 
ATOM      2  O   UNL     1       2.242   8.039  21.693  0.00  0.00    +0.000 OA
ATOM      3  N   UNL     1       0.588   8.803  20.259  0.00  0.00    +0.000 N 
ATOM      4  H   UNL     1      -0.002   8.447  19.500  0.00  0.00    +0.000 HD
ENDROOT
BRANCH   1   8
ATOM      5  C   UNL     1       3.433   5.437  17.620  0.00  0.00    +0.000 A 
ATOM      6  C   UNL     1       3.538   6.839  17.547  0.00  0.00    +0.000 A 
ATOM      7  C   UNL     1       2.908   7.661  18.478  0.00  0.00    +0.000 A 
ATOM      8  C   UNL     1       2.194   7.093  19.539  0.00  0.00    +0.000 A 
ATOM      9  C   UNL     1       2.051   5.674  19.643  0.00  0.00    +0.000 A 
ATOM     10  C   UNL     1       1.379   5.037  20.718  0.00  0.00    +0.000 A 
ATOM     11  C   UNL     1       1.222   3.649  20.782  0.00  0.00    +0.000 A 
ATOM     12  C   UNL     1       1.680   2.861  19.744  0.00  0.00    +0.000 A 
ATOM     13  C   UNL     1       2.361   3.454  18.683  0.00  0.00    +0.000 A 
ATOM     14  C   UNL     1       2.618   4.847  18.635  0.00  0.00    +0.000 A 
BRANCH   5  15
ATOM     15  C   UNL     1       4.304   4.616  16.666  0.00  0.00    +0.000 C 
BRANCH  15  17
ATOM     16  C   UNL     1       6.308   4.613  18.071  0.00  0.00    +0.000 C 
ATOM     17  N   UNL     1       5.743   4.956  16.759  0.00  0.00    +0.000 NA
ATOM     18  C   UNL     1       6.506   4.263  15.718  0.00  0.00    +0.000 C 
ENDBRANCH  15  17
ENDBRANCH   5  15
ENDBRANCH   1   8
BRANCH   3  19
ATOM     19  C   UNL     1      -0.056   9.659  21.193  0.00  0.00    +0.000 A 
ATOM     20  C   UNL     1      -0.185   9.289  22.535  0.00  0.00    +0.000 A 
ATOM     21  C   UNL     1      -0.893  10.094  23.425  0.00  0.00    +0.000 A 
ATOM     22  C   UNL     1      -1.447  11.282  22.946  0.00  0.00    +0.000 A 
ATOM     23  N   UNL     1      -1.310  11.713  21.673  0.00  0.00    +0.000 NA
ATOM     24  C   UNL     1      -0.611  10.894  20.823  0.00  0.00    +0.000 A 
BRANCH  24  25
ATOM     25  C   UNL     1      -0.561  11.359  19.385  0.00  0.00    +0.000 C 
ATOM     26  O   UNL     1       0.500  11.560  18.815  0.00  0.00    +0.000 OA
ATOM     27  N   UNL     1      -1.797  11.517  18.779  0.00  0.00    +0.000 N 
ATOM     28  H   UNL     1      -2.620  11.412  19.370  0.00  0.00    +0.000 HD
BRANCH  27  29
ATOM     29  C   UNL     1      -1.897  11.915  17.391  0.00  0.00    +0.000 C 
BRANCH  29  30
ATOM     30  C   UNL     1      -2.136  10.684  16.538  0.00  0.00    +0.000 C 
ATOM     31  C   UNL     1      -3.303   9.776  17.020  0.00  0.00    +0.000 C 
ATOM     32  C   UNL     1      -3.619   9.507  15.536  0.00  0.00    +0.000 C 
ATOM     33  C   UNL     1      -2.945  10.859  15.222  0.00  0.00    +0.000 C 
ENDBRANCH  29  30
ENDBRANCH  27  29
ENDBRANCH  24  25
ENDBRANCH   3  19
TORSDOF 7
ENDMDL
MODEL 9
REMARK VINA RESULT:      -8.3      2.937      8.388
REMARK  Name = 
REMARK  9 active torsions:
REMARK  status: ('A' for Active; 'I' for Inactive)
REMARK    1  A    between atoms: C_1  and  N_2
REMARK    2  A    between atoms: N_2  and  C_3
REMARK    3  A    between atoms: N_2  and  C_4
REMARK    4  A    between atoms: C_4  and  C_5
REMARK    5  A    between atoms: C_8  and  C_9
REMARK    6  A    between atoms: N_11  and  C_12
REMARK    7  A    between atoms: C_17  and  C_18
REMARK    8  A    between atoms: N_20  and  C_21
REMARK    9  A    between atoms: C_21  and  C_22
REMARK                            x       y       z     vdW  Elec       q    Type
REMARK                         _______ _______ _______ _____ _____    ______ ____
ROOT
ATOM      1  C   UNL     1       1.969   6.371  19.631  0.00  0.00    +0.000 C 
ATOM      2  O   UNL     1       1.717   5.869  20.723  0.00  0.00    +0.000 OA
ATOM      3  N   UNL     1       2.393   5.656  18.514  0.00  0.00    +0.000 N 
ATOM      4  H   UNL     1       2.928   6.181  17.816  0.00  0.00    +0.000 HD
ENDROOT
BRANCH   1   8
ATOM      5  C   UNL     1       1.514  10.594  18.894  0.00  0.00    +0.000 A 
ATOM      6  C   UNL     1       2.210   9.749  18.008  0.00  0.00    +0.000 A 
ATOM      7  C   UNL     1       2.408   8.402  18.300  0.00  0.00    +0.000 A 
ATOM      8  C   UNL     1       1.869   7.855  19.469  0.00  0.00    +0.000 A 
ATOM      9  C   UNL     1       1.168   8.680  20.403  0.00  0.00    +0.000 A 
ATOM     10  C   UNL     1       0.561   8.177  21.582  0.00  0.00    +0.000 A 
ATOM     11  C   UNL     1      -0.092   9.009  22.497  0.00  0.00    +0.000 A 
ATOM     12  C   UNL     1      -0.105  10.374  22.292  0.00  0.00    +0.000 A 
ATOM     13  C   UNL     1       0.466  10.898  21.134  0.00  0.00    +0.000 A 
ATOM     14  C   UNL     1       1.052  10.074  20.142  0.00  0.00    +0.000 A 
BRANCH   5  15
ATOM     15  C   UNL     1       1.189  12.008  18.406  0.00  0.00    +0.000 C 
BRANCH  15  17
ATOM     16  C   UNL     1       3.097  13.532  18.251  0.00  0.00    +0.000 C 
ATOM     17  N   UNL     1       1.988  13.053  19.088  0.00  0.00    +0.000 NA
ATOM     18  C   UNL     1       1.143  14.193  19.453  0.00  0.00    +0.000 C 
ENDBRANCH  15  17
ENDBRANCH   5  15
ENDBRANCH   1   8
BRANCH   3  19
ATOM     19  C   UNL     1       2.630   4.255  18.550  0.00  0.00    +0.000 A 
ATOM     20  C   UNL     1       1.578   3.344  18.418  0.00  0.00    +0.000 A 
ATOM     21  C   UNL     1       1.809   1.976  18.541  0.00  0.00    +0.000 A 
ATOM     22  C   UNL     1       3.114   1.543  18.777  0.00  0.00    +0.000 A 
ATOM     23  N   UNL     1       4.175   2.373  18.863  0.00  0.00    +0.000 NA
ATOM     24  C   UNL     1       3.912   3.714  18.741  0.00  0.00    +0.000 A 
BRANCH  24  25
ATOM     25  C   UNL     1       5.106   4.621  18.940  0.00  0.00    +0.000 C 
ATOM     26  O   UNL     1       5.066   5.571  19.705  0.00  0.00    +0.000 OA
ATOM     27  N   UNL     1       6.230   4.276  18.206  0.00  0.00    +0.000 N 
ATOM     28  H   UNL     1       6.128   3.522  17.529  0.00  0.00    +0.000 HD
BRANCH  27  29
ATOM     29  C   UNL     1       7.458   5.032  18.332  0.00  0.00    +0.000 C 
BRANCH  29  30
ATOM     30  C   UNL     1       7.143   6.511  18.232  0.00  0.00    +0.000 C 
ATOM     31  C   UNL     1       8.285   7.453  18.710  0.00  0.00    +0.000 C 
ATOM     32  C   UNL     1       7.871   8.418  17.583  0.00  0.00    +0.000 C 
ATOM     33  C   UNL     1       7.293   7.194  16.844  0.00  0.00    +0.000 C 
ENDBRANCH  29  30
ENDBRANCH  27  29
ENDBRANCH  24  25
ENDBRANCH   3  19
TORSDOF 7
ENDMDL
