MODEL 1
REMARK VINA RESULT:      -7.8      0.000      0.000
REMARK  Name = 
REMARK  7 active torsions:
REMARK  status: ('A' for Active; 'I' for Inactive)
REMARK    1  A    between atoms: C_1  and  C_2
REMARK    2  A    between atoms: C_9  and  C_10
REMARK    3  A    between atoms: C_13  and  N_14
REMARK    4  A    between atoms: N_17  and  C_18
REMARK    5  A    between atoms: C_18  and  C_19
REMARK    6  A    between atoms: C_19  and  C_20
REMARK    7  A    between atoms: C_19  and  C_21
REMARK                            x       y       z     vdW  Elec       q    Type
REMARK                         _______ _______ _______ _____ _____    ______ ____
ROOT
ATOM      1  C   UNL     1       2.884   7.328  18.366  0.00  0.00    +0.000 A 
ATOM      2  C   UNL     1       2.445   7.207  19.691  0.00  0.00    +0.000 A 
ATOM      3  C   UNL     1       1.490   8.074  20.232  0.00  0.00    +0.000 A 
ATOM      4  C   UNL     1       0.974   9.134  19.485  0.00  0.00    +0.000 A 
ATOM      5  C   UNL     1       1.386   9.264  18.161  0.00  0.00    +0.000 A 
ATOM      6  C   UNL     1       2.278   8.335  17.602  0.00  0.00    +0.000 A 
ENDROOT
BRANCH   1  15
ATOM      7  C   UNL     1       1.364   4.086  18.618  0.00  0.00    +0.000 C 
ATOM      8  C   UNL     1       2.743   3.975  18.073  0.00  0.00    +0.000 A 
ATOM      9  N   UNL     1       3.197   2.737  17.821  0.00  0.00    +0.000 NA
ATOM     10  N   UNL     1       4.418   2.941  17.310  0.00  0.00    +0.000 N 
ATOM     11  C   UNL     1       4.775   4.251  17.229  0.00  0.00    +0.000 A 
ATOM     12  N   UNL     1       5.945   4.687  16.730  0.00  0.00    +0.000 NA
ATOM     13  C   UNL     1       6.058   6.025  16.765  0.00  0.00    +0.000 A 
ATOM     14  C   UNL     1       5.103   6.894  17.272  0.00  0.00    +0.000 A 
ATOM     15  C   UNL     1       3.888   6.402  17.805  0.00  0.00    +0.000 A 
ATOM     16  C   UNL     1       3.718   4.990  17.757  0.00  0.00    +0.000 A 
ATOM     17  H   UNL     1       4.974   2.147  17.023  0.00  0.00    +0.000 HD
ENDBRANCH   1  15
BRANCH   4  18
ATOM     18  N   UNL     1       0.049  10.073  19.994  0.00  0.00    +0.000 N 
ATOM     19  C   UNL     1       0.355  11.154  20.785  0.00  0.00    +0.000 C 
ATOM     20  O   UNL     1       1.470  11.473  21.183  0.00  0.00    +0.000 OA
ATOM     21  N   UNL     1      -0.748  11.909  21.116  0.00  0.00    +0.000 N 
ATOM     22  H   UNL     1      -0.910   9.960  19.731  0.00  0.00    +0.000 HD
ATOM     23  H   UNL     1      -1.650  11.464  21.081  0.00  0.00    +0.000 HD
BRANCH  21  24
ATOM     24  C   UNL     1      -0.539  12.995  22.058  0.00  0.00    +0.000 C 
BRANCH  24  25
ATOM     25  C   UNL     1      -1.413  12.945  23.311  0.00  0.00    +0.000 C 
ATOM     26  C   UNL     1      -1.661  14.336  23.884  0.00  0.00    +0.000 C 
ATOM     27  C   UNL     1      -2.723  12.204  23.054  0.00  0.00    +0.000 C 
ENDBRANCH  24  25
ENDBRANCH  21  24
ENDBRANCH   4  18
TORSDOF 4
ENDMDL
MODEL 2
REMARK VINA RESULT:      -7.7      0.287      1.248
REMARK  Name = 
REMARK  7 active torsions:
REMARK  status: ('A' for Active; 'I' for Inactive)
REMARK    1  A    between atoms: C_1  and  C_2
REMARK    2  A    between atoms: C_9  and  C_10
REMARK    3  A    between atoms: C_13  and  N_14
REMARK    4  A    between atoms: N_17  and  C_18
REMARK    5  A    between atoms: C_18  and  C_19
REMARK    6  A    between atoms: C_19  and  C_20
REMARK    7  A    between atoms: C_19  and  C_21
REMARK                            x       y       z     vdW  Elec       q    Type
REMARK                         _______ _______ _______ _____ _____    ______ ____
ROOT
ATOM      1  C   UNL     1       2.824   7.284  18.447  0.00  0.00    +0.000 A 
ATOM      2  C   UNL     1       2.285   8.368  17.743  0.00  0.00    +0.000 A 
ATOM      3  C   UNL     1       1.375   9.250  18.333  0.00  0.00    +0.000 A 
ATOM      4  C   UNL     1       0.923   9.052  19.639  0.00  0.00    +0.000 A 
ATOM      5  C   UNL     1       1.457   7.989  20.362  0.00  0.00    +0.000 A 
ATOM      6  C   UNL     1       2.436   7.163  19.789  0.00  0.00    +0.000 A 
ENDROOT
BRANCH   1  15
ATOM      7  C   UNL     1       1.375   4.028  18.870  0.00  0.00    +0.000 C 
ATOM      8  C   UNL     1       2.704   3.926  18.212  0.00  0.00    +0.000 A 
ATOM      9  N   UNL     1       3.152   2.690  17.938  0.00  0.00    +0.000 NA
ATOM     10  N   UNL     1       4.322   2.901  17.323  0.00  0.00    +0.000 N 
ATOM     11  C   UNL     1       4.653   4.215  17.194  0.00  0.00    +0.000 A 
ATOM     12  N   UNL     1       5.770   4.658  16.592  0.00  0.00    +0.000 NA
ATOM     13  C   UNL     1       5.867   5.998  16.599  0.00  0.00    +0.000 A 
ATOM     14  C   UNL     1       4.947   6.862  17.174  0.00  0.00    +0.000 A 
ATOM     15  C   UNL     1       3.789   6.363  17.815  0.00  0.00    +0.000 A 
ATOM     16  C   UNL     1       3.635   4.948  17.800  0.00  0.00    +0.000 A 
ATOM     17  H   UNL     1       4.863   2.110  17.000  0.00  0.00    +0.000 HD
ENDBRANCH   1  15
BRANCH   4  18
ATOM     18  N   UNL     1      -0.036   9.878  20.269  0.00  0.00    +0.000 N 
ATOM     19  C   UNL     1       0.237  11.000  21.014  0.00  0.00    +0.000 C 
ATOM     20  O   UNL     1       1.347  11.459  21.260  0.00  0.00    +0.000 OA
ATOM     21  N   UNL     1      -0.898  11.619  21.490  0.00  0.00    +0.000 N 
ATOM     22  H   UNL     1      -1.000   9.644  20.136  0.00  0.00    +0.000 HD
ATOM     23  H   UNL     1      -1.734  11.066  21.575  0.00  0.00    +0.000 HD
BRANCH  21  24
ATOM     24  C   UNL     1      -0.701  12.736  22.397  0.00  0.00    +0.000 C 
BRANCH  24  25
ATOM     25  C   UNL     1      -1.984  13.351  22.956  0.00  0.00    +0.000 C 
ATOM     26  C   UNL     1      -2.988  12.283  23.376  0.00  0.00    +0.000 C 
ATOM     27  C   UNL     1      -1.691  14.324  24.098  0.00  0.00    +0.000 C 
ENDBRANCH  24  25
ENDBRANCH  21  24
ENDBRANCH   4  18
TORSDOF 4
ENDMDL
MODEL 3
REMARK VINA RESULT:      -7.7      2.546      3.644
REMARK  Name = 
REMARK  7 active torsions:
REMARK  status: ('A' for Active; 'I' for Inactive)
REMARK    1  A    between atoms: C_1  and  C_2
REMARK    2  A    between atoms: C_9  and  C_10
REMARK    3  A    between atoms: C_13  and  N_14
REMARK    4  A    between atoms: N_17  and  C_18
REMARK    5  A    between atoms: C_18  and  C_19
REMARK    6  A    between atoms: C_19  and  C_20
REMARK    7  A    between atoms: C_19  and  C_21
REMARK                            x       y       z     vdW  Elec       q    Type
REMARK                         _______ _______ _______ _____ _____    ______ ____
ROOT
ATOM      1  C   UNL     1       2.222   6.767  19.461  0.00  0.00    +0.000 A 
ATOM      2  C   UNL     1       1.725   7.724  20.355  0.00  0.00    +0.000 A 
ATOM      3  C   UNL     1       1.410   9.023  19.943  0.00  0.00    +0.000 A 
ATOM      4  C   UNL     1       1.631   9.435  18.628  0.00  0.00    +0.000 A 
ATOM      5  C   UNL     1       2.110   8.496  17.719  0.00  0.00    +0.000 A 
ATOM      6  C   UNL     1       2.339   7.172  18.123  0.00  0.00    +0.000 A 
ENDROOT
BRANCH   1  15
ATOM      7  C   UNL     1       5.486   6.126  18.115  0.00  0.00    +0.000 C 
ATOM      8  C   UNL     1       4.968   4.925  18.821  0.00  0.00    +0.000 A 
ATOM      9  N   UNL     1       5.744   3.829  18.802  0.00  0.00    +0.000 NA
ATOM     10  N   UNL     1       5.062   2.941  19.536  0.00  0.00    +0.000 N 
ATOM     11  C   UNL     1       3.880   3.410  20.020  0.00  0.00    +0.000 A 
ATOM     12  N   UNL     1       3.043   2.698  20.795  0.00  0.00    +0.000 NA
ATOM     13  C   UNL     1       1.941   3.385  21.138  0.00  0.00    +0.000 A 
ATOM     14  C   UNL     1       1.651   4.681  20.736  0.00  0.00    +0.000 A 
ATOM     15  C   UNL     1       2.544   5.397  19.906  0.00  0.00    +0.000 A 
ATOM     16  C   UNL     1       3.740   4.713  19.548  0.00  0.00    +0.000 A 
ATOM     17  H   UNL     1       5.449   2.018  19.684  0.00  0.00    +0.000 HD
ENDBRANCH   1  15
BRANCH   4  18
ATOM     18  N   UNL     1       1.383  10.749  18.168  0.00  0.00    +0.000 N 
ATOM     19  C   UNL     1       0.622  11.694  18.811  0.00  0.00    +0.000 C 
ATOM     20  O   UNL     1       0.030  11.553  19.875  0.00  0.00    +0.000 OA
ATOM     21  N   UNL     1       0.572  12.895  18.138  0.00  0.00    +0.000 N 
ATOM     22  H   UNL     1       1.826  11.026  17.314  0.00  0.00    +0.000 HD
ATOM     23  H   UNL     1       0.758  12.886  17.149  0.00  0.00    +0.000 HD
BRANCH  21  24
ATOM     24  C   UNL     1      -0.317  13.910  18.675  0.00  0.00    +0.000 C 
BRANCH  24  25
ATOM     25  C   UNL     1       0.361  15.221  19.074  0.00  0.00    +0.000 C 
ATOM     26  C   UNL     1       1.847  15.218  18.727  0.00  0.00    +0.000 C 
ATOM     27  C   UNL     1      -0.352  16.430  18.472  0.00  0.00    +0.000 C 
ENDBRANCH  24  25
ENDBRANCH  21  24
ENDBRANCH   4  18
TORSDOF 4
ENDMDL
MODEL 4
REMARK VINA RESULT:      -7.6      1.297      1.462
REMARK  Name = 
REMARK  7 active torsions:
REMARK  status: ('A' for Active; 'I' for Inactive)
REMARK    1  A    between atoms: C_1  and  C_2
REMARK    2  A    between atoms: C_9  and  C_10
REMARK    3  A    between atoms: C_13  and  N_14
REMARK    4  A    between atoms: N_17  and  C_18
REMARK    5  A    between atoms: C_18  and  C_19
REMARK    6  A    between atoms: C_19  and  C_20
REMARK    7  A    between atoms: C_19  and  C_21
REMARK                            x       y       z     vdW  Elec       q    Type
REMARK                         _______ _______ _______ _____ _____    ______ ____
ROOT
ATOM      1  C   UNL     1       2.630   6.824  18.606  0.00  0.00    +0.000 A 
ATOM      2  C   UNL     1       2.371   6.791  19.982  0.00  0.00    +0.000 A 
ATOM      3  C   UNL     1       1.697   7.831  20.629  0.00  0.00    +0.000 A 
ATOM      4  C   UNL     1       1.301   8.975  19.936  0.00  0.00    +0.000 A 
ATOM      5  C   UNL     1       1.535   9.023  18.564  0.00  0.00    +0.000 A 
ATOM      6  C   UNL     1       2.133   7.936  17.909  0.00  0.00    +0.000 A 
ENDROOT
BRANCH   1  15
ATOM      7  C   UNL     1       0.967   3.859  19.754  0.00  0.00    +0.000 C 
ATOM      8  C   UNL     1       2.109   3.507  18.869  0.00  0.00    +0.000 A 
ATOM      9  N   UNL     1       2.356   2.199  18.689  0.00  0.00    +0.000 NA
ATOM     10  N   UNL     1       3.386   2.183  17.834  0.00  0.00    +0.000 N 
ATOM     11  C   UNL     1       3.819   3.417  17.461  0.00  0.00    +0.000 A 
ATOM     12  N   UNL     1       4.825   3.637  16.596  0.00  0.00    +0.000 NA
ATOM     13  C   UNL     1       5.063   4.944  16.398  0.00  0.00    +0.000 A 
ATOM     14  C   UNL     1       4.381   5.983  17.014  0.00  0.00    +0.000 A 
ATOM     15  C   UNL     1       3.337   5.718  17.932  0.00  0.00    +0.000 A 
ATOM     16  C   UNL     1       3.035   4.344  18.145  0.00  0.00    +0.000 A 
ATOM     17  H   UNL     1       3.760   1.295  17.526  0.00  0.00    +0.000 HD
ENDBRANCH   1  15
BRANCH   4  18
ATOM     18  N   UNL     1       0.664  10.080  20.547  0.00  0.00    +0.000 N 
ATOM     19  C   UNL     1      -0.176  10.023  21.632  0.00  0.00    +0.000 C 
ATOM     20  O   UNL     1      -0.516   9.013  22.238  0.00  0.00    +0.000 OA
ATOM     21  N   UNL     1      -0.633  11.261  22.025  0.00  0.00    +0.000 N 
ATOM     22  H   UNL     1       0.867  10.987  20.176  0.00  0.00    +0.000 HD
ATOM     23  H   UNL     1      -0.631  12.001  21.342  0.00  0.00    +0.000 HD
BRANCH  21  24
ATOM     24  C   UNL     1      -1.630  11.285  23.081  0.00  0.00    +0.000 C 
BRANCH  24  25
ATOM     25  C   UNL     1      -2.569  12.492  23.060  0.00  0.00    +0.000 C 
ATOM     26  C   UNL     1      -3.095  12.775  21.657  0.00  0.00    +0.000 C 
ATOM     27  C   UNL     1      -3.709  12.337  24.064  0.00  0.00    +0.000 C 
ENDBRANCH  24  25
ENDBRANCH  21  24
ENDBRANCH   4  18
TORSDOF 4
ENDMDL
MODEL 5
REMARK VINA RESULT:      -7.6      1.363      1.938
REMARK  Name = 
REMARK  7 active torsions:
REMARK  status: ('A' for Active; 'I' for Inactive)
REMARK    1  A    between atoms: C_1  and  C_2
REMARK    2  A    between atoms: C_9  and  C_10
REMARK    3  A    between atoms: C_13  and  N_14
REMARK    4  A    between atoms: N_17  and  C_18
REMARK    5  A    between atoms: C_18  and  C_19
REMARK    6  A    between atoms: C_19  and  C_20
REMARK    7  A    between atoms: C_19  and  C_21
REMARK                            x       y       z     vdW  Elec       q    Type
REMARK                         _______ _______ _______ _____ _____    ______ ____
ROOT
ATOM      1  C   UNL     1       2.606   6.897  18.628  0.00  0.00    +0.000 A 
ATOM      2  C   UNL     1       2.287   8.036  17.878  0.00  0.00    +0.000 A 
ATOM      3  C   UNL     1       1.657   9.144  18.454  0.00  0.00    +0.000 A 
ATOM      4  C   UNL     1       1.270   9.136  19.795  0.00  0.00    +0.000 A 
ATOM      5  C   UNL     1       1.590   8.019  20.562  0.00  0.00    +0.000 A 
ATOM      6  C   UNL     1       2.301   6.950  19.996  0.00  0.00    +0.000 A 
ENDROOT
BRANCH   1  15
ATOM      7  C   UNL     1       0.892   4.044  19.971  0.00  0.00    +0.000 C 
ATOM      8  C   UNL     1       2.012   3.614  19.092  0.00  0.00    +0.000 A 
ATOM      9  N   UNL     1       2.226   2.292  18.985  0.00  0.00    +0.000 NA
ATOM     10  N   UNL     1       3.241   2.201  18.117  0.00  0.00    +0.000 N 
ATOM     11  C   UNL     1       3.697   3.401  17.667  0.00  0.00    +0.000 A 
ATOM     12  N   UNL     1       4.694   3.547  16.776  0.00  0.00    +0.000 NA
ATOM     13  C   UNL     1       4.959   4.834  16.498  0.00  0.00    +0.000 A 
ATOM     14  C   UNL     1       4.311   5.922  17.063  0.00  0.00    +0.000 A 
ATOM     15  C   UNL     1       3.277   5.736  18.010  0.00  0.00    +0.000 A 
ATOM     16  C   UNL     1       2.946   4.384  18.307  0.00  0.00    +0.000 A 
ATOM     17  H   UNL     1       3.590   1.289  17.856  0.00  0.00    +0.000 HD
ENDBRANCH   1  15
BRANCH   4  18
ATOM     18  N   UNL     1       0.583  10.203  20.417  0.00  0.00    +0.000 N 
ATOM     19  C   UNL     1      -0.663  10.668  20.069  0.00  0.00    +0.000 C 
ATOM     20  O   UNL     1      -1.372  10.243  19.164  0.00  0.00    +0.000 OA
ATOM     21  N   UNL     1      -1.092  11.707  20.865  0.00  0.00    +0.000 N 
ATOM     22  H   UNL     1       1.028  10.639  21.201  0.00  0.00    +0.000 HD
ATOM     23  H   UNL     1      -0.394  12.248  21.347  0.00  0.00    +0.000 HD
BRANCH  21  24
ATOM     24  C   UNL     1      -2.339  12.348  20.487  0.00  0.00    +0.000 C 
BRANCH  24  25
ATOM     25  C   UNL     1      -3.178  12.873  21.652  0.00  0.00    +0.000 C 
ATOM     26  C   UNL     1      -4.672  12.733  21.381  0.00  0.00    +0.000 C 
ATOM     27  C   UNL     1      -2.785  12.213  22.972  0.00  0.00    +0.000 C 
ENDBRANCH  24  25
ENDBRANCH  21  24
ENDBRANCH   4  18
TORSDOF 4
ENDMDL
MODEL 6
REMARK VINA RESULT:      -7.5      1.381      1.599
REMARK  Name = 
REMARK  7 active torsions:
REMARK  status: ('A' for Active; 'I' for Inactive)
REMARK    1  A    between atoms: C_1  and  C_2
REMARK    2  A    between atoms: C_9  and  C_10
REMARK    3  A    between atoms: C_13  and  N_14
REMARK    4  A    between atoms: N_17  and  C_18
REMARK    5  A    between atoms: C_18  and  C_19
REMARK    6  A    between atoms: C_19  and  C_20
REMARK    7  A    between atoms: C_19  and  C_21
REMARK                            x       y       z     vdW  Elec       q    Type
REMARK                         _______ _______ _______ _____ _____    ______ ____
ROOT
ATOM      1  C   UNL     1       2.821   7.109  18.357  0.00  0.00    +0.000 A 
ATOM      2  C   UNL     1       2.435   7.033  19.701  0.00  0.00    +0.000 A 
ATOM      3  C   UNL     1       1.657   8.028  20.302  0.00  0.00    +0.000 A 
ATOM      4  C   UNL     1       1.276   9.169  19.595  0.00  0.00    +0.000 A 
ATOM      5  C   UNL     1       1.636   9.259  18.253  0.00  0.00    +0.000 A 
ATOM      6  C   UNL     1       2.342   8.214  17.638  0.00  0.00    +0.000 A 
ENDROOT
BRANCH   1  15
ATOM      7  C   UNL     1       1.299   4.043  19.437  0.00  0.00    +0.000 C 
ATOM      8  C   UNL     1       2.510   3.766  18.620  0.00  0.00    +0.000 A 
ATOM      9  N   UNL     1       2.854   2.477  18.465  0.00  0.00    +0.000 NA
ATOM     10  N   UNL     1       3.929   2.526  17.668  0.00  0.00    +0.000 N 
ATOM     11  C   UNL     1       4.298   3.785  17.309  0.00  0.00    +0.000 A 
ATOM     12  N   UNL     1       5.334   4.068  16.500  0.00  0.00    +0.000 NA
ATOM     13  C   UNL     1       5.494   5.387  16.304  0.00  0.00    +0.000 A 
ATOM     14  C   UNL     1       4.710   6.380  16.873  0.00  0.00    +0.000 A 
ATOM     15  C   UNL     1       3.638   6.050  17.733  0.00  0.00    +0.000 A 
ATOM     16  C   UNL     1       3.417   4.659  17.941  0.00  0.00    +0.000 A 
ATOM     17  H   UNL     1       4.379   1.664  17.389  0.00  0.00    +0.000 HD
ENDBRANCH   1  15
BRANCH   4  18
ATOM     18  N   UNL     1       0.536  10.231  20.163  0.00  0.00    +0.000 N 
ATOM     19  C   UNL     1      -0.720  10.631  19.777  0.00  0.00    +0.000 C 
ATOM     20  O   UNL     1      -1.396  10.143  18.878  0.00  0.00    +0.000 OA
ATOM     21  N   UNL     1      -1.204  11.682  20.524  0.00  0.00    +0.000 N 
ATOM     22  H   UNL     1       0.950  10.716  20.935  0.00  0.00    +0.000 HD
ATOM     23  H   UNL     1      -0.537  12.270  20.995  0.00  0.00    +0.000 HD
BRANCH  21  24
ATOM     24  C   UNL     1      -2.469  12.257  20.100  0.00  0.00    +0.000 C 
BRANCH  24  25
ATOM     25  C   UNL     1      -3.289  12.912  21.212  0.00  0.00    +0.000 C 
ATOM     26  C   UNL     1      -4.787  12.732  20.991  0.00  0.00    +0.000 C 
ATOM     27  C   UNL     1      -2.863  12.416  22.593  0.00  0.00    +0.000 C 
ENDBRANCH  24  25
ENDBRANCH  21  24
ENDBRANCH   4  18
TORSDOF 4
ENDMDL
MODEL 7
REMARK VINA RESULT:      -7.5      2.545      8.756
REMARK  Name = 
REMARK  7 active torsions:
REMARK  status: ('A' for Active; 'I' for Inactive)
REMARK    1  A    between atoms: C_1  and  C_2
REMARK    2  A    between atoms: C_9  and  C_10
REMARK    3  A    between atoms: C_13  and  N_14
REMARK    4  A    between atoms: N_17  and  C_18
REMARK    5  A    between atoms: C_18  and  C_19
REMARK    6  A    between atoms: C_19  and  C_20
REMARK    7  A    between atoms: C_19  and  C_21
REMARK                            x       y       z     vdW  Elec       q    Type
REMARK                         _______ _______ _______ _____ _____    ______ ____
ROOT
ATOM      1  C   UNL     1       0.865   9.879  19.581  0.00  0.00    +0.000 A 
ATOM      2  C   UNL     1       1.385   9.762  18.285  0.00  0.00    +0.000 A 
ATOM      3  C   UNL     1       2.127   8.645  17.888  0.00  0.00    +0.000 A 
ATOM      4  C   UNL     1       2.426   7.622  18.789  0.00  0.00    +0.000 A 
ATOM      5  C   UNL     1       1.907   7.710  20.077  0.00  0.00    +0.000 A 
ATOM      6  C   UNL     1       1.090   8.793  20.439  0.00  0.00    +0.000 A 
ENDROOT
BRANCH   1  15
ATOM      7  C   UNL     1      -2.094   9.730  17.555  0.00  0.00    +0.000 C 
ATOM      8  C   UNL     1      -2.100  10.954  18.399  0.00  0.00    +0.000 A 
ATOM      9  N   UNL     1      -3.136  11.794  18.241  0.00  0.00    +0.000 NA
ATOM     10  N   UNL     1      -2.905  12.761  19.138  0.00  0.00    +0.000 N 
ATOM     11  C   UNL     1      -1.765  12.588  19.860  0.00  0.00    +0.000 A 
ATOM     12  N   UNL     1      -1.347  13.424  20.827  0.00  0.00    +0.000 NA
ATOM     13  C   UNL     1      -0.190  13.035  21.386  0.00  0.00    +0.000 A 
ATOM     14  C   UNL     1       0.537  11.911  21.019  0.00  0.00    +0.000 A 
ATOM     15  C   UNL     1       0.078  11.060  19.986  0.00  0.00    +0.000 A 
ATOM     16  C   UNL     1      -1.162  11.423  19.390  0.00  0.00    +0.000 A 
ATOM     17  H   UNL     1      -3.562  13.524  19.225  0.00  0.00    +0.000 HD
ENDBRANCH   1  15
BRANCH   4  18
ATOM     18  N   UNL     1       3.216   6.496  18.460  0.00  0.00    +0.000 N 
ATOM     19  C   UNL     1       2.744   5.291  18.000  0.00  0.00    +0.000 C 
ATOM     20  O   UNL     1       1.570   4.993  17.810  0.00  0.00    +0.000 OA
ATOM     21  N   UNL     1       3.747   4.382  17.742  0.00  0.00    +0.000 N 
ATOM     22  H   UNL     1       4.209   6.595  18.540  0.00  0.00    +0.000 HD
ATOM     23  H   UNL     1       4.628   4.509  18.213  0.00  0.00    +0.000 HD
BRANCH  21  24
ATOM     24  C   UNL     1       3.334   3.038  17.379  0.00  0.00    +0.000 C 
BRANCH  24  25
ATOM     25  C   UNL     1       3.297   2.036  18.533  0.00  0.00    +0.000 C 
ATOM     26  C   UNL     1       4.298   2.396  19.627  0.00  0.00    +0.000 C 
ATOM     27  C   UNL     1       1.886   1.877  19.096  0.00  0.00    +0.000 C 
ENDBRANCH  24  25
ENDBRANCH  21  24
ENDBRANCH   4  18
TORSDOF 4
ENDMDL
MODEL 8
REMARK VINA RESULT:      -7.5      1.273      1.794
REMARK  Name = 
REMARK  7 active torsions:
REMARK  status: ('A' for Active; 'I' for Inactive)
REMARK    1  A    between atoms: C_1  and  C_2
REMARK    2  A    between atoms: C_9  and  C_10
REMARK    3  A    between atoms: C_13  and  N_14
REMARK    4  A    between atoms: N_17  and  C_18
REMARK    5  A    between atoms: C_18  and  C_19
REMARK    6  A    between atoms: C_19  and  C_20
REMARK    7  A    between atoms: C_19  and  C_21
REMARK                            x       y       z     vdW  Elec       q    Type
REMARK                         _______ _______ _______ _____ _____    ______ ____
ROOT
ATOM      1  C   UNL     1       2.530   6.998  18.689  0.00  0.00    +0.000 A 
ATOM      2  C   UNL     1       2.122   8.090  17.913  0.00  0.00    +0.000 A 
ATOM      3  C   UNL     1       1.473   9.193  18.477  0.00  0.00    +0.000 A 
ATOM      4  C   UNL     1       1.156   9.224  19.836  0.00  0.00    +0.000 A 
ATOM      5  C   UNL     1       1.565   8.156  20.629  0.00  0.00    +0.000 A 
ATOM      6  C   UNL     1       2.294   7.096  20.068  0.00  0.00    +0.000 A 
ENDROOT
BRANCH   1  15
ATOM      7  C   UNL     1       0.870   4.131  20.068  0.00  0.00    +0.000 C 
ATOM      8  C   UNL     1       1.995   3.711  19.192  0.00  0.00    +0.000 A 
ATOM      9  N   UNL     1       2.232   2.392  19.099  0.00  0.00    +0.000 NA
ATOM     10  N   UNL     1       3.247   2.309  18.230  0.00  0.00    +0.000 N 
ATOM     11  C   UNL     1       3.681   3.512  17.765  0.00  0.00    +0.000 A 
ATOM     12  N   UNL     1       4.673   3.664  16.871  0.00  0.00    +0.000 NA
ATOM     13  C   UNL     1       4.915   4.952  16.578  0.00  0.00    +0.000 A 
ATOM     14  C   UNL     1       4.249   6.036  17.132  0.00  0.00    +0.000 A 
ATOM     15  C   UNL     1       3.220   5.843  18.083  0.00  0.00    +0.000 A 
ATOM     16  C   UNL     1       2.913   4.489  18.396  0.00  0.00    +0.000 A 
ATOM     17  H   UNL     1       3.611   1.400  17.979  0.00  0.00    +0.000 HD
ENDBRANCH   1  15
BRANCH   4  18
ATOM     18  N   UNL     1       0.454  10.286  20.451  0.00  0.00    +0.000 N 
ATOM     19  C   UNL     1      -0.287  10.197  21.605  0.00  0.00    +0.000 C 
ATOM     20  O   UNL     1      -0.468   9.189  22.278  0.00  0.00    +0.000 OA
ATOM     21  N   UNL     1      -0.844  11.399  21.982  0.00  0.00    +0.000 N 
ATOM     22  H   UNL     1       0.528  11.190  20.028  0.00  0.00    +0.000 HD
ATOM     23  H   UNL     1      -0.975  12.100  21.271  0.00  0.00    +0.000 HD
BRANCH  21  24
ATOM     24  C   UNL     1      -1.752  11.372  23.115  0.00  0.00    +0.000 C 
BRANCH  24  25
ATOM     25  C   UNL     1      -2.758  12.522  23.168  0.00  0.00    +0.000 C 
ATOM     26  C   UNL     1      -3.364  12.807  21.797  0.00  0.00    +0.000 C 
ATOM     27  C   UNL     1      -3.840  12.276  24.218  0.00  0.00    +0.000 C 
ENDBRANCH  24  25
ENDBRANCH  21  24
ENDBRANCH   4  18
TORSDOF 4
ENDMDL
MODEL 9
REMARK VINA RESULT:      -7.5      2.305      3.566
REMARK  Name = 
REMARK  7 active torsions:
REMARK  status: ('A' for Active; 'I' for Inactive)
REMARK    1  A    between atoms: C_1  and  C_2
REMARK    2  A    between atoms: C_9  and  C_10
REMARK    3  A    between atoms: C_13  and  N_14
REMARK    4  A    between atoms: N_17  and  C_18
REMARK    5  A    between atoms: C_18  and  C_19
REMARK    6  A    between atoms: C_19  and  C_20
REMARK    7  A    between atoms: C_19  and  C_21
REMARK                            x       y       z     vdW  Elec       q    Type
REMARK                         _______ _______ _______ _____ _____    ______ ____
ROOT
ATOM      1  C   UNL     1       2.169   6.601  19.432  0.00  0.00    +0.000 A 
ATOM      2  C   UNL     1       2.428   6.991  18.112  0.00  0.00    +0.000 A 
ATOM      3  C   UNL     1       2.254   8.311  17.686  0.00  0.00    +0.000 A 
ATOM      4  C   UNL     1       1.760   9.288  18.552  0.00  0.00    +0.000 A 
ATOM      5  C   UNL     1       1.509   8.926  19.873  0.00  0.00    +0.000 A 
ATOM      6  C   UNL     1       1.771   7.619  20.311  0.00  0.00    +0.000 A 
ENDROOT
BRANCH   1  15
ATOM      7  C   UNL     1       5.548   5.824  18.504  0.00  0.00    +0.000 C 
ATOM      8  C   UNL     1       4.882   4.634  19.097  0.00  0.00    +0.000 A 
ATOM      9  N   UNL     1       5.599   3.499  19.144  0.00  0.00    +0.000 NA
ATOM     10  N   UNL     1       4.783   2.629  19.752  0.00  0.00    +0.000 N 
ATOM     11  C   UNL     1       3.572   3.147  20.092  0.00  0.00    +0.000 A 
ATOM     12  N   UNL     1       2.607   2.461  20.728  0.00  0.00    +0.000 NA
ATOM     13  C   UNL     1       1.504   3.196  20.946  0.00  0.00    +0.000 A 
ATOM     14  C   UNL     1       1.333   4.515  20.553  0.00  0.00    +0.000 A 
ATOM     15  C   UNL     1       2.362   5.205  19.870  0.00  0.00    +0.000 A 
ATOM     16  C   UNL     1       3.560   4.468  19.649  0.00  0.00    +0.000 A 
ATOM     17  H   UNL     1       5.102   1.684  19.919  0.00  0.00    +0.000 HD
ENDBRANCH   1  15
BRANCH   4  18
ATOM     18  N   UNL     1       1.512  10.625  18.164  0.00  0.00    +0.000 N 
ATOM     19  C   UNL     1       0.490  11.418  18.626  0.00  0.00    +0.000 C 
ATOM     20  O   UNL     1      -0.373  11.097  19.435  0.00  0.00    +0.000 OA
ATOM     21  N   UNL     1       0.507  12.686  18.088  0.00  0.00    +0.000 N 
ATOM     22  H   UNL     1       2.156  11.041  17.521  0.00  0.00    +0.000 HD
ATOM     23  H   UNL     1       0.981  12.817  17.209  0.00  0.00    +0.000 HD
BRANCH  21  24
ATOM     24  C   UNL     1      -0.612  13.551  18.416  0.00  0.00    +0.000 C 
BRANCH  24  25
ATOM     25  C   UNL     1      -0.298  14.669  19.410  0.00  0.00    +0.000 C 
ATOM     26  C   UNL     1      -0.144  16.018  18.714  0.00  0.00    +0.000 C 
ATOM     27  C   UNL     1      -1.333  14.734  20.532  0.00  0.00    +0.000 C 
ENDBRANCH  24  25
ENDBRANCH  21  24
ENDBRANCH   4  18
TORSDOF 4
ENDMDL
