MODEL 1
REMARK VINA RESULT:      -6.8      0.000      0.000
REMARK  Name = 
REMARK  9 active torsions:
REMARK  status: ('A' for Active; 'I' for Inactive)
REMARK    1  A    between atoms: C_1  and  O_2
REMARK    2  A    between atoms: O_2  and  C_3
REMARK    3  A    between atoms: C_6  and  C_7
REMARK    4  A    between atoms: C_10  and  C_11
REMARK    5  A    between atoms: C_11  and  O_13
REMARK    6  A    between atoms: C_14  and  C_15
REMARK    7  A    between atoms: N_22  and  S_23
REMARK    8  A    between atoms: S_23  and  C_26
REMARK    9  A    between atoms: C_29  and  C_30
REMARK                            x       y       z     vdW  Elec       q    Type
REMARK                         _______ _______ _______ _____ _____    ______ ____
ROOT
ATOM      1  C   UNL     1      -0.023  11.257  18.921  0.00  0.00    +0.000 C 
ATOM      2  C   UNL     1       0.739   9.929  19.117  0.00  0.00    +0.000 C 
ATOM      3  C   UNL     1       0.599   9.376  20.508  0.00  0.00    +0.000 C 
ATOM      4  C   UNL     1       0.245  10.157  21.551  0.00  0.00    +0.000 C 
ATOM      5  C   UNL     1       0.133  11.682  21.474  0.00  0.00    +0.000 C 
ATOM      6  N   UNL     1       0.334  12.168  20.061  0.00  0.00    +0.000 NA
ENDROOT
BRANCH   5   7
ATOM      7  C   UNL     1      -1.049  12.295  22.227  0.00  0.00    +0.000 A 
ATOM      8  C   UNL     1      -2.381  11.930  21.988  0.00  0.00    +0.000 A 
ATOM      9  C   UNL     1      -3.458  12.594  22.587  0.00  0.00    +0.000 A 
ATOM     10  C   UNL     1      -3.219  13.634  23.474  0.00  0.00    +0.000 A 
ATOM     11  C   UNL     1      -1.907  13.967  23.774  0.00  0.00    +0.000 A 
ATOM     12  F   UNL     1      -1.664  14.959  24.639  0.00  0.00    +0.000 F 
ATOM     13  C   UNL     1      -0.836  13.299  23.182  0.00  0.00    +0.000 A 
ENDBRANCH   5   7
BRANCH   1  17
ATOM     14  C   UNL     1      -4.143  10.989  17.645  0.00  0.00    +0.000 A 
ATOM     15  C   UNL     1      -3.759  12.064  18.441  0.00  0.00    +0.000 A 
ATOM     16  C   UNL     1      -2.464  12.119  18.971  0.00  0.00    +0.000 A 
ATOM     17  C   UNL     1      -1.527  11.112  18.680  0.00  0.00    +0.000 A 
ATOM     18  C   UNL     1      -1.996   9.954  18.037  0.00  0.00    +0.000 A 
ATOM     19  C   UNL     1      -3.293   9.893  17.522  0.00  0.00    +0.000 A 
BRANCH  14  21
ATOM     20  C   UNL     1      -6.222  12.077  17.587  0.00  0.00    +0.000 C 
ATOM     21  O   UNL     1      -5.344  11.114  17.003  0.00  0.00    +0.000 OA
ENDBRANCH  14  21
ENDBRANCH   1  17
BRANCH   6  22
ATOM     22  S   UNL     1       0.433  13.823  19.732  0.00  0.00    +0.000 S 
ATOM     23  O   UNL     1       0.923  13.989  18.380  0.00  0.00    +0.000 OA
ATOM     24  O   UNL     1      -0.796  14.474  20.137  0.00  0.00    +0.000 OA
BRANCH  22  25
ATOM     25  C   UNL     1       1.740  14.397  20.807  0.00  0.00    +0.000 A 
ATOM     26  C   UNL     1       2.986  13.765  20.761  0.00  0.00    +0.000 A 
ATOM     27  C   UNL     1       4.020  14.211  21.590  0.00  0.00    +0.000 A 
ATOM     28  C   UNL     1       3.816  15.289  22.463  0.00  0.00    +0.000 A 
ATOM     29  C   UNL     1       4.906  15.752  23.387  0.00  0.00    +0.000 C 
ATOM     30  C   UNL     1       2.577  15.939  22.468  0.00  0.00    +0.000 A 
ATOM     31  C   UNL     1       1.546  15.510  21.627  0.00  0.00    +0.000 A 
ENDBRANCH  22  25
ENDBRANCH   6  22
BRANCH   4  32
ATOM     32  C   UNL     1       0.135   9.574  22.911  0.00  0.00    +0.000 C 
ATOM     33  O   UNL     1       1.005   9.692  23.758  0.00  0.00    +0.000 OA
BRANCH  32  34
ATOM     34  O   UNL     1      -1.014   8.907  23.144  0.00  0.00    +0.000 OA
ATOM     35  H   UNL     1      -1.830   9.431  23.061  0.00  0.00    +0.000 HD
ENDBRANCH  32  34
ENDBRANCH   4  32
TORSDOF 7
ENDMDL
MODEL 2
REMARK VINA RESULT:      -6.7      0.853      1.181
REMARK  Name = 
REMARK  9 active torsions:
REMARK  status: ('A' for Active; 'I' for Inactive)
REMARK    1  A    between atoms: C_1  and  O_2
REMARK    2  A    between atoms: O_2  and  C_3
REMARK    3  A    between atoms: C_6  and  C_7
REMARK    4  A    between atoms: C_10  and  C_11
REMARK    5  A    between atoms: C_11  and  O_13
REMARK    6  A    between atoms: C_14  and  C_15
REMARK    7  A    between atoms: N_22  and  S_23
REMARK    8  A    between atoms: S_23  and  C_26
REMARK    9  A    between atoms: C_29  and  C_30
REMARK                            x       y       z     vdW  Elec       q    Type
REMARK                         _______ _______ _______ _____ _____    ______ ____
ROOT
ATOM      1  C   UNL     1       0.162  11.112  18.844  0.00  0.00    +0.000 C 
ATOM      2  C   UNL     1       0.854   9.766  19.150  0.00  0.00    +0.000 C 
ATOM      3  C   UNL     1       0.642   9.309  20.566  0.00  0.00    +0.000 C 
ATOM      4  C   UNL     1       0.291  10.169  21.545  0.00  0.00    +0.000 C 
ATOM      5  C   UNL     1       0.253  11.690  21.370  0.00  0.00    +0.000 C 
ATOM      6  N   UNL     1       0.524  12.076  19.938  0.00  0.00    +0.000 NA
ENDROOT
BRANCH   5   7
ATOM      7  C   UNL     1      -0.923  12.403  22.040  0.00  0.00    +0.000 A 
ATOM      8  C   UNL     1      -0.762  13.371  23.041  0.00  0.00    +0.000 A 
ATOM      9  C   UNL     1      -1.847  13.916  23.737  0.00  0.00    +0.000 A 
ATOM     10  C   UNL     1      -3.138  13.518  23.421  0.00  0.00    +0.000 A 
ATOM     11  C   UNL     1      -3.323  12.611  22.389  0.00  0.00    +0.000 A 
ATOM     12  F   UNL     1      -4.565  12.231  22.066  0.00  0.00    +0.000 F 
ATOM     13  C   UNL     1      -2.240  12.076  21.692  0.00  0.00    +0.000 A 
ENDBRANCH   5   7
BRANCH   1  17
ATOM     14  C   UNL     1      -3.922  10.974  17.442  0.00  0.00    +0.000 A 
ATOM     15  C   UNL     1      -3.522  12.052  18.227  0.00  0.00    +0.000 A 
ATOM     16  C   UNL     1      -2.243  12.069  18.797  0.00  0.00    +0.000 A 
ATOM     17  C   UNL     1      -1.337  11.019  18.558  0.00  0.00    +0.000 A 
ATOM     18  C   UNL     1      -1.831   9.867  17.926  0.00  0.00    +0.000 A 
ATOM     19  C   UNL     1      -3.112   9.844  17.371  0.00  0.00    +0.000 A 
BRANCH  14  21
ATOM     20  C   UNL     1      -5.886  12.237  17.200  0.00  0.00    +0.000 C 
ATOM     21  O   UNL     1      -5.097  11.132  16.760  0.00  0.00    +0.000 OA
ENDBRANCH  14  21
ENDBRANCH   1  17
BRANCH   6  22
ATOM     22  S   UNL     1       0.712  13.701  19.511  0.00  0.00    +0.000 S 
ATOM     23  O   UNL     1       1.353  13.759  18.215  0.00  0.00    +0.000 OA
ATOM     24  O   UNL     1      -0.532  14.408  19.731  0.00  0.00    +0.000 OA
BRANCH  22  25
ATOM     25  C   UNL     1       1.911  14.317  20.685  0.00  0.00    +0.000 A 
ATOM     26  C   UNL     1       3.178  13.730  20.736  0.00  0.00    +0.000 A 
ATOM     27  C   UNL     1       4.128  14.209  21.642  0.00  0.00    +0.000 A 
ATOM     28  C   UNL     1       3.819  15.276  22.498  0.00  0.00    +0.000 A 
ATOM     29  C   UNL     1       4.817  15.775  23.503  0.00  0.00    +0.000 C 
ATOM     30  C   UNL     1       2.561  15.882  22.406  0.00  0.00    +0.000 A 
ATOM     31  C   UNL     1       1.614  15.420  21.488  0.00  0.00    +0.000 A 
ENDBRANCH  22  25
ENDBRANCH   6  22
BRANCH   4  32
ATOM     32  C   UNL     1       0.108   9.680  22.934  0.00  0.00    +0.000 C 
ATOM     33  O   UNL     1       0.989   9.721  23.775  0.00  0.00    +0.000 OA
BRANCH  32  34
ATOM     34  O   UNL     1      -1.122   9.191  23.198  0.00  0.00    +0.000 OA
ATOM     35  H   UNL     1      -1.523   9.487  24.034  0.00  0.00    +0.000 HD
ENDBRANCH  32  34
ENDBRANCH   4  32
TORSDOF 7
ENDMDL
MODEL 3
REMARK VINA RESULT:      -6.6      0.738      1.037
REMARK  Name = 
REMARK  9 active torsions:
REMARK  status: ('A' for Active; 'I' for Inactive)
REMARK    1  A    between atoms: C_1  and  O_2
REMARK    2  A    between atoms: O_2  and  C_3
REMARK    3  A    between atoms: C_6  and  C_7
REMARK    4  A    between atoms: C_10  and  C_11
REMARK    5  A    between atoms: C_11  and  O_13
REMARK    6  A    between atoms: C_14  and  C_15
REMARK    7  A    between atoms: N_22  and  S_23
REMARK    8  A    between atoms: S_23  and  C_26
REMARK    9  A    between atoms: C_29  and  C_30
REMARK                            x       y       z     vdW  Elec       q    Type
REMARK                         _______ _______ _______ _____ _____    ______ ____
ROOT
ATOM      1  C   UNL     1      -0.378  11.337  18.831  0.00  0.00    +0.000 C 
ATOM      2  C   UNL     1       0.421  10.020  18.937  0.00  0.00    +0.000 C 
ATOM      3  C   UNL     1       0.412   9.442  20.324  0.00  0.00    +0.000 C 
ATOM      4  C   UNL     1       0.137  10.200  21.408  0.00  0.00    +0.000 C 
ATOM      5  C   UNL     1      -0.007  11.724  21.368  0.00  0.00    +0.000 C 
ATOM      6  N   UNL     1       0.063  12.236  19.951  0.00  0.00    +0.000 NA
ENDROOT
BRANCH   5   7
ATOM      7  C   UNL     1      -1.129  12.303  22.231  0.00  0.00    +0.000 A 
ATOM      8  C   UNL     1      -2.472  11.924  22.097  0.00  0.00    +0.000 A 
ATOM      9  C   UNL     1      -3.502  12.559  22.800  0.00  0.00    +0.000 A 
ATOM     10  C   UNL     1      -3.203  13.583  23.686  0.00  0.00    +0.000 A 
ATOM     11  C   UNL     1      -1.875  13.929  23.883  0.00  0.00    +0.000 A 
ATOM     12  F   UNL     1      -1.572  14.906  24.746  0.00  0.00    +0.000 F 
ATOM     13  C   UNL     1      -0.849  13.289  23.187  0.00  0.00    +0.000 A 
ENDBRANCH   5   7
BRANCH   1  17
ATOM     14  C   UNL     1      -4.591  11.037  17.919  0.00  0.00    +0.000 A 
ATOM     15  C   UNL     1      -4.157  12.078  18.736  0.00  0.00    +0.000 A 
ATOM     16  C   UNL     1      -2.820  12.136  19.149  0.00  0.00    +0.000 A 
ATOM     17  C   UNL     1      -1.894  11.168  18.719  0.00  0.00    +0.000 A 
ATOM     18  C   UNL     1      -2.397  10.036  18.058  0.00  0.00    +0.000 A 
ATOM     19  C   UNL     1      -3.734   9.971  17.659  0.00  0.00    +0.000 A 
BRANCH  14  21
ATOM     20  C   UNL     1      -6.359  12.501  17.426  0.00  0.00    +0.000 C 
ATOM     21  O   UNL     1      -5.847  11.168  17.396  0.00  0.00    +0.000 OA
ENDBRANCH  14  21
ENDBRANCH   1  17
BRANCH   6  22
ATOM     22  S   UNL     1       0.105  13.898  19.644  0.00  0.00    +0.000 S 
ATOM     23  O   UNL     1       0.017  14.097  18.214  0.00  0.00    +0.000 OA
ATOM     24  O   UNL     1      -0.823  14.578  20.524  0.00  0.00    +0.000 OA
BRANCH  22  25
ATOM     25  C   UNL     1       1.762  14.378  20.111  0.00  0.00    +0.000 A 
ATOM     26  C   UNL     1       2.040  14.646  21.454  0.00  0.00    +0.000 A 
ATOM     27  C   UNL     1       3.334  15.013  21.834  0.00  0.00    +0.000 A 
ATOM     28  C   UNL     1       4.355  15.111  20.877  0.00  0.00    +0.000 A 
ATOM     29  C   UNL     1       5.739  15.542  21.265  0.00  0.00    +0.000 C 
ATOM     30  C   UNL     1       4.072  14.798  19.543  0.00  0.00    +0.000 A 
ATOM     31  C   UNL     1       2.784  14.411  19.160  0.00  0.00    +0.000 A 
ENDBRANCH  22  25
ENDBRANCH   6  22
BRANCH   4  32
ATOM     32  C   UNL     1       0.156   9.594  22.762  0.00  0.00    +0.000 C 
ATOM     33  O   UNL     1       1.106   9.688  23.520  0.00  0.00    +0.000 OA
BRANCH  32  34
ATOM     34  O   UNL     1      -0.972   8.933  23.096  0.00  0.00    +0.000 OA
ATOM     35  H   UNL     1      -0.960   7.972  22.943  0.00  0.00    +0.000 HD
ENDBRANCH  32  34
ENDBRANCH   4  32
TORSDOF 7
ENDMDL
MODEL 4
REMARK VINA RESULT:      -6.5      0.553      1.254
REMARK  Name = 
REMARK  9 active torsions:
REMARK  status: ('A' for Active; 'I' for Inactive)
REMARK    1  A    between atoms: C_1  and  O_2
REMARK    2  A    between atoms: O_2  and  C_3
REMARK    3  A    between atoms: C_6  and  C_7
REMARK    4  A    between atoms: C_10  and  C_11
REMARK    5  A    between atoms: C_11  and  O_13
REMARK    6  A    between atoms: C_14  and  C_15
REMARK    7  A    between atoms: N_22  and  S_23
REMARK    8  A    between atoms: S_23  and  C_26
REMARK    9  A    between atoms: C_29  and  C_30
REMARK                            x       y       z     vdW  Elec       q    Type
REMARK                         _______ _______ _______ _____ _____    ______ ____
ROOT
ATOM      1  C   UNL     1       0.411  11.141  18.661  0.00  0.00    +0.000 C 
ATOM      2  C   UNL     1       1.180   9.841  18.979  0.00  0.00    +0.000 C 
ATOM      3  C   UNL     1       0.873   9.302  20.348  0.00  0.00    +0.000 C 
ATOM      4  C   UNL     1       0.361  10.084  21.322  0.00  0.00    +0.000 C 
ATOM      5  C   UNL     1       0.213  11.604  21.205  0.00  0.00    +0.000 C 
ATOM      6  N   UNL     1       0.586  12.077  19.823  0.00  0.00    +0.000 NA
ENDROOT
BRANCH   5   7
ATOM      7  C   UNL     1      -1.076  12.188  21.784  0.00  0.00    +0.000 A 
ATOM      8  C   UNL     1      -2.343  11.936  21.239  0.00  0.00    +0.000 A 
ATOM      9  C   UNL     1      -3.497  12.583  21.697  0.00  0.00    +0.000 A 
ATOM     10  C   UNL     1      -3.409  13.489  22.745  0.00  0.00    +0.000 A 
ATOM     11  C   UNL     1      -2.176  13.702  23.341  0.00  0.00    +0.000 A 
ATOM     12  F   UNL     1      -2.082  14.562  24.362  0.00  0.00    +0.000 F 
ATOM     13  C   UNL     1      -1.030  13.050  22.888  0.00  0.00    +0.000 A 
ENDBRANCH   5   7
BRANCH   1  17
ATOM     14  C   UNL     1      -3.845  10.775  18.005  0.00  0.00    +0.000 A 
ATOM     15  C   UNL     1      -3.084   9.615  18.118  0.00  0.00    +0.000 A 
ATOM     16  C   UNL     1      -1.689   9.695  18.211  0.00  0.00    +0.000 A 
ATOM     17  C   UNL     1      -1.042  10.944  18.225  0.00  0.00    +0.000 A 
ATOM     18  C   UNL     1      -1.812  12.078  17.920  0.00  0.00    +0.000 A 
ATOM     19  C   UNL     1      -3.202  11.996  17.812  0.00  0.00    +0.000 A 
BRANCH  14  21
ATOM     20  C   UNL     1      -5.959  11.728  17.642  0.00  0.00    +0.000 C 
ATOM     21  O   UNL     1      -5.197  10.622  18.129  0.00  0.00    +0.000 OA
ENDBRANCH  14  21
ENDBRANCH   1  17
BRANCH   6  22
ATOM     22  S   UNL     1       0.677  13.731  19.482  0.00  0.00    +0.000 S 
ATOM     23  O   UNL     1       1.277  13.892  18.175  0.00  0.00    +0.000 OA
ATOM     24  O   UNL     1      -0.596  14.358  19.773  0.00  0.00    +0.000 OA
BRANCH  22  25
ATOM     25  C   UNL     1       1.876  14.346  20.656  0.00  0.00    +0.000 A 
ATOM     26  C   UNL     1       1.498  15.349  21.553  0.00  0.00    +0.000 A 
ATOM     27  C   UNL     1       2.423  15.831  22.483  0.00  0.00    +0.000 A 
ATOM     28  C   UNL     1       3.726  15.313  22.525  0.00  0.00    +0.000 A 
ATOM     29  C   UNL     1       4.740  15.850  23.492  0.00  0.00    +0.000 C 
ATOM     30  C   UNL     1       4.077  14.279  21.650  0.00  0.00    +0.000 A 
ATOM     31  C   UNL     1       3.150  13.779  20.731  0.00  0.00    +0.000 A 
ENDBRANCH  22  25
ENDBRANCH   6  22
BRANCH   4  32
ATOM     32  C   UNL     1       0.088   9.516  22.666  0.00  0.00    +0.000 C 
ATOM     33  O   UNL     1       0.772   9.765  23.644  0.00  0.00    +0.000 OA
BRANCH  32  34
ATOM     34  O   UNL     1      -0.988   8.704  22.723  0.00  0.00    +0.000 OA
ATOM     35  H   UNL     1      -1.647   8.826  22.017  0.00  0.00    +0.000 HD
ENDBRANCH  32  34
ENDBRANCH   4  32
TORSDOF 7
ENDMDL
MODEL 5
REMARK VINA RESULT:      -6.5      0.879      1.300
REMARK  Name = 
REMARK  9 active torsions:
REMARK  status: ('A' for Active; 'I' for Inactive)
REMARK    1  A    between atoms: C_1  and  O_2
REMARK    2  A    between atoms: O_2  and  C_3
REMARK    3  A    between atoms: C_6  and  C_7
REMARK    4  A    between atoms: C_10  and  C_11
REMARK    5  A    between atoms: C_11  and  O_13
REMARK    6  A    between atoms: C_14  and  C_15
REMARK    7  A    between atoms: N_22  and  S_23
REMARK    8  A    between atoms: S_23  and  C_26
REMARK    9  A    between atoms: C_29  and  C_30
REMARK                            x       y       z     vdW  Elec       q    Type
REMARK                         _______ _______ _______ _____ _____    ______ ____
ROOT
ATOM      1  C   UNL     1       0.595  11.255  18.884  0.00  0.00    +0.000 C 
ATOM      2  C   UNL     1       1.377   9.968  19.226  0.00  0.00    +0.000 C 
ATOM      3  C   UNL     1       0.989   9.386  20.556  0.00  0.00    +0.000 C 
ATOM      4  C   UNL     1       0.387  10.129  21.508  0.00  0.00    +0.000 C 
ATOM      5  C   UNL     1       0.204  11.646  21.417  0.00  0.00    +0.000 C 
ATOM      6  N   UNL     1       0.661  12.165  20.077  0.00  0.00    +0.000 NA
ENDROOT
BRANCH   5   7
ATOM      7  C   UNL     1      -1.139  12.181  21.916  0.00  0.00    +0.000 A 
ATOM      8  C   UNL     1      -2.354  11.924  21.266  0.00  0.00    +0.000 A 
ATOM      9  C   UNL     1      -3.554  12.529  21.656  0.00  0.00    +0.000 A 
ATOM     10  C   UNL     1      -3.569  13.395  22.740  0.00  0.00    +0.000 A 
ATOM     11  C   UNL     1      -2.390  13.611  23.438  0.00  0.00    +0.000 A 
ATOM     12  F   UNL     1      -2.395  14.433  24.494  0.00  0.00    +0.000 F 
ATOM     13  C   UNL     1      -1.197  13.001  23.051  0.00  0.00    +0.000 A 
ENDBRANCH   5   7
BRANCH   1  17
ATOM     14  C   UNL     1      -3.141  10.705  16.784  0.00  0.00    +0.000 A 
ATOM     15  C   UNL     1      -2.955  11.871  17.522  0.00  0.00    +0.000 A 
ATOM     16  C   UNL     1      -1.808  12.028  18.310  0.00  0.00    +0.000 A 
ATOM     17  C   UNL     1      -0.817  11.030  18.341  0.00  0.00    +0.000 A 
ATOM     18  C   UNL     1      -1.118   9.796  17.743  0.00  0.00    +0.000 A 
ATOM     19  C   UNL     1      -2.270   9.634  16.969  0.00  0.00    +0.000 A 
BRANCH  14  21
ATOM     20  C   UNL     1      -3.830  10.228  14.592  0.00  0.00    +0.000 C 
ATOM     21  O   UNL     1      -4.173  10.719  15.888  0.00  0.00    +0.000 OA
ENDBRANCH  14  21
ENDBRANCH   1  17
BRANCH   6  22
ATOM     22  S   UNL     1       0.729  13.829  19.783  0.00  0.00    +0.000 S 
ATOM     23  O   UNL     1       1.238  14.032  18.443  0.00  0.00    +0.000 OA
ATOM     24  O   UNL     1      -0.521  14.445  20.180  0.00  0.00    +0.000 OA
BRANCH  22  25
ATOM     25  C   UNL     1       2.006  14.409  20.891  0.00  0.00    +0.000 A 
ATOM     26  C   UNL     1       1.715  15.445  21.782  0.00  0.00    +0.000 A 
ATOM     27  C   UNL     1       2.701  15.901  22.661  0.00  0.00    +0.000 A 
ATOM     28  C   UNL     1       3.979  15.323  22.657  0.00  0.00    +0.000 A 
ATOM     29  C   UNL     1       5.059  15.830  23.568  0.00  0.00    +0.000 C 
ATOM     30  C   UNL     1       4.243  14.258  21.790  0.00  0.00    +0.000 A 
ATOM     31  C   UNL     1       3.254  13.784  20.922  0.00  0.00    +0.000 A 
ENDBRANCH  22  25
ENDBRANCH   6  22
BRANCH   4  32
ATOM     32  C   UNL     1       0.036   9.519  22.815  0.00  0.00    +0.000 C 
ATOM     33  O   UNL     1       0.610   9.798  23.854  0.00  0.00    +0.000 OA
BRANCH  32  34
ATOM     34  O   UNL     1      -0.981   8.634  22.765  0.00  0.00    +0.000 OA
ATOM     35  H   UNL     1      -1.075   8.146  21.928  0.00  0.00    +0.000 HD
ENDBRANCH  32  34
ENDBRANCH   4  32
TORSDOF 7
ENDMDL
MODEL 6
REMARK VINA RESULT:      -6.5      1.099      1.765
REMARK  Name = 
REMARK  9 active torsions:
REMARK  status: ('A' for Active; 'I' for Inactive)
REMARK    1  A    between atoms: C_1  and  O_2
REMARK    2  A    between atoms: O_2  and  C_3
REMARK    3  A    between atoms: C_6  and  C_7
REMARK    4  A    between atoms: C_10  and  C_11
REMARK    5  A    between atoms: C_11  and  O_13
REMARK    6  A    between atoms: C_14  and  C_15
REMARK    7  A    between atoms: N_22  and  S_23
REMARK    8  A    between atoms: S_23  and  C_26
REMARK    9  A    between atoms: C_29  and  C_30
REMARK                            x       y       z     vdW  Elec       q    Type
REMARK                         _______ _______ _______ _____ _____    ______ ____
ROOT
ATOM      1  C   UNL     1       0.486  11.037  18.653  0.00  0.00    +0.000 C 
ATOM      2  C   UNL     1       1.206   9.723  19.026  0.00  0.00    +0.000 C 
ATOM      3  C   UNL     1       0.861   9.242  20.408  0.00  0.00    +0.000 C 
ATOM      4  C   UNL     1       0.362  10.074  21.346  0.00  0.00    +0.000 C 
ATOM      5  C   UNL     1       0.269  11.593  21.176  0.00  0.00    +0.000 C 
ATOM      6  N   UNL     1       0.677  12.006  19.785  0.00  0.00    +0.000 NA
ENDROOT
BRANCH   5   7
ATOM      7  C   UNL     1      -1.008  12.241  21.715  0.00  0.00    +0.000 A 
ATOM      8  C   UNL     1      -1.027  13.070  22.845  0.00  0.00    +0.000 A 
ATOM      9  C   UNL     1      -2.219  13.546  23.404  0.00  0.00    +0.000 A 
ATOM     10  C   UNL     1      -3.433  13.220  22.817  0.00  0.00    +0.000 A 
ATOM     11  C   UNL     1      -3.432  12.457  21.660  0.00  0.00    +0.000 A 
ATOM     12  F   UNL     1      -4.597  12.148  21.077  0.00  0.00    +0.000 F 
ATOM     13  C   UNL     1      -2.243  11.990  21.101  0.00  0.00    +0.000 A 
ENDBRANCH   5   7
BRANCH   1  17
ATOM     14  C   UNL     1      -3.769  10.785  17.947  0.00  0.00    +0.000 A 
ATOM     15  C   UNL     1      -3.045   9.604  18.091  0.00  0.00    +0.000 A 
ATOM     16  C   UNL     1      -1.650   9.645  18.202  0.00  0.00    +0.000 A 
ATOM     17  C   UNL     1      -0.966  10.875  18.201  0.00  0.00    +0.000 A 
ATOM     18  C   UNL     1      -1.698  12.025  17.865  0.00  0.00    +0.000 A 
ATOM     19  C   UNL     1      -3.088  11.982  17.740  0.00  0.00    +0.000 A 
BRANCH  14  21
ATOM     20  C   UNL     1      -5.835  11.893  17.822  0.00  0.00    +0.000 C 
ATOM     21  O   UNL     1      -5.127  10.674  18.056  0.00  0.00    +0.000 OA
ENDBRANCH  14  21
ENDBRANCH   1  17
BRANCH   6  22
ATOM     22  S   UNL     1       0.831  13.643  19.389  0.00  0.00    +0.000 S 
ATOM     23  O   UNL     1       1.518  13.741  18.120  0.00  0.00    +0.000 OA
ATOM     24  O   UNL     1      -0.443  14.308  19.572  0.00  0.00    +0.000 OA
BRANCH  22  25
ATOM     25  C   UNL     1       1.965  14.276  20.617  0.00  0.00    +0.000 A 
ATOM     26  C   UNL     1       1.556  15.325  21.445  0.00  0.00    +0.000 A 
ATOM     27  C   UNL     1       2.430  15.822  22.416  0.00  0.00    +0.000 A 
ATOM     28  C   UNL     1       3.712  15.274  22.566  0.00  0.00    +0.000 A 
ATOM     29  C   UNL     1       4.674  15.825  23.578  0.00  0.00    +0.000 C 
ATOM     30  C   UNL     1       4.092  14.197  21.759  0.00  0.00    +0.000 A 
ATOM     31  C   UNL     1       3.215  13.681  20.800  0.00  0.00    +0.000 A 
ENDBRANCH  22  25
ENDBRANCH   6  22
BRANCH   4  32
ATOM     32  C   UNL     1       0.051   9.562  22.704  0.00  0.00    +0.000 C 
ATOM     33  O   UNL     1       0.701   9.858  23.692  0.00  0.00    +0.000 OA
BRANCH  32  34
ATOM     34  O   UNL     1      -1.021   8.744  22.762  0.00  0.00    +0.000 OA
ATOM     35  H   UNL     1      -0.887   7.906  23.239  0.00  0.00    +0.000 HD
ENDBRANCH  32  34
ENDBRANCH   4  32
TORSDOF 7
ENDMDL
MODEL 7
REMARK VINA RESULT:      -6.4      1.494      1.900
REMARK  Name = 
REMARK  9 active torsions:
REMARK  status: ('A' for Active; 'I' for Inactive)
REMARK    1  A    between atoms: C_1  and  O_2
REMARK    2  A    between atoms: O_2  and  C_3
REMARK    3  A    between atoms: C_6  and  C_7
REMARK    4  A    between atoms: C_10  and  C_11
REMARK    5  A    between atoms: C_11  and  O_13
REMARK    6  A    between atoms: C_14  and  C_15
REMARK    7  A    between atoms: N_22  and  S_23
REMARK    8  A    between atoms: S_23  and  C_26
REMARK    9  A    between atoms: C_29  and  C_30
REMARK                            x       y       z     vdW  Elec       q    Type
REMARK                         _______ _______ _______ _____ _____    ______ ____
ROOT
ATOM      1  C   UNL     1       0.488  11.384  18.922  0.00  0.00    +0.000 C 
ATOM      2  C   UNL     1       1.336  10.140  19.266  0.00  0.00    +0.000 C 
ATOM      3  C   UNL     1       0.938   9.506  20.569  0.00  0.00    +0.000 C 
ATOM      4  C   UNL     1       0.257  10.188  21.513  0.00  0.00    +0.000 C 
ATOM      5  C   UNL     1      -0.016  11.694  21.446  0.00  0.00    +0.000 C 
ATOM      6  N   UNL     1       0.454  12.270  20.135  0.00  0.00    +0.000 NA
ENDROOT
BRANCH   5   7
ATOM      7  C   UNL     1      -1.407  12.134  21.906  0.00  0.00    +0.000 A 
ATOM      8  C   UNL     1      -2.549  12.026  21.100  0.00  0.00    +0.000 A 
ATOM      9  C   UNL     1      -3.787  12.555  21.483  0.00  0.00    +0.000 A 
ATOM     10  C   UNL     1      -3.917  13.186  22.712  0.00  0.00    +0.000 A 
ATOM     11  C   UNL     1      -2.816  13.244  23.552  0.00  0.00    +0.000 A 
ATOM     12  F   UNL     1      -2.933  13.838  24.746  0.00  0.00    +0.000 F 
ATOM     13  C   UNL     1      -1.585  12.710  23.171  0.00  0.00    +0.000 A 
ENDBRANCH   5   7
BRANCH   1  17
ATOM     14  C   UNL     1      -3.129  10.650  16.675  0.00  0.00    +0.000 A 
ATOM     15  C   UNL     1      -3.040  11.813  17.436  0.00  0.00    +0.000 A 
ATOM     16  C   UNL     1      -1.934  12.024  18.269  0.00  0.00    +0.000 A 
ATOM     17  C   UNL     1      -0.887  11.086  18.322  0.00  0.00    +0.000 A 
ATOM     18  C   UNL     1      -1.093   9.847  17.696  0.00  0.00    +0.000 A 
ATOM     19  C   UNL     1      -2.203   9.630  16.877  0.00  0.00    +0.000 A 
BRANCH  14  21
ATOM     20  C   UNL     1      -3.702  10.198  14.444  0.00  0.00    +0.000 C 
ATOM     21  O   UNL     1      -4.127  10.618  15.741  0.00  0.00    +0.000 OA
ENDBRANCH  14  21
ENDBRANCH   1  17
BRANCH   6  22
ATOM     22  S   UNL     1       0.430  13.941  19.877  0.00  0.00    +0.000 S 
ATOM     23  O   UNL     1      -0.307  14.202  18.659  0.00  0.00    +0.000 OA
ATOM     24  O   UNL     1       0.056  14.616  21.103  0.00  0.00    +0.000 OA
BRANCH  22  25
ATOM     25  C   UNL     1       2.134  14.345  19.522  0.00  0.00    +0.000 A 
ATOM     26  C   UNL     1       3.064  14.350  20.565  0.00  0.00    +0.000 A 
ATOM     27  C   UNL     1       4.402  14.655  20.299  0.00  0.00    +0.000 A 
ATOM     28  C   UNL     1       4.817  14.952  18.993  0.00  0.00    +0.000 A 
ATOM     29  C   UNL     1       6.243  15.320  18.700  0.00  0.00    +0.000 C 
ATOM     30  C   UNL     1       3.883  14.902  17.952  0.00  0.00    +0.000 A 
ATOM     31  C   UNL     1       2.548  14.578  18.209  0.00  0.00    +0.000 A 
ENDBRANCH  22  25
ENDBRANCH   6  22
BRANCH   4  32
ATOM     32  C   UNL     1      -0.102   9.529  22.794  0.00  0.00    +0.000 C 
ATOM     33  O   UNL     1       0.367   9.864  23.868  0.00  0.00    +0.000 OA
BRANCH  32  34
ATOM     34  O   UNL     1      -1.000   8.529  22.676  0.00  0.00    +0.000 OA
ATOM     35  H   UNL     1      -1.323   8.355  21.775  0.00  0.00    +0.000 HD
ENDBRANCH  32  34
ENDBRANCH   4  32
TORSDOF 7
ENDMDL
MODEL 8
REMARK VINA RESULT:      -6.3      1.484      1.990
REMARK  Name = 
REMARK  9 active torsions:
REMARK  status: ('A' for Active; 'I' for Inactive)
REMARK    1  A    between atoms: C_1  and  O_2
REMARK    2  A    between atoms: O_2  and  C_3
REMARK    3  A    between atoms: C_6  and  C_7
REMARK    4  A    between atoms: C_10  and  C_11
REMARK    5  A    between atoms: C_11  and  O_13
REMARK    6  A    between atoms: C_14  and  C_15
REMARK    7  A    between atoms: N_22  and  S_23
REMARK    8  A    between atoms: S_23  and  C_26
REMARK    9  A    between atoms: C_29  and  C_30
REMARK                            x       y       z     vdW  Elec       q    Type
REMARK                         _______ _______ _______ _____ _____    ______ ____
ROOT
ATOM      1  C   UNL     1       0.571  11.138  18.902  0.00  0.00    +0.000 C 
ATOM      2  C   UNL     1       1.113   9.828  19.514  0.00  0.00    +0.000 C 
ATOM      3  C   UNL     1       0.573   9.561  20.891  0.00  0.00    +0.000 C 
ATOM      4  C   UNL     1       0.058  10.547  21.656  0.00  0.00    +0.000 C 
ATOM      5  C   UNL     1       0.133  12.033  21.296  0.00  0.00    +0.000 C 
ATOM      6  N   UNL     1       0.731  12.226  19.925  0.00  0.00    +0.000 NA
ENDROOT
BRANCH   5   7
ATOM      7  C   UNL     1      -1.125  12.850  21.595  0.00  0.00    +0.000 A 
ATOM      8  C   UNL     1      -1.172  13.852  22.575  0.00  0.00    +0.000 A 
ATOM      9  C   UNL     1      -2.362  14.496  22.929  0.00  0.00    +0.000 A 
ATOM     10  C   UNL     1      -3.544  14.168  22.279  0.00  0.00    +0.000 A 
ATOM     11  C   UNL     1      -3.506  13.227  21.262  0.00  0.00    +0.000 A 
ATOM     12  F   UNL     1      -4.637  12.912  20.618  0.00  0.00    +0.000 F 
ATOM     13  C   UNL     1      -2.317  12.592  20.906  0.00  0.00    +0.000 A 
ENDBRANCH   5   7
BRANCH   1  17
ATOM     14  C   UNL     1      -3.132  10.495  16.771  0.00  0.00    +0.000 A 
ATOM     15  C   UNL     1      -2.527  11.746  16.695  0.00  0.00    +0.000 A 
ATOM     16  C   UNL     1      -1.392  12.026  17.467  0.00  0.00    +0.000 A 
ATOM     17  C   UNL     1      -0.832  11.041  18.301  0.00  0.00    +0.000 A 
ATOM     18  C   UNL     1      -1.568   9.863  18.500  0.00  0.00    +0.000 A 
ATOM     19  C   UNL     1      -2.709   9.590  17.741  0.00  0.00    +0.000 A 
BRANCH  14  21
ATOM     20  C   UNL     1      -3.614  10.164  14.498  0.00  0.00    +0.000 C 
ATOM     21  O   UNL     1      -4.099  10.237  15.839  0.00  0.00    +0.000 OA
ENDBRANCH  14  21
ENDBRANCH   1  17
BRANCH   6  22
ATOM     22  S   UNL     1       1.087  13.779  19.359  0.00  0.00    +0.000 S 
ATOM     23  O   UNL     1       1.925  13.654  18.186  0.00  0.00    +0.000 OA
ATOM     24  O   UNL     1      -0.129  14.564  19.295  0.00  0.00    +0.000 OA
BRANCH  22  25
ATOM     25  C   UNL     1       2.125  14.474  20.638  0.00  0.00    +0.000 A 
ATOM     26  C   UNL     1       1.662  15.572  21.369  0.00  0.00    +0.000 A 
ATOM     27  C   UNL     1       2.460  16.118  22.378  0.00  0.00    +0.000 A 
ATOM     28  C   UNL     1       3.719  15.571  22.663  0.00  0.00    +0.000 A 
ATOM     29  C   UNL     1       4.603  16.173  23.718  0.00  0.00    +0.000 C 
ATOM     30  C   UNL     1       4.152  14.446  21.952  0.00  0.00    +0.000 A 
ATOM     31  C   UNL     1       3.349  13.883  20.955  0.00  0.00    +0.000 A 
ENDBRANCH  22  25
ENDBRANCH   6  22
BRANCH   4  32
ATOM     32  C   UNL     1      -0.449  10.243  23.018  0.00  0.00    +0.000 C 
ATOM     33  O   UNL     1      -1.593  10.478  23.369  0.00  0.00    +0.000 OA
BRANCH  32  34
ATOM     34  O   UNL     1       0.457   9.674  23.839  0.00  0.00    +0.000 OA
ATOM     35  H   UNL     1       0.112   9.348  24.688  0.00  0.00    +0.000 HD
ENDBRANCH  32  34
ENDBRANCH   4  32
TORSDOF 7
ENDMDL
MODEL 9
REMARK VINA RESULT:      -6.2      2.293      5.683
REMARK  Name = 
REMARK  9 active torsions:
REMARK  status: ('A' for Active; 'I' for Inactive)
REMARK    1  A    between atoms: C_1  and  O_2
REMARK    2  A    between atoms: O_2  and  C_3
REMARK    3  A    between atoms: C_6  and  C_7
REMARK    4  A    between atoms: C_10  and  C_11
REMARK    5  A    between atoms: C_11  and  O_13
REMARK    6  A    between atoms: C_14  and  C_15
REMARK    7  A    between atoms: N_22  and  S_23
REMARK    8  A    between atoms: S_23  and  C_26
REMARK    9  A    between atoms: C_29  and  C_30
REMARK                            x       y       z     vdW  Elec       q    Type
REMARK                         _______ _______ _______ _____ _____    ______ ____
ROOT
ATOM      1  C   UNL     1      -0.312  11.393  18.827  0.00  0.00    +0.000 C 
ATOM      2  C   UNL     1      -1.474  11.145  17.841  0.00  0.00    +0.000 C 
ATOM      3  C   UNL     1      -2.761  11.784  18.284  0.00  0.00    +0.000 C 
ATOM      4  C   UNL     1      -2.978  12.128  19.571  0.00  0.00    +0.000 C 
ATOM      5  C   UNL     1      -2.044  11.747  20.724  0.00  0.00    +0.000 C 
ATOM      6  N   UNL     1      -0.801  11.066  20.210  0.00  0.00    +0.000 NA
ENDROOT
BRANCH   5   7
ATOM      7  C   UNL     1      -1.821  12.832  21.779  0.00  0.00    +0.000 A 
ATOM      8  C   UNL     1      -0.780  13.768  21.706  0.00  0.00    +0.000 A 
ATOM      9  C   UNL     1      -0.508  14.667  22.743  0.00  0.00    +0.000 A 
ATOM     10  C   UNL     1      -1.303  14.668  23.880  0.00  0.00    +0.000 A 
ATOM     11  C   UNL     1      -2.379  13.796  23.944  0.00  0.00    +0.000 A 
ATOM     12  F   UNL     1      -3.161  13.798  25.030  0.00  0.00    +0.000 F 
ATOM     13  C   UNL     1      -2.652  12.906  22.905  0.00  0.00    +0.000 A 
ENDBRANCH   5   7
BRANCH   1  17
ATOM     14  C   UNL     1       1.579  15.268  19.106  0.00  0.00    +0.000 A 
ATOM     15  C   UNL     1       0.264  15.198  18.656  0.00  0.00    +0.000 A 
ATOM     16  C   UNL     1      -0.339  13.953  18.440  0.00  0.00    +0.000 A 
ATOM     17  C   UNL     1       0.360  12.762  18.705  0.00  0.00    +0.000 A 
ATOM     18  C   UNL     1       1.735  12.861  18.973  0.00  0.00    +0.000 A 
ATOM     19  C   UNL     1       2.340  14.104  19.174  0.00  0.00    +0.000 A 
BRANCH  14  21
ATOM     20  C   UNL     1       1.438  17.585  18.755  0.00  0.00    +0.000 C 
ATOM     21  O   UNL     1       2.019  16.505  19.488  0.00  0.00    +0.000 OA
ENDBRANCH  14  21
ENDBRANCH   1  17
BRANCH   6  22
ATOM     22  S   UNL     1       0.311  10.389  21.288  0.00  0.00    +0.000 S 
ATOM     23  O   UNL     1       1.339  11.372  21.557  0.00  0.00    +0.000 OA
ATOM     24  O   UNL     1      -0.396   9.767  22.389  0.00  0.00    +0.000 OA
BRANCH  22  25
ATOM     25  C   UNL     1       1.098   9.097  20.337  0.00  0.00    +0.000 A 
ATOM     26  C   UNL     1       1.453   9.348  19.009  0.00  0.00    +0.000 A 
ATOM     27  C   UNL     1       2.078   8.349  18.258  0.00  0.00    +0.000 A 
ATOM     28  C   UNL     1       2.354   7.098  18.829  0.00  0.00    +0.000 A 
ATOM     29  C   UNL     1       2.989   6.003  18.022  0.00  0.00    +0.000 C 
ATOM     30  C   UNL     1       2.033   6.875  20.172  0.00  0.00    +0.000 A 
ATOM     31  C   UNL     1       1.425   7.878  20.935  0.00  0.00    +0.000 A 
ENDBRANCH  22  25
ENDBRANCH   6  22
BRANCH   4  32
ATOM     32  C   UNL     1      -4.269  12.741  19.970  0.00  0.00    +0.000 C 
ATOM     33  O   UNL     1      -5.224  12.088  20.355  0.00  0.00    +0.000 OA
BRANCH  32  34
ATOM     34  O   UNL     1      -4.302  14.086  19.880  0.00  0.00    +0.000 OA
ATOM     35  H   UNL     1      -4.118  14.455  18.998  0.00  0.00    +0.000 HD
ENDBRANCH  32  34
ENDBRANCH   4  32
TORSDOF 7
ENDMDL
