MODEL 1
REMARK VINA RESULT:      -7.3      0.000      0.000
REMARK  Name = 
REMARK  6 active torsions:
REMARK  status: ('A' for Active; 'I' for Inactive)
REMARK    1  A    between atoms: C_4  and  C_5
REMARK    2  A    between atoms: C_7  and  N_8
REMARK    3  A    between atoms: C_10  and  O_11
REMARK    4  A    between atoms: C_12  and  O_13
REMARK    5  A    between atoms: C_17  and  O_18
REMARK    6  A    between atoms: C_20  and  N_21
REMARK                            x       y       z     vdW  Elec       q    Type
REMARK                         _______ _______ _______ _____ _____    ______ ____
ROOT
ATOM      1  C   UNL     1       1.450   8.930  18.885  0.00  0.00    +0.000 A 
ATOM      2  C   UNL     1       1.569   7.656  19.484  0.00  0.00    +0.000 A 
ATOM      3  C   UNL     1       2.505   6.691  19.075  0.00  0.00    +0.000 A 
ATOM      4  C   UNL     1       3.335   7.040  18.003  0.00  0.00    +0.000 A 
ATOM      5  C   UNL     1       3.275   8.294  17.400  0.00  0.00    +0.000 A 
ATOM      6  C   UNL     1       2.353   9.233  17.850  0.00  0.00    +0.000 A 
ENDROOT
BRANCH   1  10
ATOM      7  N   UNL     1      -0.142  12.039  22.080  0.00  0.00    +0.000 N 
ATOM      8  C   UNL     1      -0.364  11.343  20.908  0.00  0.00    +0.000 A 
ATOM      9  N   UNL     1       0.600  10.512  20.504  0.00  0.00    +0.000 NA
ATOM     10  C   UNL     1       0.388   9.855  19.344  0.00  0.00    +0.000 A 
ATOM     11  C   UNL     1      -0.787  10.015  18.647  0.00  0.00    +0.000 A 
ATOM     12  C   UNL     1      -1.728  10.904  19.121  0.00  0.00    +0.000 A 
ATOM     13  N   UNL     1      -1.504  11.590  20.249  0.00  0.00    +0.000 NA
ATOM     14  H   UNL     1       0.855  12.103  22.243  0.00  0.00    +0.000 HD
ATOM     15  H   UNL     1      -0.662  12.902  22.054  0.00  0.00    +0.000 HD
BRANCH  12  16
ATOM     16  N   UNL     1      -2.860  11.152  18.351  0.00  0.00    +0.000 N 
ATOM     17  C   UNL     1      -3.911  12.025  18.898  0.00  0.00    +0.000 C 
ATOM     18  C   UNL     1      -5.225  11.726  18.163  0.00  0.00    +0.000 C 
ATOM     19  O   UNL     1      -5.083  11.898  16.742  0.00  0.00    +0.000 OA
ATOM     20  C   UNL     1      -4.042  11.042  16.231  0.00  0.00    +0.000 C 
ATOM     21  C   UNL     1      -2.685  11.329  16.903  0.00  0.00    +0.000 C 
ENDBRANCH  12  16
ENDBRANCH   1  10
BRANCH   3  22
ATOM     22  N   UNL     1       2.651   5.494  19.730  0.00  0.00    +0.000 N 
ATOM     23  C   UNL     1       1.900   5.108  20.918  0.00  0.00    +0.000 C 
ATOM     24  C   UNL     1       2.033   3.578  20.945  0.00  0.00    +0.000 C 
ATOM     25  C   UNL     1       3.286   3.263  20.095  0.00  0.00    +0.000 C 
ATOM     26  C   UNL     1       3.819   4.626  19.614  0.00  0.00    +0.000 C 
BRANCH  24  27
ATOM     27  O   UNL     1       2.132   3.076  22.276  0.00  0.00    +0.000 OA
ATOM     28  H   UNL     1       2.201   3.829  22.886  0.00  0.00    +0.000 HD
ENDBRANCH  24  27
BRANCH  25  29
ATOM     29  O   UNL     1       2.908   2.467  18.961  0.00  0.00    +0.000 OA
ATOM     30  H   UNL     1       3.685   2.442  18.368  0.00  0.00    +0.000 HD
ENDBRANCH  25  29
ENDBRANCH   3  22
BRANCH   6  31
ATOM     31  O   UNL     1       2.361  10.472  17.264  0.00  0.00    +0.000 OA
ATOM     32  H   UNL     1       1.914  11.107  17.848  0.00  0.00    +0.000 HD
ENDBRANCH   6  31
TORSDOF 6
ENDMDL
MODEL 2
REMARK VINA RESULT:      -7.2      4.196      9.216
REMARK  Name = 
REMARK  6 active torsions:
REMARK  status: ('A' for Active; 'I' for Inactive)
REMARK    1  A    between atoms: C_4  and  C_5
REMARK    2  A    between atoms: C_7  and  N_8
REMARK    3  A    between atoms: C_10  and  O_11
REMARK    4  A    between atoms: C_12  and  O_13
REMARK    5  A    between atoms: C_17  and  O_18
REMARK    6  A    between atoms: C_20  and  N_21
REMARK                            x       y       z     vdW  Elec       q    Type
REMARK                         _______ _______ _______ _____ _____    ______ ____
ROOT
ATOM      1  C   UNL     1       4.202   5.132  18.747  0.00  0.00    +0.000 A 
ATOM      2  C   UNL     1       3.603   6.410  18.691  0.00  0.00    +0.000 A 
ATOM      3  C   UNL     1       2.410   6.738  19.359  0.00  0.00    +0.000 A 
ATOM      4  C   UNL     1       1.804   5.714  20.095  0.00  0.00    +0.000 A 
ATOM      5  C   UNL     1       2.372   4.447  20.203  0.00  0.00    +0.000 A 
ATOM      6  C   UNL     1       3.567   4.167  19.550  0.00  0.00    +0.000 A 
ENDROOT
BRANCH   1  10
ATOM      7  N   UNL     1       8.874   4.386  18.599  0.00  0.00    +0.000 N 
ATOM      8  C   UNL     1       7.685   4.521  17.910  0.00  0.00    +0.000 A 
ATOM      9  N   UNL     1       6.589   4.761  18.634  0.00  0.00    +0.000 NA
ATOM     10  C   UNL     1       5.425   4.865  17.957  0.00  0.00    +0.000 A 
ATOM     11  C   UNL     1       5.396   4.766  16.585  0.00  0.00    +0.000 A 
ATOM     12  C   UNL     1       6.569   4.501  15.910  0.00  0.00    +0.000 A 
ATOM     13  N   UNL     1       7.718   4.355  16.581  0.00  0.00    +0.000 NA
ATOM     14  H   UNL     1       8.675   4.111  19.552  0.00  0.00    +0.000 HD
ATOM     15  H   UNL     1       9.497   3.798  18.069  0.00  0.00    +0.000 HD
BRANCH  12  16
ATOM     16  N   UNL     1       6.514   4.282  14.537  0.00  0.00    +0.000 N 
ATOM     17  C   UNL     1       5.213   3.977  13.921  0.00  0.00    +0.000 C 
ATOM     18  C   UNL     1       5.461   3.267  12.582  0.00  0.00    +0.000 C 
ATOM     19  O   UNL     1       6.286   4.061  11.711  0.00  0.00    +0.000 OA
ATOM     20  C   UNL     1       7.548   4.355  12.340  0.00  0.00    +0.000 C 
ATOM     21  C   UNL     1       7.363   5.110  13.670  0.00  0.00    +0.000 C 
ENDBRANCH  12  16
ENDBRANCH   1  10
BRANCH   3  22
ATOM     22  N   UNL     1       1.897   8.010  19.351  0.00  0.00    +0.000 N 
ATOM     23  C   UNL     1       1.951   8.914  18.208  0.00  0.00    +0.000 C 
ATOM     24  C   UNL     1       0.848   9.939  18.509  0.00  0.00    +0.000 C 
ATOM     25  C   UNL     1       0.624   9.861  20.037  0.00  0.00    +0.000 C 
ATOM     26  C   UNL     1       1.608   8.792  20.550  0.00  0.00    +0.000 C 
BRANCH  24  27
ATOM     27  O   UNL     1       1.205  11.249  18.072  0.00  0.00    +0.000 OA
ATOM     28  H   UNL     1       0.464  11.848  18.255  0.00  0.00    +0.000 HD
ENDBRANCH  24  27
BRANCH  25  29
ATOM     29  O   UNL     1      -0.723   9.442  20.304  0.00  0.00    +0.000 OA
ATOM     30  H   UNL     1      -0.769   8.493  20.076  0.00  0.00    +0.000 HD
ENDBRANCH  25  29
ENDBRANCH   3  22
BRANCH   6  31
ATOM     31  O   UNL     1       4.119   2.924  19.724  0.00  0.00    +0.000 OA
ATOM     32  H   UNL     1       4.542   2.880  20.597  0.00  0.00    +0.000 HD
ENDBRANCH   6  31
TORSDOF 6
ENDMDL
MODEL 3
REMARK VINA RESULT:      -7.2      3.330      4.880
REMARK  Name = 
REMARK  6 active torsions:
REMARK  status: ('A' for Active; 'I' for Inactive)
REMARK    1  A    between atoms: C_4  and  C_5
REMARK    2  A    between atoms: C_7  and  N_8
REMARK    3  A    between atoms: C_10  and  O_11
REMARK    4  A    between atoms: C_12  and  O_13
REMARK    5  A    between atoms: C_17  and  O_18
REMARK    6  A    between atoms: C_20  and  N_21
REMARK                            x       y       z     vdW  Elec       q    Type
REMARK                         _______ _______ _______ _____ _____    ______ ____
ROOT
ATOM      1  C   UNL     1       0.975   9.471  19.518  0.00  0.00    +0.000 A 
ATOM      2  C   UNL     1       1.804   8.679  18.693  0.00  0.00    +0.000 A 
ATOM      3  C   UNL     1       2.337   7.440  19.090  0.00  0.00    +0.000 A 
ATOM      4  C   UNL     1       2.021   7.009  20.383  0.00  0.00    +0.000 A 
ATOM      5  C   UNL     1       1.184   7.740  21.222  0.00  0.00    +0.000 A 
ATOM      6  C   UNL     1       0.654   8.950  20.785  0.00  0.00    +0.000 A 
ENDROOT
BRANCH   1  10
ATOM      7  N   UNL     1      -2.532  12.245  17.965  0.00  0.00    +0.000 N 
ATOM      8  C   UNL     1      -1.193  12.108  18.274  0.00  0.00    +0.000 A 
ATOM      9  N   UNL     1      -0.790  10.912  18.709  0.00  0.00    +0.000 NA
ATOM     10  C   UNL     1       0.515  10.793  19.035  0.00  0.00    +0.000 A 
ATOM     11  C   UNL     1       1.380  11.851  18.881  0.00  0.00    +0.000 A 
ATOM     12  C   UNL     1       0.884  13.060  18.441  0.00  0.00    +0.000 A 
ATOM     13  N   UNL     1      -0.418  13.194  18.157  0.00  0.00    +0.000 NA
ATOM     14  H   UNL     1      -3.061  11.547  18.471  0.00  0.00    +0.000 HD
ATOM     15  H   UNL     1      -2.801  13.208  18.087  0.00  0.00    +0.000 HD
BRANCH  12  16
ATOM     16  N   UNL     1       1.737  14.158  18.403  0.00  0.00    +0.000 N 
ATOM     17  C   UNL     1       1.344  15.385  19.114  0.00  0.00    +0.000 C 
ATOM     18  C   UNL     1       2.114  16.568  18.510  0.00  0.00    +0.000 C 
ATOM     19  O   UNL     1       3.536  16.355  18.571  0.00  0.00    +0.000 OA
ATOM     20  C   UNL     1       3.895  15.143  17.878  0.00  0.00    +0.000 C 
ATOM     21  C   UNL     1       3.184  13.912  18.472  0.00  0.00    +0.000 C 
ENDBRANCH  12  16
ENDBRANCH   1  10
BRANCH   3  22
ATOM     22  N   UNL     1       3.072   6.657  18.236  0.00  0.00    +0.000 N 
ATOM     23  C   UNL     1       4.030   7.170  17.265  0.00  0.00    +0.000 C 
ATOM     24  C   UNL     1       4.913   5.953  16.954  0.00  0.00    +0.000 C 
ATOM     25  C   UNL     1       4.064   4.722  17.350  0.00  0.00    +0.000 C 
ATOM     26  C   UNL     1       2.729   5.284  17.872  0.00  0.00    +0.000 C 
BRANCH  24  27
ATOM     27  O   UNL     1       5.318   5.925  15.587  0.00  0.00    +0.000 OA
ATOM     28  H   UNL     1       4.743   5.308  15.107  0.00  0.00    +0.000 HD
ENDBRANCH  24  27
BRANCH  25  29
ATOM     29  O   UNL     1       4.726   4.000  18.400  0.00  0.00    +0.000 OA
ATOM     30  H   UNL     1       4.958   4.657  19.085  0.00  0.00    +0.000 HD
ENDBRANCH  25  29
ENDBRANCH   3  22
BRANCH   6  31
ATOM     31  O   UNL     1      -0.205   9.614  21.621  0.00  0.00    +0.000 OA
ATOM     32  H   UNL     1      -1.105   9.569  21.259  0.00  0.00    +0.000 HD
ENDBRANCH   6  31
TORSDOF 6
ENDMDL
MODEL 4
REMARK VINA RESULT:      -7.2      2.623      2.731
REMARK  Name = 
REMARK  6 active torsions:
REMARK  status: ('A' for Active; 'I' for Inactive)
REMARK    1  A    between atoms: C_4  and  C_5
REMARK    2  A    between atoms: C_7  and  N_8
REMARK    3  A    between atoms: C_10  and  O_11
REMARK    4  A    between atoms: C_12  and  O_13
REMARK    5  A    between atoms: C_17  and  O_18
REMARK    6  A    between atoms: C_20  and  N_21
REMARK                            x       y       z     vdW  Elec       q    Type
REMARK                         _______ _______ _______ _____ _____    ______ ____
ROOT
ATOM      1  C   UNL     1       1.682   8.487  19.448  0.00  0.00    +0.000 A 
ATOM      2  C   UNL     1       1.950   7.191  19.941  0.00  0.00    +0.000 A 
ATOM      3  C   UNL     1       2.637   6.209  19.207  0.00  0.00    +0.000 A 
ATOM      4  C   UNL     1       3.048   6.565  17.918  0.00  0.00    +0.000 A 
ATOM      5  C   UNL     1       2.833   7.839  17.400  0.00  0.00    +0.000 A 
ATOM      6  C   UNL     1       2.173   8.794  18.166  0.00  0.00    +0.000 A 
ENDROOT
BRANCH   1  10
ATOM      7  N   UNL     1      -0.740   9.393  23.413  0.00  0.00    +0.000 N 
ATOM      8  C   UNL     1      -0.283   9.840  22.189  0.00  0.00    +0.000 A 
ATOM      9  N   UNL     1       0.427   8.979  21.456  0.00  0.00    +0.000 NA
ATOM     10  C   UNL     1       0.894   9.432  20.272  0.00  0.00    +0.000 A 
ATOM     11  C   UNL     1       0.607  10.706  19.841  0.00  0.00    +0.000 A 
ATOM     12  C   UNL     1      -0.119  11.541  20.665  0.00  0.00    +0.000 A 
ATOM     13  N   UNL     1      -0.548  11.110  21.858  0.00  0.00    +0.000 NA
ATOM     14  H   UNL     1      -0.153   8.630  23.727  0.00  0.00    +0.000 HD
ATOM     15  H   UNL     1      -0.846  10.180  24.033  0.00  0.00    +0.000 HD
BRANCH  12  16
ATOM     16  N   UNL     1      -0.302  12.865  20.279  0.00  0.00    +0.000 N 
ATOM     17  C   UNL     1      -0.699  13.850  21.297  0.00  0.00    +0.000 C 
ATOM     18  C   UNL     1      -1.346  15.050  20.590  0.00  0.00    +0.000 C 
ATOM     19  O   UNL     1      -0.460  15.626  19.615  0.00  0.00    +0.000 OA
ATOM     20  C   UNL     1      -0.076  14.640  18.636  0.00  0.00    +0.000 C 
ATOM     21  C   UNL     1       0.620  13.430  19.285  0.00  0.00    +0.000 C 
ENDBRANCH  12  16
ENDBRANCH   1  10
BRANCH   3  22
ATOM     22  N   UNL     1       2.953   4.986  19.744  0.00  0.00    +0.000 N 
ATOM     23  C   UNL     1       2.322   4.419  20.930  0.00  0.00    +0.000 C 
ATOM     24  C   UNL     1       2.625   2.918  20.814  0.00  0.00    +0.000 C 
ATOM     25  C   UNL     1       3.851   2.820  19.876  0.00  0.00    +0.000 C 
ATOM     26  C   UNL     1       4.201   4.270  19.492  0.00  0.00    +0.000 C 
BRANCH  24  27
ATOM     27  O   UNL     1       2.859   2.322  22.088  0.00  0.00    +0.000 OA
ATOM     28  H   UNL     1       3.806   2.129  22.169  0.00  0.00    +0.000 HD
ENDBRANCH  24  27
BRANCH  25  29
ATOM     29  O   UNL     1       3.495   2.083  18.697  0.00  0.00    +0.000 OA
ATOM     30  H   UNL     1       3.632   1.139  18.907  0.00  0.00    +0.000 HD
ENDBRANCH  25  29
ENDBRANCH   3  22
BRANCH   6  31
ATOM     31  O   UNL     1       2.026  10.051  17.640  0.00  0.00    +0.000 OA
ATOM     32  H   UNL     1       2.837  10.297  17.165  0.00  0.00    +0.000 HD
ENDBRANCH   6  31
TORSDOF 6
ENDMDL
MODEL 5
REMARK VINA RESULT:      -7.2      2.494      8.249
REMARK  Name = 
REMARK  6 active torsions:
REMARK  status: ('A' for Active; 'I' for Inactive)
REMARK    1  A    between atoms: C_4  and  C_5
REMARK    2  A    between atoms: C_7  and  N_8
REMARK    3  A    between atoms: C_10  and  O_11
REMARK    4  A    between atoms: C_12  and  O_13
REMARK    5  A    between atoms: C_17  and  O_18
REMARK    6  A    between atoms: C_20  and  N_21
REMARK                            x       y       z     vdW  Elec       q    Type
REMARK                         _______ _______ _______ _____ _____    ______ ____
ROOT
ATOM      1  C   UNL     1       1.124   8.481  20.472  0.00  0.00    +0.000 A 
ATOM      2  C   UNL     1       0.201   8.931  19.503  0.00  0.00    +0.000 A 
ATOM      3  C   UNL     1      -0.616  10.061  19.675  0.00  0.00    +0.000 A 
ATOM      4  C   UNL     1      -0.492  10.743  20.891  0.00  0.00    +0.000 A 
ATOM      5  C   UNL     1       0.425  10.356  21.865  0.00  0.00    +0.000 A 
ATOM      6  C   UNL     1       1.236   9.247  21.647  0.00  0.00    +0.000 A 
ENDROOT
BRANCH   1  10
ATOM      7  N   UNL     1       1.961   3.935  21.491  0.00  0.00    +0.000 N 
ATOM      8  C   UNL     1       2.288   5.050  20.745  0.00  0.00    +0.000 A 
ATOM      9  N   UNL     1       1.587   6.162  20.977  0.00  0.00    +0.000 NA
ATOM     10  C   UNL     1       1.894   7.241  20.225  0.00  0.00    +0.000 A 
ATOM     11  C   UNL     1       2.911   7.190  19.300  0.00  0.00    +0.000 A 
ATOM     12  C   UNL     1       3.580   5.998  19.108  0.00  0.00    +0.000 A 
ATOM     13  N   UNL     1       3.249   4.915  19.821  0.00  0.00    +0.000 NA
ATOM     14  H   UNL     1       1.006   4.023  21.815  0.00  0.00    +0.000 HD
ATOM     15  H   UNL     1       2.197   3.107  20.967  0.00  0.00    +0.000 HD
BRANCH  12  16
ATOM     16  N   UNL     1       4.523   5.919  18.089  0.00  0.00    +0.000 N 
ATOM     17  C   UNL     1       4.501   6.935  17.024  0.00  0.00    +0.000 C 
ATOM     18  C   UNL     1       5.220   6.367  15.792  0.00  0.00    +0.000 C 
ATOM     19  O   UNL     1       6.564   5.962  16.108  0.00  0.00    +0.000 OA
ATOM     20  C   UNL     1       6.560   4.976  17.160  0.00  0.00    +0.000 C 
ATOM     21  C   UNL     1       5.888   5.508  18.440  0.00  0.00    +0.000 C 
ENDBRANCH  12  16
ENDBRANCH   1  10
BRANCH   3  22
ATOM     22  N   UNL     1      -1.445  10.520  18.682  0.00  0.00    +0.000 N 
ATOM     23  C   UNL     1      -1.411  10.056  17.300  0.00  0.00    +0.000 C 
ATOM     24  C   UNL     1      -2.789  10.456  16.754  0.00  0.00    +0.000 C 
ATOM     25  C   UNL     1      -3.285  11.585  17.686  0.00  0.00    +0.000 C 
ATOM     26  C   UNL     1      -2.171  11.786  18.730  0.00  0.00    +0.000 C 
BRANCH  24  27
ATOM     27  O   UNL     1      -2.722  10.860  15.388  0.00  0.00    +0.000 OA
ATOM     28  H   UNL     1      -2.013  10.361  14.952  0.00  0.00    +0.000 HD
ENDBRANCH  24  27
BRANCH  25  29
ATOM     29  O   UNL     1      -4.492  11.169  18.343  0.00  0.00    +0.000 OA
ATOM     30  H   UNL     1      -4.376  10.224  18.564  0.00  0.00    +0.000 HD
ENDBRANCH  25  29
ENDBRANCH   3  22
BRANCH   6  31
ATOM     31  O   UNL     1       2.160   8.929  22.608  0.00  0.00    +0.000 OA
ATOM     32  H   UNL     1       2.780   8.271  22.253  0.00  0.00    +0.000 HD
ENDBRANCH   6  31
TORSDOF 6
ENDMDL
MODEL 6
REMARK VINA RESULT:      -7.2      4.263      6.978
REMARK  Name = 
REMARK  6 active torsions:
REMARK  status: ('A' for Active; 'I' for Inactive)
REMARK    1  A    between atoms: C_4  and  C_5
REMARK    2  A    between atoms: C_7  and  N_8
REMARK    3  A    between atoms: C_10  and  O_11
REMARK    4  A    between atoms: C_12  and  O_13
REMARK    5  A    between atoms: C_17  and  O_18
REMARK    6  A    between atoms: C_20  and  N_21
REMARK                            x       y       z     vdW  Elec       q    Type
REMARK                         _______ _______ _______ _____ _____    ______ ____
ROOT
ATOM      1  C   UNL     1       5.370   5.037  18.083  0.00  0.00    +0.000 A 
ATOM      2  C   UNL     1       5.330   4.930  16.675  0.00  0.00    +0.000 A 
ATOM      3  C   UNL     1       6.471   4.734  15.879  0.00  0.00    +0.000 A 
ATOM      4  C   UNL     1       7.697   4.662  16.551  0.00  0.00    +0.000 A 
ATOM      5  C   UNL     1       7.784   4.733  17.939  0.00  0.00    +0.000 A 
ATOM      6  C   UNL     1       6.629   4.901  18.696  0.00  0.00    +0.000 A 
ENDROOT
BRANCH   1  10
ATOM      7  N   UNL     1       2.061   3.597  21.147  0.00  0.00    +0.000 N 
ATOM      8  C   UNL     1       2.528   4.584  20.301  0.00  0.00    +0.000 A 
ATOM      9  N   UNL     1       3.655   4.328  19.634  0.00  0.00    +0.000 NA
ATOM     10  C   UNL     1       4.120   5.308  18.829  0.00  0.00    +0.000 A 
ATOM     11  C   UNL     1       3.430   6.489  18.685  0.00  0.00    +0.000 A 
ATOM     12  C   UNL     1       2.280   6.684  19.422  0.00  0.00    +0.000 A 
ATOM     13  N   UNL     1       1.839   5.732  20.253  0.00  0.00    +0.000 NA
ATOM     14  H   UNL     1       2.834   3.002  21.418  0.00  0.00    +0.000 HD
ATOM     15  H   UNL     1       1.524   4.022  21.885  0.00  0.00    +0.000 HD
BRANCH  12  16
ATOM     16  N   UNL     1       1.654   7.925  19.365  0.00  0.00    +0.000 N 
ATOM     17  C   UNL     1       1.402   8.649  20.621  0.00  0.00    +0.000 C 
ATOM     18  C   UNL     1       0.275   9.664  20.383  0.00  0.00    +0.000 C 
ATOM     19  O   UNL     1       0.599  10.566  19.310  0.00  0.00    +0.000 OA
ATOM     20  C   UNL     1       0.852   9.834  18.094  0.00  0.00    +0.000 C 
ATOM     21  C   UNL     1       2.006   8.828  18.261  0.00  0.00    +0.000 C 
ENDBRANCH  12  16
ENDBRANCH   1  10
BRANCH   3  22
ATOM     22  N   UNL     1       6.390   4.552  14.522  0.00  0.00    +0.000 N 
ATOM     23  C   UNL     1       7.357   5.071  13.561  0.00  0.00    +0.000 C 
ATOM     24  C   UNL     1       7.125   4.204  12.315  0.00  0.00    +0.000 C 
ATOM     25  C   UNL     1       5.696   3.635  12.475  0.00  0.00    +0.000 C 
ATOM     26  C   UNL     1       5.167   4.198  13.807  0.00  0.00    +0.000 C 
BRANCH  24  27
ATOM     27  O   UNL     1       7.288   4.949  11.111  0.00  0.00    +0.000 OA
ATOM     28  H   UNL     1       7.996   5.600  11.244  0.00  0.00    +0.000 HD
ENDBRANCH  24  27
BRANCH  25  29
ATOM     29  O   UNL     1       5.755   2.202  12.548  0.00  0.00    +0.000 OA
ATOM     30  H   UNL     1       5.527   1.868  11.658  0.00  0.00    +0.000 HD
ENDBRANCH  25  29
ENDBRANCH   3  22
BRANCH   6  31
ATOM     31  O   UNL     1       6.752   4.914  20.061  0.00  0.00    +0.000 OA
ATOM     32  H   UNL     1       7.566   4.450  20.315  0.00  0.00    +0.000 HD
ENDBRANCH   6  31
TORSDOF 6
ENDMDL
MODEL 7
REMARK VINA RESULT:      -7.1      3.944      8.896
REMARK  Name = 
REMARK  6 active torsions:
REMARK  status: ('A' for Active; 'I' for Inactive)
REMARK    1  A    between atoms: C_4  and  C_5
REMARK    2  A    between atoms: C_7  and  N_8
REMARK    3  A    between atoms: C_10  and  O_11
REMARK    4  A    between atoms: C_12  and  O_13
REMARK    5  A    between atoms: C_17  and  O_18
REMARK    6  A    between atoms: C_20  and  N_21
REMARK                            x       y       z     vdW  Elec       q    Type
REMARK                         _______ _______ _______ _____ _____    ______ ____
ROOT
ATOM      1  C   UNL     1       3.682   5.377  19.465  0.00  0.00    +0.000 A 
ATOM      2  C   UNL     1       3.115   6.635  19.766  0.00  0.00    +0.000 A 
ATOM      3  C   UNL     1       1.852   6.794  20.360  0.00  0.00    +0.000 A 
ATOM      4  C   UNL     1       1.139   5.622  20.639  0.00  0.00    +0.000 A 
ATOM      5  C   UNL     1       1.669   4.359  20.388  0.00  0.00    +0.000 A 
ATOM      6  C   UNL     1       2.934   4.240  19.823  0.00  0.00    +0.000 A 
ENDROOT
BRANCH   1  10
ATOM      7  N   UNL     1       8.408   5.530  19.688  0.00  0.00    +0.000 N 
ATOM      8  C   UNL     1       7.273   5.404  18.911  0.00  0.00    +0.000 A 
ATOM      9  N   UNL     1       6.097   5.463  19.541  0.00  0.00    +0.000 NA
ATOM     10  C   UNL     1       4.993   5.313  18.779  0.00  0.00    +0.000 A 
ATOM     11  C   UNL     1       5.092   5.149  17.417  0.00  0.00    +0.000 A 
ATOM     12  C   UNL     1       6.344   5.083  16.842  0.00  0.00    +0.000 A 
ATOM     13  N   UNL     1       7.443   5.188  17.600  0.00  0.00    +0.000 NA
ATOM     14  H   UNL     1       8.188   5.265  20.640  0.00  0.00    +0.000 HD
ATOM     15  H   UNL     1       9.170   5.048  19.238  0.00  0.00    +0.000 HD
BRANCH  12  16
ATOM     16  N   UNL     1       6.441   4.796  15.484  0.00  0.00    +0.000 N 
ATOM     17  C   UNL     1       7.719   5.044  14.799  0.00  0.00    +0.000 C 
ATOM     18  C   UNL     1       7.448   5.178  13.293  0.00  0.00    +0.000 C 
ATOM     19  O   UNL     1       6.787   4.011  12.773  0.00  0.00    +0.000 OA
ATOM     20  C   UNL     1       5.545   3.783  13.467  0.00  0.00    +0.000 C 
ATOM     21  C   UNL     1       5.761   3.596  14.980  0.00  0.00    +0.000 C 
ENDBRANCH  12  16
ENDBRANCH   1  10
BRANCH   3  22
ATOM     22  N   UNL     1       1.364   8.027  20.714  0.00  0.00    +0.000 N 
ATOM     23  C   UNL     1       0.991   9.070  19.766  0.00  0.00    +0.000 C 
ATOM     24  C   UNL     1       0.068   9.985  20.584  0.00  0.00    +0.000 C 
ATOM     25  C   UNL     1       0.418   9.701  22.063  0.00  0.00    +0.000 C 
ATOM     26  C   UNL     1       1.528   8.633  22.033  0.00  0.00    +0.000 C 
BRANCH  24  27
ATOM     27  O   UNL     1       0.234  11.357  20.234  0.00  0.00    +0.000 OA
ATOM     28  H   UNL     1       1.166  11.598  20.360  0.00  0.00    +0.000 HD
ENDBRANCH  24  27
BRANCH  25  29
ATOM     29  O   UNL     1      -0.736   9.176  22.737  0.00  0.00    +0.000 OA
ATOM     30  H   UNL     1      -0.472   9.030  23.667  0.00  0.00    +0.000 HD
ENDBRANCH  25  29
ENDBRANCH   3  22
BRANCH   6  31
ATOM     31  O   UNL     1       3.439   2.979  19.638  0.00  0.00    +0.000 OA
ATOM     32  H   UNL     1       3.653   2.853  18.699  0.00  0.00    +0.000 HD
ENDBRANCH   6  31
TORSDOF 6
ENDMDL
MODEL 8
REMARK VINA RESULT:      -7.1      4.287      6.979
REMARK  Name = 
REMARK  6 active torsions:
REMARK  status: ('A' for Active; 'I' for Inactive)
REMARK    1  A    between atoms: C_4  and  C_5
REMARK    2  A    between atoms: C_7  and  N_8
REMARK    3  A    between atoms: C_10  and  O_11
REMARK    4  A    between atoms: C_12  and  O_13
REMARK    5  A    between atoms: C_17  and  O_18
REMARK    6  A    between atoms: C_20  and  N_21
REMARK                            x       y       z     vdW  Elec       q    Type
REMARK                         _______ _______ _______ _____ _____    ______ ____
ROOT
ATOM      1  C   UNL     1       5.325   5.156  17.967  0.00  0.00    +0.000 A 
ATOM      2  C   UNL     1       5.309   5.042  16.560  0.00  0.00    +0.000 A 
ATOM      3  C   UNL     1       6.448   4.743  15.793  0.00  0.00    +0.000 A 
ATOM      4  C   UNL     1       7.648   4.574  16.494  0.00  0.00    +0.000 A 
ATOM      5  C   UNL     1       7.707   4.648  17.883  0.00  0.00    +0.000 A 
ATOM      6  C   UNL     1       6.553   4.919  18.611  0.00  0.00    +0.000 A 
ENDROOT
BRANCH   1  10
ATOM      7  N   UNL     1       1.762   3.984  20.855  0.00  0.00    +0.000 N 
ATOM      8  C   UNL     1       2.367   4.943  20.067  0.00  0.00    +0.000 A 
ATOM      9  N   UNL     1       3.484   4.587  19.428  0.00  0.00    +0.000 NA
ATOM     10  C   UNL     1       4.085   5.538  18.682  0.00  0.00    +0.000 A 
ATOM     11  C   UNL     1       3.537   6.794  18.564  0.00  0.00    +0.000 A 
ATOM     12  C   UNL     1       2.389   7.090  19.268  0.00  0.00    +0.000 A 
ATOM     13  N   UNL     1       1.813   6.163  20.044  0.00  0.00    +0.000 NA
ATOM     14  H   UNL     1       2.452   3.296  21.127  0.00  0.00    +0.000 HD
ATOM     15  H   UNL     1       1.248   4.439  21.592  0.00  0.00    +0.000 HD
BRANCH  12  16
ATOM     16  N   UNL     1       1.907   8.395  19.242  0.00  0.00    +0.000 N 
ATOM     17  C   UNL     1       1.660   9.031  17.939  0.00  0.00    +0.000 C 
ATOM     18  C   UNL     1       1.667  10.555  18.130  0.00  0.00    +0.000 C 
ATOM     19  O   UNL     1       0.698  10.966  19.110  0.00  0.00    +0.000 OA
ATOM     20  C   UNL     1       0.953  10.321  20.374  0.00  0.00    +0.000 C 
ATOM     21  C   UNL     1       0.914   8.786  20.252  0.00  0.00    +0.000 C 
ENDBRANCH  12  16
ENDBRANCH   1  10
BRANCH   3  22
ATOM     22  N   UNL     1       6.384   4.559  14.435  0.00  0.00    +0.000 N 
ATOM     23  C   UNL     1       7.335   5.117  13.481  0.00  0.00    +0.000 C 
ATOM     24  C   UNL     1       7.148   4.241  12.233  0.00  0.00    +0.000 C 
ATOM     25  C   UNL     1       5.742   3.613  12.383  0.00  0.00    +0.000 C 
ATOM     26  C   UNL     1       5.181   4.154  13.712  0.00  0.00    +0.000 C 
BRANCH  24  27
ATOM     27  O   UNL     1       7.288   4.993  11.030  0.00  0.00    +0.000 OA
ATOM     28  H   UNL     1       8.127   5.479  11.066  0.00  0.00    +0.000 HD
ENDBRANCH  24  27
BRANCH  25  29
ATOM     29  O   UNL     1       5.860   2.184  12.457  0.00  0.00    +0.000 OA
ATOM     30  H   UNL     1       5.665   1.843  11.563  0.00  0.00    +0.000 HD
ENDBRANCH  25  29
ENDBRANCH   3  22
BRANCH   6  31
ATOM     31  O   UNL     1       6.645   4.933  19.978  0.00  0.00    +0.000 OA
ATOM     32  H   UNL     1       5.854   5.359  20.349  0.00  0.00    +0.000 HD
ENDBRANCH   6  31
TORSDOF 6
ENDMDL
MODEL 9
REMARK VINA RESULT:      -7.1      3.366      4.967
REMARK  Name = 
REMARK  6 active torsions:
REMARK  status: ('A' for Active; 'I' for Inactive)
REMARK    1  A    between atoms: C_4  and  C_5
REMARK    2  A    between atoms: C_7  and  N_8
REMARK    3  A    between atoms: C_10  and  O_11
REMARK    4  A    between atoms: C_12  and  O_13
REMARK    5  A    between atoms: C_17  and  O_18
REMARK    6  A    between atoms: C_20  and  N_21
REMARK                            x       y       z     vdW  Elec       q    Type
REMARK                         _______ _______ _______ _____ _____    ______ ____
ROOT
ATOM      1  C   UNL     1       0.989   9.464  19.472  0.00  0.00    +0.000 A 
ATOM      2  C   UNL     1       1.868   8.737  18.639  0.00  0.00    +0.000 A 
ATOM      3  C   UNL     1       2.434   7.502  18.998  0.00  0.00    +0.000 A 
ATOM      4  C   UNL     1       2.099   7.005  20.263  0.00  0.00    +0.000 A 
ATOM      5  C   UNL     1       1.213   7.670  21.107  0.00  0.00    +0.000 A 
ATOM      6  C   UNL     1       0.651   8.878  20.706  0.00  0.00    +0.000 A 
ENDROOT
BRANCH   1  10
ATOM      7  N   UNL     1      -2.501  12.127  17.701  0.00  0.00    +0.000 N 
ATOM      8  C   UNL     1      -1.202  12.050  18.162  0.00  0.00    +0.000 A 
ATOM      9  N   UNL     1      -0.768  10.851  18.557  0.00  0.00    +0.000 NA
ATOM     10  C   UNL     1       0.494  10.788  19.032  0.00  0.00    +0.000 A 
ATOM     11  C   UNL     1       1.294  11.908  19.061  0.00  0.00    +0.000 A 
ATOM     12  C   UNL     1       0.766  13.115  18.651  0.00  0.00    +0.000 A 
ATOM     13  N   UNL     1      -0.499  13.189  18.219  0.00  0.00    +0.000 NA
ATOM     14  H   UNL     1      -3.035  11.358  18.087  0.00  0.00    +0.000 HD
ATOM     15  H   UNL     1      -2.852  13.058  17.858  0.00  0.00    +0.000 HD
BRANCH  12  16
ATOM     16  N   UNL     1       1.537  14.264  18.797  0.00  0.00    +0.000 N 
ATOM     17  C   UNL     1       2.838  14.335  18.112  0.00  0.00    +0.000 C 
ATOM     18  C   UNL     1       3.705  15.385  18.819  0.00  0.00    +0.000 C 
ATOM     19  O   UNL     1       3.055  16.668  18.852  0.00  0.00    +0.000 OA
ATOM     20  C   UNL     1       1.780  16.571  19.517  0.00  0.00    +0.000 C 
ATOM     21  C   UNL     1       0.848  15.560  18.822  0.00  0.00    +0.000 C 
ENDBRANCH  12  16
ENDBRANCH   1  10
BRANCH   3  22
ATOM     22  N   UNL     1       3.220   6.782  18.134  0.00  0.00    +0.000 N 
ATOM     23  C   UNL     1       4.091   7.373  17.125  0.00  0.00    +0.000 C 
ATOM     24  C   UNL     1       5.085   6.247  16.806  0.00  0.00    +0.000 C 
ATOM     25  C   UNL     1       4.380   4.943  17.248  0.00  0.00    +0.000 C 
ATOM     26  C   UNL     1       3.010   5.375  17.804  0.00  0.00    +0.000 C 
BRANCH  24  27
ATOM     27  O   UNL     1       5.449   6.234  15.427  0.00  0.00    +0.000 OA
ATOM     28  H   UNL     1       5.921   7.058  15.225  0.00  0.00    +0.000 HD
ENDBRANCH  24  27
BRANCH  25  29
ATOM     29  O   UNL     1       5.144   4.313  18.287  0.00  0.00    +0.000 OA
ATOM     30  H   UNL     1       4.955   3.356  18.230  0.00  0.00    +0.000 HD
ENDBRANCH  25  29
ENDBRANCH   3  22
BRANCH   6  31
ATOM     31  O   UNL     1      -0.254   9.475  21.544  0.00  0.00    +0.000 OA
ATOM     32  H   UNL     1      -0.336   8.948  22.356  0.00  0.00    +0.000 HD
ENDBRANCH   6  31
TORSDOF 6
ENDMDL
