MODEL 1
REMARK VINA RESULT:      -6.8      0.000      0.000
REMARK  Name = 
REMARK  3 active torsions:
REMARK  status: ('A' for Active; 'I' for Inactive)
REMARK    1  A    between atoms: C_1  and  C_2
REMARK    2  A    between atoms: C_5  and  C_6
REMARK    3  A    between atoms: N_8  and  C_9
REMARK                            x       y       z     vdW  Elec       q    Type
REMARK                         _______ _______ _______ _____ _____    ______ ____
ROOT
ATOM      1  C   UNL     1       5.873   4.767  16.662  0.00  0.00    +0.000 C 
ATOM      2  O   UNL     1       6.480   4.436  17.677  0.00  0.00    +0.000 OA
ATOM      3  N   UNL     1       4.508   5.014  16.611  0.00  0.00    +0.000 N 
ATOM      4  H   UNL     1       4.120   5.168  15.686  0.00  0.00    +0.000 HD
ENDROOT
BRANCH   1   9
ATOM      5  C   UNL     1       7.448   4.711  11.843  0.00  0.00    +0.000 C 
ATOM      6  C   UNL     1       7.268   4.903  13.300  0.00  0.00    +0.000 A 
ATOM      7  N   UNL     1       8.164   5.602  14.009  0.00  0.00    +0.000 NA
ATOM      8  O   UNL     1       7.700   5.596  15.309  0.00  0.00    +0.000 OA
ATOM      9  C   UNL     1       6.530   4.893  15.383  0.00  0.00    +0.000 A 
ATOM     10  C   UNL     1       6.219   4.433  14.126  0.00  0.00    +0.000 A 
ATOM     11 CL   UNL     1       4.884   3.521  13.614  0.00  0.00    +0.000 Cl
ENDBRANCH   1   9
BRANCH   3  12
ATOM     12  C   UNL     1       3.589   4.954  17.678  0.00  0.00    +0.000 A 
ATOM     13  C   UNL     1       3.557   5.877  18.728  0.00  0.00    +0.000 A 
ATOM     14  C   UNL     1       2.631   5.741  19.766  0.00  0.00    +0.000 A 
ATOM     15  C   UNL     1       1.733   4.677  19.769  0.00  0.00    +0.000 A 
ATOM     16  C   UNL     1       1.753   3.765  18.719  0.00  0.00    +0.000 A 
ATOM     17 CL   UNL     1       0.657   2.437  18.725  0.00  0.00    +0.000 Cl
ATOM     18  C   UNL     1       2.661   3.905  17.669  0.00  0.00    +0.000 A 
ENDBRANCH   3  12
TORSDOF 2
ENDMDL
MODEL 2
REMARK VINA RESULT:      -6.7      1.180      1.710
REMARK  Name = 
REMARK  3 active torsions:
REMARK  status: ('A' for Active; 'I' for Inactive)
REMARK    1  A    between atoms: C_1  and  C_2
REMARK    2  A    between atoms: C_5  and  C_6
REMARK    3  A    between atoms: N_8  and  C_9
REMARK                            x       y       z     vdW  Elec       q    Type
REMARK                         _______ _______ _______ _____ _____    ______ ____
ROOT
ATOM      1  C   UNL     1       5.600   4.343  16.644  0.00  0.00    +0.000 C 
ATOM      2  O   UNL     1       6.170   4.176  17.719  0.00  0.00    +0.000 OA
ATOM      3  N   UNL     1       4.227   4.242  16.461  0.00  0.00    +0.000 N 
ATOM      4  H   UNL     1       3.903   4.292  15.501  0.00  0.00    +0.000 HD
ENDROOT
BRANCH   1   9
ATOM      5  C   UNL     1       7.451   4.851  11.951  0.00  0.00    +0.000 C 
ATOM      6  C   UNL     1       7.179   4.881  13.407  0.00  0.00    +0.000 A 
ATOM      7  N   UNL     1       8.002   5.535  14.237  0.00  0.00    +0.000 NA
ATOM      8  O   UNL     1       7.464   5.375  15.499  0.00  0.00    +0.000 OA
ATOM      9  C   UNL     1       6.323   4.627  15.428  0.00  0.00    +0.000 A 
ATOM     10  C   UNL     1       6.105   4.291  14.113  0.00  0.00    +0.000 A 
ATOM     11 CL   UNL     1       4.841   3.390  13.429  0.00  0.00    +0.000 Cl
ENDBRANCH   1   9
BRANCH   3  12
ATOM     12  C   UNL     1       3.254   3.958  17.441  0.00  0.00    +0.000 A 
ATOM     13  C   UNL     1       2.519   2.770  17.483  0.00  0.00    +0.000 A 
ATOM     14  C   UNL     1       1.551   2.566  18.471  0.00  0.00    +0.000 A 
ATOM     15  C   UNL     1       1.305   3.552  19.423  0.00  0.00    +0.000 A 
ATOM     16  C   UNL     1       2.044   4.730  19.393  0.00  0.00    +0.000 A 
ATOM     17 CL   UNL     1       1.732   5.960  20.557  0.00  0.00    +0.000 Cl
ATOM     18  C   UNL     1       3.024   4.932  18.422  0.00  0.00    +0.000 A 
ENDBRANCH   3  12
TORSDOF 2
ENDMDL
MODEL 3
REMARK VINA RESULT:      -6.6      2.108      6.464
REMARK  Name = 
REMARK  3 active torsions:
REMARK  status: ('A' for Active; 'I' for Inactive)
REMARK    1  A    between atoms: C_1  and  C_2
REMARK    2  A    between atoms: C_5  and  C_6
REMARK    3  A    between atoms: N_8  and  C_9
REMARK                            x       y       z     vdW  Elec       q    Type
REMARK                         _______ _______ _______ _____ _____    ______ ____
ROOT
ATOM      1  C   UNL     1       4.688   4.450  17.506  0.00  0.00    +0.000 C 
ATOM      2  O   UNL     1       4.374   5.607  17.238  0.00  0.00    +0.000 OA
ATOM      3  N   UNL     1       5.452   3.635  16.682  0.00  0.00    +0.000 N 
ATOM      4  H   UNL     1       5.540   2.667  16.974  0.00  0.00    +0.000 HD
ENDROOT
BRANCH   1   9
ATOM      5  C   UNL     1       2.299   2.543  21.551  0.00  0.00    +0.000 C 
ATOM      6  C   UNL     1       3.259   2.936  20.494  0.00  0.00    +0.000 A 
ATOM      7  N   UNL     1       4.523   2.493  20.527  0.00  0.00    +0.000 NA
ATOM      8  O   UNL     1       5.136   3.031  19.413  0.00  0.00    +0.000 OA
ATOM      9  C   UNL     1       4.246   3.796  18.714  0.00  0.00    +0.000 A 
ATOM     10  C   UNL     1       3.038   3.764  19.369  0.00  0.00    +0.000 A 
ATOM     11 CL   UNL     1       1.572   4.511  18.958  0.00  0.00    +0.000 Cl
ENDBRANCH   1   9
BRANCH   3  12
ATOM     12  C   UNL     1       6.013   3.969  15.433  0.00  0.00    +0.000 A 
ATOM     13  C   UNL     1       7.120   4.808  15.278  0.00  0.00    +0.000 A 
ATOM     14  C   UNL     1       7.608   5.116  14.004  0.00  0.00    +0.000 A 
ATOM     15  C   UNL     1       6.988   4.591  12.872  0.00  0.00    +0.000 A 
ATOM     16  C   UNL     1       5.895   3.745  13.023  0.00  0.00    +0.000 A 
ATOM     17 CL   UNL     1       5.114   3.107  11.627  0.00  0.00    +0.000 Cl
ATOM     18  C   UNL     1       5.415   3.418  14.291  0.00  0.00    +0.000 A 
ENDBRANCH   3  12
TORSDOF 2
ENDMDL
MODEL 4
REMARK VINA RESULT:      -6.6      4.989      8.081
REMARK  Name = 
REMARK  3 active torsions:
REMARK  status: ('A' for Active; 'I' for Inactive)
REMARK    1  A    between atoms: C_1  and  C_2
REMARK    2  A    between atoms: C_5  and  C_6
REMARK    3  A    between atoms: N_8  and  C_9
REMARK                            x       y       z     vdW  Elec       q    Type
REMARK                         _______ _______ _______ _____ _____    ______ ____
ROOT
ATOM      1  C   UNL     1       1.626   7.992  20.244  0.00  0.00    +0.000 C 
ATOM      2  O   UNL     1       1.914   8.348  19.105  0.00  0.00    +0.000 OA
ATOM      3  N   UNL     1       1.831   6.711  20.739  0.00  0.00    +0.000 N 
ATOM      4  H   UNL     1       1.443   6.524  21.659  0.00  0.00    +0.000 HD
ENDROOT
BRANCH   1   9
ATOM      5  C   UNL     1      -1.109  11.396  22.822  0.00  0.00    +0.000 C 
ATOM      6  C   UNL     1      -0.166  10.348  22.366  0.00  0.00    +0.000 A 
ATOM      7  N   UNL     1       0.664   9.757  23.235  0.00  0.00    +0.000 NA
ATOM      8  O   UNL     1       1.387   8.840  22.497  0.00  0.00    +0.000 OA
ATOM      9  C   UNL     1       0.993   8.880  21.189  0.00  0.00    +0.000 A 
ATOM     10  C   UNL     1       0.006   9.828  21.061  0.00  0.00    +0.000 A 
ATOM     11 CL   UNL     1      -0.861  10.298  19.681  0.00  0.00    +0.000 Cl
ENDBRANCH   1   9
BRANCH   3  12
ATOM     12  C   UNL     1       2.405   5.615  20.063  0.00  0.00    +0.000 A 
ATOM     13  C   UNL     1       3.743   5.565  19.662  0.00  0.00    +0.000 A 
ATOM     14  C   UNL     1       4.238   4.454  18.972  0.00  0.00    +0.000 A 
ATOM     15  C   UNL     1       3.397   3.386  18.671  0.00  0.00    +0.000 A 
ATOM     16  C   UNL     1       2.068   3.427  19.080  0.00  0.00    +0.000 A 
ATOM     17 CL   UNL     1       1.019   2.117  18.695  0.00  0.00    +0.000 Cl
ATOM     18  C   UNL     1       1.572   4.523  19.785  0.00  0.00    +0.000 A 
ENDBRANCH   3  12
TORSDOF 2
ENDMDL
MODEL 5
REMARK VINA RESULT:      -6.5      2.242      6.501
REMARK  Name = 
REMARK  3 active torsions:
REMARK  status: ('A' for Active; 'I' for Inactive)
REMARK    1  A    between atoms: C_1  and  C_2
REMARK    2  A    between atoms: C_5  and  C_6
REMARK    3  A    between atoms: N_8  and  C_9
REMARK                            x       y       z     vdW  Elec       q    Type
REMARK                         _______ _______ _______ _____ _____    ______ ____
ROOT
ATOM      1  C   UNL     1       3.864   5.106  17.955  0.00  0.00    +0.000 C 
ATOM      2  O   UNL     1       3.600   6.196  17.455  0.00  0.00    +0.000 OA
ATOM      3  N   UNL     1       4.804   4.219  17.448  0.00  0.00    +0.000 N 
ATOM      4  H   UNL     1       4.840   3.309  17.894  0.00  0.00    +0.000 HD
ENDROOT
BRANCH   1   9
ATOM      5  C   UNL     1       1.492   2.532  21.622  0.00  0.00    +0.000 C 
ATOM      6  C   UNL     1       2.137   3.544  20.755  0.00  0.00    +0.000 A 
ATOM      7  N   UNL     1       2.230   4.819  21.153  0.00  0.00    +0.000 NA
ATOM      8  O   UNL     1       2.881   5.484  20.132  0.00  0.00    +0.000 OA
ATOM      9  C   UNL     1       3.177   4.611  19.123  0.00  0.00    +0.000 A 
ATOM     10  C   UNL     1       2.719   3.365  19.478  0.00  0.00    +0.000 A 
ATOM     11 CL   UNL     1       2.819   1.901  18.628  0.00  0.00    +0.000 Cl
ENDBRANCH   1   9
BRANCH   3  12
ATOM     12  C   UNL     1       5.622   4.398  16.313  0.00  0.00    +0.000 A 
ATOM     13  C   UNL     1       6.849   5.066  16.338  0.00  0.00    +0.000 A 
ATOM     14  C   UNL     1       7.596   5.227  15.168  0.00  0.00    +0.000 A 
ATOM     15  C   UNL     1       7.119   4.726  13.959  0.00  0.00    +0.000 A 
ATOM     16  C   UNL     1       5.905   4.048  13.933  0.00  0.00    +0.000 A 
ATOM     17 CL   UNL     1       5.301   3.441  12.438  0.00  0.00    +0.000 Cl
ATOM     18  C   UNL     1       5.163   3.867  15.100  0.00  0.00    +0.000 A 
ENDBRANCH   3  12
TORSDOF 2
ENDMDL
MODEL 6
REMARK VINA RESULT:      -6.4      2.180      6.657
REMARK  Name = 
REMARK  3 active torsions:
REMARK  status: ('A' for Active; 'I' for Inactive)
REMARK    1  A    between atoms: C_1  and  C_2
REMARK    2  A    between atoms: C_5  and  C_6
REMARK    3  A    between atoms: N_8  and  C_9
REMARK                            x       y       z     vdW  Elec       q    Type
REMARK                         _______ _______ _______ _____ _____    ______ ____
ROOT
ATOM      1  C   UNL     1       4.998   4.725  16.582  0.00  0.00    +0.000 C 
ATOM      2  O   UNL     1       4.817   5.900  16.274  0.00  0.00    +0.000 OA
ATOM      3  N   UNL     1       5.577   3.777  15.751  0.00  0.00    +0.000 N 
ATOM      4  H   UNL     1       5.562   2.821  16.090  0.00  0.00    +0.000 HD
ENDROOT
BRANCH   1   9
ATOM      5  C   UNL     1       2.645   3.006  20.732  0.00  0.00    +0.000 C 
ATOM      6  C   UNL     1       3.609   3.433  19.691  0.00  0.00    +0.000 A 
ATOM      7  N   UNL     1       4.927   3.305  19.893  0.00  0.00    +0.000 NA
ATOM      8  O   UNL     1       5.529   3.780  18.745  0.00  0.00    +0.000 OA
ATOM      9  C   UNL     1       4.577   4.194  17.856  0.00  0.00    +0.000 A 
ATOM     10  C   UNL     1       3.340   3.991  18.419  0.00  0.00    +0.000 A 
ATOM     11 CL   UNL     1       1.801   4.302  17.776  0.00  0.00    +0.000 Cl
ENDBRANCH   1   9
BRANCH   3  12
ATOM     12  C   UNL     1       6.071   3.974  14.445  0.00  0.00    +0.000 A 
ATOM     13  C   UNL     1       5.537   3.354  13.311  0.00  0.00    +0.000 A 
ATOM     14  C   UNL     1       6.094   3.577  12.049  0.00  0.00    +0.000 A 
ATOM     15  C   UNL     1       7.195   4.419  11.909  0.00  0.00    +0.000 A 
ATOM     16  C   UNL     1       7.720   5.048  13.032  0.00  0.00    +0.000 A 
ATOM     17 CL   UNL     1       9.092   6.077  12.868  0.00  0.00    +0.000 Cl
ATOM     18  C   UNL     1       7.157   4.845  14.292  0.00  0.00    +0.000 A 
ENDBRANCH   3  12
TORSDOF 2
ENDMDL
MODEL 7
REMARK VINA RESULT:      -6.4      3.508      6.774
REMARK  Name = 
REMARK  3 active torsions:
REMARK  status: ('A' for Active; 'I' for Inactive)
REMARK    1  A    between atoms: C_1  and  C_2
REMARK    2  A    between atoms: C_5  and  C_6
REMARK    3  A    between atoms: N_8  and  C_9
REMARK                            x       y       z     vdW  Elec       q    Type
REMARK                         _______ _______ _______ _____ _____    ______ ____
ROOT
ATOM      1  C   UNL     1       3.052   6.861  18.028  0.00  0.00    +0.000 C 
ATOM      2  O   UNL     1       2.606   5.732  18.218  0.00  0.00    +0.000 OA
ATOM      3  N   UNL     1       4.320   7.128  17.531  0.00  0.00    +0.000 N 
ATOM      4  H   UNL     1       4.600   8.104  17.531  0.00  0.00    +0.000 HD
ENDROOT
BRANCH   1   9
ATOM      5  C   UNL     1       0.282  10.619  20.005  0.00  0.00    +0.000 C 
ATOM      6  C   UNL     1       1.096   9.718  19.158  0.00  0.00    +0.000 A 
ATOM      7  N   UNL     1       1.435  10.079  17.914  0.00  0.00    +0.000 NA
ATOM      8  O   UNL     1       2.186   9.034  17.413  0.00  0.00    +0.000 OA
ATOM      9  C   UNL     1       2.298   8.048  18.352  0.00  0.00    +0.000 A 
ATOM     10  C   UNL     1       1.617   8.442  19.479  0.00  0.00    +0.000 A 
ATOM     11 CL   UNL     1       1.426   7.634  20.958  0.00  0.00    +0.000 Cl
ENDBRANCH   1   9
BRANCH   3  12
ATOM     12  C   UNL     1       5.300   6.192  17.142  0.00  0.00    +0.000 A 
ATOM     13  C   UNL     1       6.379   5.818  17.948  0.00  0.00    +0.000 A 
ATOM     14  C   UNL     1       7.328   4.901  17.486  0.00  0.00    +0.000 A 
ATOM     15  C   UNL     1       7.209   4.353  16.211  0.00  0.00    +0.000 A 
ATOM     16  C   UNL     1       6.129   4.712  15.412  0.00  0.00    +0.000 A 
ATOM     17 CL   UNL     1       5.985   4.052  13.828  0.00  0.00    +0.000 Cl
ATOM     18  C   UNL     1       5.168   5.612  15.873  0.00  0.00    +0.000 A 
ENDBRANCH   3  12
TORSDOF 2
ENDMDL
MODEL 8
REMARK VINA RESULT:      -6.4      3.756      4.966
REMARK  Name = 
REMARK  3 active torsions:
REMARK  status: ('A' for Active; 'I' for Inactive)
REMARK    1  A    between atoms: C_1  and  C_2
REMARK    2  A    between atoms: C_5  and  C_6
REMARK    3  A    between atoms: N_8  and  C_9
REMARK                            x       y       z     vdW  Elec       q    Type
REMARK                         _______ _______ _______ _____ _____    ______ ____
ROOT
ATOM      1  C   UNL     1       2.925   6.203  18.443  0.00  0.00    +0.000 C 
ATOM      2  O   UNL     1       1.903   5.601  18.125  0.00  0.00    +0.000 OA
ATOM      3  N   UNL     1       2.953   7.514  18.898  0.00  0.00    +0.000 N 
ATOM      4  H   UNL     1       3.874   7.923  19.016  0.00  0.00    +0.000 HD
ENDROOT
BRANCH   1   9
ATOM      5  C   UNL     1       7.539   4.510  17.195  0.00  0.00    +0.000 C 
ATOM      6  C   UNL     1       6.247   4.837  17.843  0.00  0.00    +0.000 A 
ATOM      7  N   UNL     1       5.976   4.394  19.077  0.00  0.00    +0.000 NA
ATOM      8  O   UNL     1       4.717   4.876  19.379  0.00  0.00    +0.000 OA
ATOM      9  C   UNL     1       4.233   5.605  18.329  0.00  0.00    +0.000 A 
ATOM     10  C   UNL     1       5.176   5.605  17.329  0.00  0.00    +0.000 A 
ATOM     11 CL   UNL     1       5.130   6.354  15.809  0.00  0.00    +0.000 Cl
ENDBRANCH   1   9
BRANCH   3  12
ATOM     12  C   UNL     1       1.852   8.373  19.097  0.00  0.00    +0.000 A 
ATOM     13  C   UNL     1       1.291   9.162  18.088  0.00  0.00    +0.000 A 
ATOM     14  C   UNL     1       0.215  10.010  18.364  0.00  0.00    +0.000 A 
ATOM     15  C   UNL     1      -0.307  10.081  19.654  0.00  0.00    +0.000 A 
ATOM     16  C   UNL     1       0.239   9.287  20.656  0.00  0.00    +0.000 A 
ATOM     17 CL   UNL     1      -0.390   9.384  22.256  0.00  0.00    +0.000 Cl
ATOM     18  C   UNL     1       1.301   8.425  20.384  0.00  0.00    +0.000 A 
ENDBRANCH   3  12
TORSDOF 2
ENDMDL
MODEL 9
REMARK VINA RESULT:      -6.4      1.764      6.281
REMARK  Name = 
REMARK  3 active torsions:
REMARK  status: ('A' for Active; 'I' for Inactive)
REMARK    1  A    between atoms: C_1  and  C_2
REMARK    2  A    between atoms: C_5  and  C_6
REMARK    3  A    between atoms: N_8  and  C_9
REMARK                            x       y       z     vdW  Elec       q    Type
REMARK                         _______ _______ _______ _____ _____    ______ ____
ROOT
ATOM      1  C   UNL     1       5.795   4.421  17.065  0.00  0.00    +0.000 C 
ATOM      2  O   UNL     1       6.997   4.348  17.309  0.00  0.00    +0.000 OA
ATOM      3  N   UNL     1       5.255   4.441  15.786  0.00  0.00    +0.000 N 
ATOM      4  H   UNL     1       4.258   4.619  15.729  0.00  0.00    +0.000 HD
ENDROOT
BRANCH   1   9
ATOM      5  C   UNL     1       2.053   3.975  20.457  0.00  0.00    +0.000 C 
ATOM      6  C   UNL     1       3.190   4.404  19.610  0.00  0.00    +0.000 A 
ATOM      7  N   UNL     1       3.779   5.590  19.813  0.00  0.00    +0.000 NA
ATOM      8  O   UNL     1       4.788   5.671  18.875  0.00  0.00    +0.000 OA
ATOM      9  C   UNL     1       4.807   4.539  18.110  0.00  0.00    +0.000 A 
ATOM     10  C   UNL     1       3.804   3.705  18.544  0.00  0.00    +0.000 A 
ATOM     11 CL   UNL     1       3.366   2.167  17.981  0.00  0.00    +0.000 Cl
ENDBRANCH   1   9
BRANCH   3  12
ATOM     12  C   UNL     1       5.953   4.365  14.564  0.00  0.00    +0.000 A 
ATOM     13  C   UNL     1       7.026   5.195  14.228  0.00  0.00    +0.000 A 
ATOM     14  C   UNL     1       7.655   5.079  12.986  0.00  0.00    +0.000 A 
ATOM     15  C   UNL     1       7.212   4.134  12.063  0.00  0.00    +0.000 A 
ATOM     16  C   UNL     1       6.154   3.297  12.398  0.00  0.00    +0.000 A 
ATOM     17 CL   UNL     1       5.590   2.138  11.255  0.00  0.00    +0.000 Cl
ATOM     18  C   UNL     1       5.534   3.394  13.644  0.00  0.00    +0.000 A 
ENDBRANCH   3  12
TORSDOF 2
ENDMDL
