MODEL 1
REMARK VINA RESULT:      -6.3      0.000      0.000
REMARK  Name = 
REMARK  8 active torsions:
REMARK  status: ('A' for Active; 'I' for Inactive)
REMARK    1  A    between atoms: C_2  and  C_3
REMARK    2  A    between atoms: C_6  and  C_7
REMARK    3  A    between atoms: C_10  and  C_12
REMARK    4  A    between atoms: C_12  and  N_13
REMARK    5  A    between atoms: N_13  and  C_14
REMARK    6  A    between atoms: C_14  and  C_15
REMARK    7  A    between atoms: C_14  and  C_16
REMARK    8  A    between atoms: C_14  and  C_17
REMARK                            x       y       z     vdW  Elec       q    Type
REMARK                         _______ _______ _______ _____ _____    ______ ____
ROOT
ATOM      1  C   UNL     1       3.273   3.030  18.433  0.00  0.00    +0.000 C 
ATOM      2  C   UNL     1       2.057   2.179  18.022  0.00  0.00    +0.000 C 
ATOM      3  C   UNL     1       0.839   2.767  18.756  0.00  0.00    +0.000 C 
ATOM      4  C   UNL     1       1.371   3.921  19.613  0.00  0.00    +0.000 C 
ATOM      5  N   UNL     1       2.653   4.243  18.955  0.00  0.00    +0.000 N 
ATOM      6  C   UNL     1       3.148   5.539  18.898  0.00  0.00    +0.000 C 
ATOM      7  O   UNL     1       2.504   6.477  19.372  0.00  0.00    +0.000 OA
ENDROOT
BRANCH   1   9
ATOM      8  C   UNL     1       4.784   1.829  20.278  0.00  0.00    +0.000 C 
ATOM      9  C   UNL     1       4.085   2.348  19.449  0.00  0.00    +0.000 C 
ENDBRANCH   1   9
BRANCH   4  10
ATOM     10  C   UNL     1       1.645   3.423  21.023  0.00  0.00    +0.000 C 
ATOM     11  N   UNL     1       1.871   3.010  22.192  0.00  0.00    +0.000 NA
ENDBRANCH   4  10
BRANCH   6  12
ATOM     12  C   UNL     1       4.486   5.743  18.143  0.00  0.00    +0.000 C 
BRANCH  12  13
ATOM     13  N   UNL     1       5.686   5.496  18.974  0.00  0.00    +0.000 NA
ATOM     14  H   UNL     1       5.649   4.536  19.323  0.00  0.00    +0.000 HD
BRANCH  13  15
ATOM     15  C   UNL     1       6.977   5.731  18.279  0.00  0.00    +0.000 C 
ATOM     16  C   UNL     1       6.941   7.028  17.447  0.00  0.00    +0.000 C 
ATOM     17  C   UNL     1       8.105   5.854  19.330  0.00  0.00    +0.000 C 
ATOM     18  C   UNL     1       7.345   4.561  17.350  0.00  0.00    +0.000 C 
ENDBRANCH  13  15
ENDBRANCH  12  13
ENDBRANCH   6  12
TORSDOF 5
ENDMDL
MODEL 2
REMARK VINA RESULT:      -6.3      0.068      1.059
REMARK  Name = 
REMARK  8 active torsions:
REMARK  status: ('A' for Active; 'I' for Inactive)
REMARK    1  A    between atoms: C_2  and  C_3
REMARK    2  A    between atoms: C_6  and  C_7
REMARK    3  A    between atoms: C_10  and  C_12
REMARK    4  A    between atoms: C_12  and  N_13
REMARK    5  A    between atoms: N_13  and  C_14
REMARK    6  A    between atoms: C_14  and  C_15
REMARK    7  A    between atoms: C_14  and  C_16
REMARK    8  A    between atoms: C_14  and  C_17
REMARK                            x       y       z     vdW  Elec       q    Type
REMARK                         _______ _______ _______ _____ _____    ______ ____
ROOT
ATOM      1  C   UNL     1       3.260   3.076  18.454  0.00  0.00    +0.000 C 
ATOM      2  C   UNL     1       2.051   2.215  18.041  0.00  0.00    +0.000 C 
ATOM      3  C   UNL     1       0.831   2.780  18.788  0.00  0.00    +0.000 C 
ATOM      4  C   UNL     1       1.354   3.931  19.655  0.00  0.00    +0.000 C 
ATOM      5  N   UNL     1       2.628   4.275  18.994  0.00  0.00    +0.000 N 
ATOM      6  C   UNL     1       3.107   5.578  18.949  0.00  0.00    +0.000 C 
ATOM      7  O   UNL     1       2.455   6.502  19.437  0.00  0.00    +0.000 OA
ENDROOT
BRANCH   1   9
ATOM      8  C   UNL     1       4.796   1.869  20.274  0.00  0.00    +0.000 C 
ATOM      9  C   UNL     1       4.085   2.392  19.459  0.00  0.00    +0.000 C 
ENDBRANCH   1   9
BRANCH   4  10
ATOM     10  C   UNL     1       1.641   3.420  21.058  0.00  0.00    +0.000 C 
ATOM     11  N   UNL     1       1.880   2.997  22.221  0.00  0.00    +0.000 NA
ENDBRANCH   4  10
BRANCH   6  12
ATOM     12  C   UNL     1       4.439   5.806  18.189  0.00  0.00    +0.000 C 
BRANCH  12  13
ATOM     13  N   UNL     1       5.647   5.535  19.002  0.00  0.00    +0.000 NA
ATOM     14  H   UNL     1       5.594   4.577  19.353  0.00  0.00    +0.000 HD
BRANCH  13  15
ATOM     15  C   UNL     1       6.931   5.741  18.286  0.00  0.00    +0.000 C 
ATOM     16  C   UNL     1       7.260   4.549  17.365  0.00  0.00    +0.000 C 
ATOM     17  C   UNL     1       6.829   7.017  17.418  0.00  0.00    +0.000 C 
ATOM     18  C   UNL     1       8.101   5.946  19.263  0.00  0.00    +0.000 C 
ENDBRANCH  13  15
ENDBRANCH  12  13
ENDBRANCH   6  12
TORSDOF 5
ENDMDL
MODEL 3
REMARK VINA RESULT:      -6.1      0.894      1.472
REMARK  Name = 
REMARK  8 active torsions:
REMARK  status: ('A' for Active; 'I' for Inactive)
REMARK    1  A    between atoms: C_2  and  C_3
REMARK    2  A    between atoms: C_6  and  C_7
REMARK    3  A    between atoms: C_10  and  C_12
REMARK    4  A    between atoms: C_12  and  N_13
REMARK    5  A    between atoms: N_13  and  C_14
REMARK    6  A    between atoms: C_14  and  C_15
REMARK    7  A    between atoms: C_14  and  C_16
REMARK    8  A    between atoms: C_14  and  C_17
REMARK                            x       y       z     vdW  Elec       q    Type
REMARK                         _______ _______ _______ _____ _____    ______ ____
ROOT
ATOM      1  C   UNL     1       3.909   2.882  18.813  0.00  0.00    +0.000 C 
ATOM      2  C   UNL     1       2.857   2.070  18.035  0.00  0.00    +0.000 C 
ATOM      3  C   UNL     1       1.480   2.602  18.466  0.00  0.00    +0.000 C 
ATOM      4  C   UNL     1       1.749   3.685  19.517  0.00  0.00    +0.000 C 
ATOM      5  N   UNL     1       3.153   4.053  19.244  0.00  0.00    +0.000 N 
ATOM      6  C   UNL     1       3.623   5.348  19.417  0.00  0.00    +0.000 C 
ATOM      7  O   UNL     1       2.861   6.248  19.775  0.00  0.00    +0.000 OA
ENDROOT
BRANCH   1   9
ATOM      8  C   UNL     1       4.893   1.466  20.851  0.00  0.00    +0.000 C 
ATOM      9  C   UNL     1       4.438   2.121  19.952  0.00  0.00    +0.000 C 
ENDBRANCH   1   9
BRANCH   4  10
ATOM     10  C   UNL     1       1.653   3.079  20.908  0.00  0.00    +0.000 C 
ATOM     11  N   UNL     1       1.574   2.575  22.061  0.00  0.00    +0.000 NA
ENDBRANCH   4  10
BRANCH   6  12
ATOM     12  C   UNL     1       5.108   5.606  19.057  0.00  0.00    +0.000 C 
BRANCH  12  13
ATOM     13  N   UNL     1       5.333   5.903  17.623  0.00  0.00    +0.000 NA
ATOM     14  H   UNL     1       4.969   6.836  17.424  0.00  0.00    +0.000 HD
BRANCH  13  15
ATOM     15  C   UNL     1       6.750   5.811  17.191  0.00  0.00    +0.000 C 
ATOM     16  C   UNL     1       7.517   4.741  17.994  0.00  0.00    +0.000 C 
ATOM     17  C   UNL     1       6.800   5.427  15.693  0.00  0.00    +0.000 C 
ATOM     18  C   UNL     1       7.481   7.156  17.340  0.00  0.00    +0.000 C 
ENDBRANCH  13  15
ENDBRANCH  12  13
ENDBRANCH   6  12
TORSDOF 5
ENDMDL
MODEL 4
REMARK VINA RESULT:      -6.1      2.009      5.664
REMARK  Name = 
REMARK  8 active torsions:
REMARK  status: ('A' for Active; 'I' for Inactive)
REMARK    1  A    between atoms: C_2  and  C_3
REMARK    2  A    between atoms: C_6  and  C_7
REMARK    3  A    between atoms: C_10  and  C_12
REMARK    4  A    between atoms: C_12  and  N_13
REMARK    5  A    between atoms: N_13  and  C_14
REMARK    6  A    between atoms: C_14  and  C_15
REMARK    7  A    between atoms: C_14  and  C_16
REMARK    8  A    between atoms: C_14  and  C_17
REMARK                            x       y       z     vdW  Elec       q    Type
REMARK                         _______ _______ _______ _____ _____    ______ ____
ROOT
ATOM      1  C   UNL     1       5.316   5.863  18.456  0.00  0.00    +0.000 C 
ATOM      2  C   UNL     1       4.947   7.073  17.579  0.00  0.00    +0.000 C 
ATOM      3  C   UNL     1       4.765   6.541  16.147  0.00  0.00    +0.000 C 
ATOM      4  C   UNL     1       5.072   5.040  16.205  0.00  0.00    +0.000 C 
ATOM      5  N   UNL     1       4.891   4.733  17.637  0.00  0.00    +0.000 N 
ATOM      6  C   UNL     1       4.399   3.509  18.073  0.00  0.00    +0.000 C 
ATOM      7  O   UNL     1       4.061   2.646  17.261  0.00  0.00    +0.000 OA
ENDROOT
BRANCH   1   9
ATOM      8  C   UNL     1       7.935   5.842  18.979  0.00  0.00    +0.000 C 
ATOM      9  C   UNL     1       6.758   5.824  18.736  0.00  0.00    +0.000 C 
ENDBRANCH   1   9
BRANCH   4  10
ATOM     10  C   UNL     1       6.524   4.803  15.823  0.00  0.00    +0.000 C 
ATOM     11  N   UNL     1       7.729   4.607  15.506  0.00  0.00    +0.000 NA
ENDBRANCH   4  10
BRANCH   6  12
ATOM     12  C   UNL     1       4.221   3.333  19.602  0.00  0.00    +0.000 C 
BRANCH  12  13
ATOM     13  N   UNL     1       3.104   2.435  19.976  0.00  0.00    +0.000 NA
ATOM     14  H   UNL     1       3.415   1.830  20.737  0.00  0.00    +0.000 HD
BRANCH  13  15
ATOM     15  C   UNL     1       1.855   3.136  20.366  0.00  0.00    +0.000 C 
ATOM     16  C   UNL     1       0.731   2.900  19.337  0.00  0.00    +0.000 C 
ATOM     17  C   UNL     1       1.381   2.603  21.739  0.00  0.00    +0.000 C 
ATOM     18  C   UNL     1       2.074   4.651  20.516  0.00  0.00    +0.000 C 
ENDBRANCH  13  15
ENDBRANCH  12  13
ENDBRANCH   6  12
TORSDOF 5
ENDMDL
MODEL 5
REMARK VINA RESULT:      -6.1      1.099      1.327
REMARK  Name = 
REMARK  8 active torsions:
REMARK  status: ('A' for Active; 'I' for Inactive)
REMARK    1  A    between atoms: C_2  and  C_3
REMARK    2  A    between atoms: C_6  and  C_7
REMARK    3  A    between atoms: C_10  and  C_12
REMARK    4  A    between atoms: C_12  and  N_13
REMARK    5  A    between atoms: N_13  and  C_14
REMARK    6  A    between atoms: C_14  and  C_15
REMARK    7  A    between atoms: C_14  and  C_16
REMARK    8  A    between atoms: C_14  and  C_17
REMARK                            x       y       z     vdW  Elec       q    Type
REMARK                         _______ _______ _______ _____ _____    ______ ____
ROOT
ATOM      1  C   UNL     1       3.276   3.080  18.714  0.00  0.00    +0.000 C 
ATOM      2  C   UNL     1       2.192   2.198  18.067  0.00  0.00    +0.000 C 
ATOM      3  C   UNL     1       0.858   2.579  18.734  0.00  0.00    +0.000 C 
ATOM      4  C   UNL     1       1.192   3.643  19.785  0.00  0.00    +0.000 C 
ATOM      5  N   UNL     1       2.495   4.155  19.317  0.00  0.00    +0.000 N 
ATOM      6  C   UNL     1       2.868   5.483  19.482  0.00  0.00    +0.000 C 
ATOM      7  O   UNL     1       2.095   6.291  20.000  0.00  0.00    +0.000 OA
ENDROOT
BRANCH   1   9
ATOM      8  C   UNL     1       4.717   1.750  20.525  0.00  0.00    +0.000 C 
ATOM      9  C   UNL     1       4.046   2.333  19.717  0.00  0.00    +0.000 C 
ENDBRANCH   1   9
BRANCH   4  10
ATOM     10  C   UNL     1       1.374   2.979  21.140  0.00  0.00    +0.000 C 
ATOM     11  N   UNL     1       1.525   2.429  22.265  0.00  0.00    +0.000 NA
ENDBRANCH   4  10
BRANCH   6  12
ATOM     12  C   UNL     1       4.248   5.896  18.910  0.00  0.00    +0.000 C 
BRANCH  12  13
ATOM     13  N   UNL     1       4.266   6.039  17.435  0.00  0.00    +0.000 NA
ATOM     14  H   UNL     1       3.903   6.963  17.194  0.00  0.00    +0.000 HD
BRANCH  13  15
ATOM     15  C   UNL     1       5.599   5.842  16.814  0.00  0.00    +0.000 C 
ATOM     16  C   UNL     1       5.496   5.741  15.279  0.00  0.00    +0.000 C 
ATOM     17  C   UNL     1       6.507   7.044  17.166  0.00  0.00    +0.000 C 
ATOM     18  C   UNL     1       6.294   4.575  17.344  0.00  0.00    +0.000 C 
ENDBRANCH  13  15
ENDBRANCH  12  13
ENDBRANCH   6  12
TORSDOF 5
ENDMDL
MODEL 6
REMARK VINA RESULT:      -6.0      2.011      5.661
REMARK  Name = 
REMARK  8 active torsions:
REMARK  status: ('A' for Active; 'I' for Inactive)
REMARK    1  A    between atoms: C_2  and  C_3
REMARK    2  A    between atoms: C_6  and  C_7
REMARK    3  A    between atoms: C_10  and  C_12
REMARK    4  A    between atoms: C_12  and  N_13
REMARK    5  A    between atoms: N_13  and  C_14
REMARK    6  A    between atoms: C_14  and  C_15
REMARK    7  A    between atoms: C_14  and  C_16
REMARK    8  A    between atoms: C_14  and  C_17
REMARK                            x       y       z     vdW  Elec       q    Type
REMARK                         _______ _______ _______ _____ _____    ______ ____
ROOT
ATOM      1  C   UNL     1       5.320   5.853  18.466  0.00  0.00    +0.000 C 
ATOM      2  C   UNL     1       4.954   7.067  17.593  0.00  0.00    +0.000 C 
ATOM      3  C   UNL     1       4.769   6.541  16.159  0.00  0.00    +0.000 C 
ATOM      4  C   UNL     1       5.071   5.039  16.212  0.00  0.00    +0.000 C 
ATOM      5  N   UNL     1       4.890   4.727  17.644  0.00  0.00    +0.000 N 
ATOM      6  C   UNL     1       4.395   3.503  18.075  0.00  0.00    +0.000 C 
ATOM      7  O   UNL     1       4.055   2.643  17.260  0.00  0.00    +0.000 OA
ENDROOT
BRANCH   1   9
ATOM      8  C   UNL     1       7.935   5.814  19.004  0.00  0.00    +0.000 C 
ATOM      9  C   UNL     1       6.761   5.809  18.746  0.00  0.00    +0.000 C 
ENDBRANCH   1   9
BRANCH   4  10
ATOM     10  C   UNL     1       6.523   4.799  15.828  0.00  0.00    +0.000 C 
ATOM     11  N   UNL     1       7.726   4.600  15.510  0.00  0.00    +0.000 NA
ENDBRANCH   4  10
BRANCH   6  12
ATOM     12  C   UNL     1       4.218   3.322  19.603  0.00  0.00    +0.000 C 
BRANCH  12  13
ATOM     13  N   UNL     1       3.104   2.418  19.975  0.00  0.00    +0.000 NA
ATOM     14  H   UNL     1       3.435   1.776  20.698  0.00  0.00    +0.000 HD
BRANCH  13  15
ATOM     15  C   UNL     1       1.876   3.111  20.437  0.00  0.00    +0.000 C 
ATOM     16  C   UNL     1       1.395   2.560  21.794  0.00  0.00    +0.000 C 
ATOM     17  C   UNL     1       2.174   4.620  20.599  0.00  0.00    +0.000 C 
ATOM     18  C   UNL     1       0.730   2.980  19.419  0.00  0.00    +0.000 C 
ENDBRANCH  13  15
ENDBRANCH  12  13
ENDBRANCH   6  12
TORSDOF 5
ENDMDL
MODEL 7
REMARK VINA RESULT:      -6.0      2.013      5.674
REMARK  Name = 
REMARK  8 active torsions:
REMARK  status: ('A' for Active; 'I' for Inactive)
REMARK    1  A    between atoms: C_2  and  C_3
REMARK    2  A    between atoms: C_6  and  C_7
REMARK    3  A    between atoms: C_10  and  C_12
REMARK    4  A    between atoms: C_12  and  N_13
REMARK    5  A    between atoms: N_13  and  C_14
REMARK    6  A    between atoms: C_14  and  C_15
REMARK    7  A    between atoms: C_14  and  C_16
REMARK    8  A    between atoms: C_14  and  C_17
REMARK                            x       y       z     vdW  Elec       q    Type
REMARK                         _______ _______ _______ _____ _____    ______ ____
ROOT
ATOM      1  C   UNL     1       5.307   5.838  18.462  0.00  0.00    +0.000 C 
ATOM      2  C   UNL     1       4.944   7.061  17.601  0.00  0.00    +0.000 C 
ATOM      3  C   UNL     1       4.765   6.550  16.161  0.00  0.00    +0.000 C 
ATOM      4  C   UNL     1       5.067   5.048  16.199  0.00  0.00    +0.000 C 
ATOM      5  N   UNL     1       4.881   4.720  17.626  0.00  0.00    +0.000 N 
ATOM      6  C   UNL     1       4.384   3.492  18.043  0.00  0.00    +0.000 C 
ATOM      7  O   UNL     1       4.047   2.641  17.218  0.00  0.00    +0.000 OA
ENDROOT
BRANCH   1   9
ATOM      8  C   UNL     1       7.930   5.799  18.956  0.00  0.00    +0.000 C 
ATOM      9  C   UNL     1       6.747   5.791  18.747  0.00  0.00    +0.000 C 
ENDBRANCH   1   9
BRANCH   4  10
ATOM     10  C   UNL     1       6.520   4.812  15.818  0.00  0.00    +0.000 C 
ATOM     11  N   UNL     1       7.725   4.617  15.503  0.00  0.00    +0.000 NA
ENDBRANCH   4  10
BRANCH   6  12
ATOM     12  C   UNL     1       4.201   3.295  19.569  0.00  0.00    +0.000 C 
BRANCH  12  13
ATOM     13  N   UNL     1       3.059   2.423  19.928  0.00  0.00    +0.000 NA
ATOM     14  H   UNL     1       3.380   1.730  20.606  0.00  0.00    +0.000 HD
BRANCH  13  15
ATOM     15  C   UNL     1       1.878   3.145  20.464  0.00  0.00    +0.000 C 
ATOM     16  C   UNL     1       2.173   4.645  20.656  0.00  0.00    +0.000 C 
ATOM     17  C   UNL     1       0.701   3.001  19.470  0.00  0.00    +0.000 C 
ATOM     18  C   UNL     1       1.413   2.558  21.808  0.00  0.00    +0.000 C 
ENDBRANCH  13  15
ENDBRANCH  12  13
ENDBRANCH   6  12
TORSDOF 5
ENDMDL
MODEL 8
REMARK VINA RESULT:      -6.0      2.069      3.318
REMARK  Name = 
REMARK  8 active torsions:
REMARK  status: ('A' for Active; 'I' for Inactive)
REMARK    1  A    between atoms: C_2  and  C_3
REMARK    2  A    between atoms: C_6  and  C_7
REMARK    3  A    between atoms: C_10  and  C_12
REMARK    4  A    between atoms: C_12  and  N_13
REMARK    5  A    between atoms: N_13  and  C_14
REMARK    6  A    between atoms: C_14  and  C_15
REMARK    7  A    between atoms: C_14  and  C_16
REMARK    8  A    between atoms: C_14  and  C_17
REMARK                            x       y       z     vdW  Elec       q    Type
REMARK                         _______ _______ _______ _____ _____    ______ ____
ROOT
ATOM      1  C   UNL     1       2.899   5.019  19.920  0.00  0.00    +0.000 C 
ATOM      2  C   UNL     1       1.908   5.032  21.099  0.00  0.00    +0.000 C 
ATOM      3  C   UNL     1       1.629   3.563  21.457  0.00  0.00    +0.000 C 
ATOM      4  C   UNL     1       2.427   2.718  20.457  0.00  0.00    +0.000 C 
ATOM      5  N   UNL     1       3.451   3.670  19.981  0.00  0.00    +0.000 N 
ATOM      6  C   UNL     1       4.733   3.263  19.637  0.00  0.00    +0.000 C 
ATOM      7  O   UNL     1       5.068   2.083  19.754  0.00  0.00    +0.000 OA
ENDROOT
BRANCH   1   9
ATOM      8  C   UNL     1       1.623   5.449  17.614  0.00  0.00    +0.000 C 
ATOM      9  C   UNL     1       2.217   5.275  18.644  0.00  0.00    +0.000 C 
ENDBRANCH   1   9
BRANCH   4  10
ATOM     10  C   UNL     1       1.530   2.327  19.294  0.00  0.00    +0.000 C 
ATOM     11  N   UNL     1       0.786   2.002  18.329  0.00  0.00    +0.000 NA
ENDBRANCH   4  10
BRANCH   6  12
ATOM     12  C   UNL     1       5.720   4.371  19.190  0.00  0.00    +0.000 C 
BRANCH  12  13
ATOM     13  N   UNL     1       6.465   4.046  17.952  0.00  0.00    +0.000 NA
ATOM     14  H   UNL     1       6.406   3.038  17.792  0.00  0.00    +0.000 HD
BRANCH  13  15
ATOM     15  C   UNL     1       6.004   4.777  16.745  0.00  0.00    +0.000 C 
ATOM     16  C   UNL     1       7.106   4.840  15.669  0.00  0.00    +0.000 C 
ATOM     17  C   UNL     1       4.778   4.047  16.147  0.00  0.00    +0.000 C 
ATOM     18  C   UNL     1       5.561   6.211  17.082  0.00  0.00    +0.000 C 
ENDBRANCH  13  15
ENDBRANCH  12  13
ENDBRANCH   6  12
TORSDOF 5
ENDMDL
MODEL 9
REMARK VINA RESULT:      -6.0      2.065      3.243
REMARK  Name = 
REMARK  8 active torsions:
REMARK  status: ('A' for Active; 'I' for Inactive)
REMARK    1  A    between atoms: C_2  and  C_3
REMARK    2  A    between atoms: C_6  and  C_7
REMARK    3  A    between atoms: C_10  and  C_12
REMARK    4  A    between atoms: C_12  and  N_13
REMARK    5  A    between atoms: N_13  and  C_14
REMARK    6  A    between atoms: C_14  and  C_15
REMARK    7  A    between atoms: C_14  and  C_16
REMARK    8  A    between atoms: C_14  and  C_17
REMARK                            x       y       z     vdW  Elec       q    Type
REMARK                         _______ _______ _______ _____ _____    ______ ____
ROOT
ATOM      1  C   UNL     1       2.900   5.026  19.939  0.00  0.00    +0.000 C 
ATOM      2  C   UNL     1       1.914   5.026  21.122  0.00  0.00    +0.000 C 
ATOM      3  C   UNL     1       1.636   3.553  21.465  0.00  0.00    +0.000 C 
ATOM      4  C   UNL     1       2.429   2.719  20.452  0.00  0.00    +0.000 C 
ATOM      5  N   UNL     1       3.451   3.676  19.983  0.00  0.00    +0.000 N 
ATOM      6  C   UNL     1       4.732   3.272  19.629  0.00  0.00    +0.000 C 
ATOM      7  O   UNL     1       5.067   2.091  19.732  0.00  0.00    +0.000 OA
ENDROOT
BRANCH   1   9
ATOM      8  C   UNL     1       1.663   5.470  17.615  0.00  0.00    +0.000 C 
ATOM      9  C   UNL     1       2.213   5.296  18.669  0.00  0.00    +0.000 C 
ENDBRANCH   1   9
BRANCH   4  10
ATOM     10  C   UNL     1       1.527   2.341  19.288  0.00  0.00    +0.000 C 
ATOM     11  N   UNL     1       0.779   2.027  18.323  0.00  0.00    +0.000 NA
ENDBRANCH   4  10
BRANCH   6  12
ATOM     12  C   UNL     1       5.718   4.384  19.191  0.00  0.00    +0.000 C 
BRANCH  12  13
ATOM     13  N   UNL     1       6.478   4.061  17.961  0.00  0.00    +0.000 NA
ATOM     14  H   UNL     1       6.462   3.049  17.826  0.00  0.00    +0.000 HD
BRANCH  13  15
ATOM     15  C   UNL     1       5.988   4.742  16.737  0.00  0.00    +0.000 C 
ATOM     16  C   UNL     1       4.756   4.027  16.148  0.00  0.00    +0.000 C 
ATOM     17  C   UNL     1       5.589   6.195  17.088  0.00  0.00    +0.000 C 
ATOM     18  C   UNL     1       7.077   4.819  15.652  0.00  0.00    +0.000 C 
ENDBRANCH  13  15
ENDBRANCH  12  13
ENDBRANCH   6  12
TORSDOF 5
ENDMDL
