MODEL 1
REMARK VINA RESULT:      -8.0      0.000      0.000
REMARK  Name = 
REMARK  7 active torsions:
REMARK  status: ('A' for Active; 'I' for Inactive)
REMARK    1  A    between atoms: C_2  and  C_3
REMARK    2  A    between atoms: C_2  and  C_12
REMARK    3  A    between atoms: C_3  and  C_4
REMARK    4  A    between atoms: C_4  and  C_6
REMARK    5  A    between atoms: C_8  and  O_9
REMARK    6  A    between atoms: C_15  and  O_16
REMARK    7  A    between atoms: O_16  and  C_17
REMARK                            x       y       z     vdW  Elec       q    Type
REMARK                         _______ _______ _______ _____ _____    ______ ____
ROOT
ATOM      1  C   UNL     1       2.799   7.284  18.628  0.00  0.00    +0.000 A 
ATOM      2  C   UNL     1       2.091   7.339  19.833  0.00  0.00    +0.000 A 
ATOM      3  C   UNL     1       1.277   8.442  20.113  0.00  0.00    +0.000 A 
ATOM      4  C   UNL     1       1.168   9.491  19.196  0.00  0.00    +0.000 A 
ATOM      5  C   UNL     1       1.818   9.400  17.964  0.00  0.00    +0.000 A 
ATOM      6  C   UNL     1       2.648   8.313  17.690  0.00  0.00    +0.000 A 
ENDROOT
BRANCH   1   8
ATOM      7  O   UNL     1       3.254   5.005  18.265  0.00  0.00    +0.000 OA
ATOM      8  C   UNL     1       3.703   6.151  18.275  0.00  0.00    +0.000 C 
BRANCH   8   9
ATOM      9  C   UNL     1       5.151   6.414  17.967  0.00  0.00    +0.000 C 
BRANCH   9  10
ATOM     10  C   UNL     1       5.996   5.177  17.774  0.00  0.00    +0.000 C 
ATOM     11  O   UNL     1       6.370   4.481  18.718  0.00  0.00    +0.000 OA
BRANCH  10  12
ATOM     12  C   UNL     1       6.327   4.851  16.407  0.00  0.00    +0.000 A 
ATOM     13  C   UNL     1       5.854   3.885  15.548  0.00  0.00    +0.000 A 
ATOM     14  C   UNL     1       6.555   4.134  14.364  0.00  0.00    +0.000 A 
ATOM     15  N   UNL     1       7.406   5.148  14.459  0.00  0.00    +0.000 NA
ATOM     16  O   UNL     1       7.265   5.603  15.759  0.00  0.00    +0.000 OA
BRANCH  14  17
ATOM     17  O   UNL     1       6.477   3.512  13.185  0.00  0.00    +0.000 OA
ATOM     18  H   UNL     1       6.280   4.152  12.483  0.00  0.00    +0.000 HD
ENDBRANCH  14  17
ENDBRANCH  10  12
ENDBRANCH   9  10
ENDBRANCH   8   9
ENDBRANCH   1   8
BRANCH   4  19
ATOM     19  O   UNL     1       0.353  10.536  19.567  0.00  0.00    +0.000 OA
BRANCH  19  20
ATOM     20  C   UNL     1      -0.879  10.689  18.970  0.00  0.00    +0.000 A 
ATOM     21  C   UNL     1      -1.684  11.709  19.486  0.00  0.00    +0.000 A 
ATOM     22  C   UNL     1      -2.952  11.940  18.951  0.00  0.00    +0.000 A 
ATOM     23  C   UNL     1      -3.419  11.152  17.899  0.00  0.00    +0.000 A 
ATOM     24  C   UNL     1      -2.605  10.159  17.358  0.00  0.00    +0.000 A 
ATOM     25  C   UNL     1      -1.325   9.947  17.872  0.00  0.00    +0.000 A 
ENDBRANCH  19  20
ENDBRANCH   4  19
TORSDOF 7
ENDMDL
MODEL 2
REMARK VINA RESULT:      -8.0      1.212      1.381
REMARK  Name = 
REMARK  7 active torsions:
REMARK  status: ('A' for Active; 'I' for Inactive)
REMARK    1  A    between atoms: C_2  and  C_3
REMARK    2  A    between atoms: C_2  and  C_12
REMARK    3  A    between atoms: C_3  and  C_4
REMARK    4  A    between atoms: C_4  and  C_6
REMARK    5  A    between atoms: C_8  and  O_9
REMARK    6  A    between atoms: C_15  and  O_16
REMARK    7  A    between atoms: O_16  and  C_17
REMARK                            x       y       z     vdW  Elec       q    Type
REMARK                         _______ _______ _______ _____ _____    ______ ____
ROOT
ATOM      1  C   UNL     1       2.505   6.829  19.475  0.00  0.00    +0.000 A 
ATOM      2  C   UNL     1       1.782   7.558  20.426  0.00  0.00    +0.000 A 
ATOM      3  C   UNL     1       1.233   8.798  20.082  0.00  0.00    +0.000 A 
ATOM      4  C   UNL     1       1.403   9.315  18.795  0.00  0.00    +0.000 A 
ATOM      5  C   UNL     1       2.062   8.554  17.828  0.00  0.00    +0.000 A 
ATOM      6  C   UNL     1       2.631   7.327  18.172  0.00  0.00    +0.000 A 
ENDROOT
BRANCH   1   8
ATOM      7  O   UNL     1       2.477   4.647  20.353  0.00  0.00    +0.000 OA
ATOM      8  C   UNL     1       3.137   5.513  19.779  0.00  0.00    +0.000 C 
BRANCH   8   9
ATOM      9  C   UNL     1       4.575   5.268  19.410  0.00  0.00    +0.000 C 
BRANCH   9  10
ATOM     10  C   UNL     1       4.782   4.335  18.241  0.00  0.00    +0.000 C 
ATOM     11  O   UNL     1       4.177   3.267  18.136  0.00  0.00    +0.000 OA
BRANCH  10  12
ATOM     12  C   UNL     1       5.724   4.780  17.243  0.00  0.00    +0.000 A 
ATOM     13  C   UNL     1       6.015   4.321  15.977  0.00  0.00    +0.000 A 
ATOM     14  C   UNL     1       6.991   5.215  15.526  0.00  0.00    +0.000 A 
ATOM     15  N   UNL     1       7.307   6.145  16.418  0.00  0.00    +0.000 NA
ATOM     16  O   UNL     1       6.505   5.868  17.513  0.00  0.00    +0.000 OA
BRANCH  14  17
ATOM     17  O   UNL     1       7.619   5.261  14.348  0.00  0.00    +0.000 OA
ATOM     18  H   UNL     1       8.579   5.297  14.484  0.00  0.00    +0.000 HD
ENDBRANCH  14  17
ENDBRANCH  10  12
ENDBRANCH   9  10
ENDBRANCH   8   9
ENDBRANCH   1   8
BRANCH   4  19
ATOM     19  O   UNL     1       0.836  10.546  18.559  0.00  0.00    +0.000 OA
BRANCH  19  20
ATOM     20  C   UNL     1      -0.525  10.649  18.371  0.00  0.00    +0.000 A 
ATOM     21  C   UNL     1      -1.162  11.673  19.076  0.00  0.00    +0.000 A 
ATOM     22  C   UNL     1      -2.541  11.855  18.956  0.00  0.00    +0.000 A 
ATOM     23  C   UNL     1      -3.286  11.013  18.131  0.00  0.00    +0.000 A 
ATOM     24  C   UNL     1      -2.649  10.014  17.399  0.00  0.00    +0.000 A 
ATOM     25  C   UNL     1      -1.266   9.850  17.494  0.00  0.00    +0.000 A 
ENDBRANCH  19  20
ENDBRANCH   4  19
TORSDOF 7
ENDMDL
MODEL 3
REMARK VINA RESULT:      -7.9      1.649      2.226
REMARK  Name = 
REMARK  7 active torsions:
REMARK  status: ('A' for Active; 'I' for Inactive)
REMARK    1  A    between atoms: C_2  and  C_3
REMARK    2  A    between atoms: C_2  and  C_12
REMARK    3  A    between atoms: C_3  and  C_4
REMARK    4  A    between atoms: C_4  and  C_6
REMARK    5  A    between atoms: C_8  and  O_9
REMARK    6  A    between atoms: C_15  and  O_16
REMARK    7  A    between atoms: O_16  and  C_17
REMARK                            x       y       z     vdW  Elec       q    Type
REMARK                         _______ _______ _______ _____ _____    ______ ____
ROOT
ATOM      1  C   UNL     1       2.410   6.487  19.377  0.00  0.00    +0.000 A 
ATOM      2  C   UNL     1       2.586   7.076  18.119  0.00  0.00    +0.000 A 
ATOM      3  C   UNL     1       2.132   8.380  17.892  0.00  0.00    +0.000 A 
ATOM      4  C   UNL     1       1.502   9.098  18.912  0.00  0.00    +0.000 A 
ATOM      5  C   UNL     1       1.394   8.536  20.185  0.00  0.00    +0.000 A 
ATOM      6  C   UNL     1       1.824   7.228  20.411  0.00  0.00    +0.000 A 
ENDROOT
BRANCH   1   8
ATOM      7  O   UNL     1       2.684   4.648  20.817  0.00  0.00    +0.000 OA
ATOM      8  C   UNL     1       2.848   5.095  19.682  0.00  0.00    +0.000 C 
BRANCH   8   9
ATOM      9  C   UNL     1       3.507   4.265  18.615  0.00  0.00    +0.000 C 
BRANCH   9  10
ATOM     10  C   UNL     1       4.979   4.001  18.832  0.00  0.00    +0.000 C 
ATOM     11  O   UNL     1       5.385   3.156  19.630  0.00  0.00    +0.000 OA
BRANCH  10  12
ATOM     12  C   UNL     1       5.882   4.793  18.033  0.00  0.00    +0.000 A 
ATOM     13  C   UNL     1       6.186   6.136  18.041  0.00  0.00    +0.000 A 
ATOM     14  C   UNL     1       7.166   6.252  17.049  0.00  0.00    +0.000 A 
ATOM     15  N   UNL     1       7.450   5.100  16.454  0.00  0.00    +0.000 NA
ATOM     16  O   UNL     1       6.632   4.172  17.075  0.00  0.00    +0.000 OA
BRANCH  14  17
ATOM     17  O   UNL     1       7.839   7.331  16.644  0.00  0.00    +0.000 OA
ATOM     18  H   UNL     1       7.276   8.119  16.711  0.00  0.00    +0.000 HD
ENDBRANCH  14  17
ENDBRANCH  10  12
ENDBRANCH   9  10
ENDBRANCH   8   9
ENDBRANCH   1   8
BRANCH   4  19
ATOM     19  O   UNL     1       1.081  10.367  18.586  0.00  0.00    +0.000 OA
BRANCH  19  20
ATOM     20  C   UNL     1      -0.266  10.637  18.487  0.00  0.00    +0.000 A 
ATOM     21  C   UNL     1      -0.734  11.700  19.265  0.00  0.00    +0.000 A 
ATOM     22  C   UNL     1      -2.085  12.048  19.237  0.00  0.00    +0.000 A 
ATOM     23  C   UNL     1      -2.973  11.335  18.431  0.00  0.00    +0.000 A 
ATOM     24  C   UNL     1      -2.503  10.299  17.626  0.00  0.00    +0.000 A 
ATOM     25  C   UNL     1      -1.147   9.969  17.630  0.00  0.00    +0.000 A 
ENDBRANCH  19  20
ENDBRANCH   4  19
TORSDOF 7
ENDMDL
MODEL 4
REMARK VINA RESULT:      -7.9      2.875      4.221
REMARK  Name = 
REMARK  7 active torsions:
REMARK  status: ('A' for Active; 'I' for Inactive)
REMARK    1  A    between atoms: C_2  and  C_3
REMARK    2  A    between atoms: C_2  and  C_12
REMARK    3  A    between atoms: C_3  and  C_4
REMARK    4  A    between atoms: C_4  and  C_6
REMARK    5  A    between atoms: C_8  and  O_9
REMARK    6  A    between atoms: C_15  and  O_16
REMARK    7  A    between atoms: O_16  and  C_17
REMARK                            x       y       z     vdW  Elec       q    Type
REMARK                         _______ _______ _______ _____ _____    ______ ____
ROOT
ATOM      1  C   UNL     1       2.763   7.149  18.838  0.00  0.00    +0.000 A 
ATOM      2  C   UNL     1       2.017   7.440  19.985  0.00  0.00    +0.000 A 
ATOM      3  C   UNL     1       1.243   8.605  20.035  0.00  0.00    +0.000 A 
ATOM      4  C   UNL     1       1.211   9.481  18.947  0.00  0.00    +0.000 A 
ATOM      5  C   UNL     1       1.898   9.152  17.777  0.00  0.00    +0.000 A 
ATOM      6  C   UNL     1       2.690   8.004  17.731  0.00  0.00    +0.000 A 
ENDROOT
BRANCH   1   8
ATOM      7  O   UNL     1       4.563   5.793  19.512  0.00  0.00    +0.000 OA
ATOM      8  C   UNL     1       3.628   5.939  18.725  0.00  0.00    +0.000 C 
BRANCH   8   9
ATOM      9  C   UNL     1       3.369   4.931  17.640  0.00  0.00    +0.000 C 
BRANCH   9  10
ATOM     10  C   UNL     1       2.254   3.954  17.931  0.00  0.00    +0.000 C 
ATOM     11  O   UNL     1       1.462   3.583  17.064  0.00  0.00    +0.000 OA
BRANCH  10  12
ATOM     12  C   UNL     1       2.182   3.471  19.288  0.00  0.00    +0.000 A 
ATOM     13  C   UNL     1       1.230   3.619  20.272  0.00  0.00    +0.000 A 
ATOM     14  C   UNL     1       1.745   2.871  21.336  0.00  0.00    +0.000 A 
ATOM     15  N   UNL     1       2.918   2.312  21.067  0.00  0.00    +0.000 NA
ATOM     16  O   UNL     1       3.200   2.695  19.766  0.00  0.00    +0.000 OA
BRANCH  14  17
ATOM     17  O   UNL     1       1.223   2.644  22.544  0.00  0.00    +0.000 OA
ATOM     18  H   UNL     1       0.798   3.449  22.880  0.00  0.00    +0.000 HD
ENDBRANCH  14  17
ENDBRANCH  10  12
ENDBRANCH   9  10
ENDBRANCH   8   9
ENDBRANCH   1   8
BRANCH   4  19
ATOM     19  O   UNL     1       0.430  10.604  19.098  0.00  0.00    +0.000 OA
BRANCH  19  20
ATOM     20  C   UNL     1      -0.849  10.622  18.587  0.00  0.00    +0.000 A 
ATOM     21  C   UNL     1      -1.741  11.501  19.207  0.00  0.00    +0.000 A 
ATOM     22  C   UNL     1      -3.062  11.589  18.765  0.00  0.00    +0.000 A 
ATOM     23  C   UNL     1      -3.495  10.797  17.703  0.00  0.00    +0.000 A 
ATOM     24  C   UNL     1      -2.600   9.945  17.058  0.00  0.00    +0.000 A 
ATOM     25  C   UNL     1      -1.271   9.879  17.480  0.00  0.00    +0.000 A 
ENDBRANCH  19  20
ENDBRANCH   4  19
TORSDOF 7
ENDMDL
MODEL 5
REMARK VINA RESULT:      -7.8      1.272      1.727
REMARK  Name = 
REMARK  7 active torsions:
REMARK  status: ('A' for Active; 'I' for Inactive)
REMARK    1  A    between atoms: C_2  and  C_3
REMARK    2  A    between atoms: C_2  and  C_12
REMARK    3  A    between atoms: C_3  and  C_4
REMARK    4  A    between atoms: C_4  and  C_6
REMARK    5  A    between atoms: C_8  and  O_9
REMARK    6  A    between atoms: C_15  and  O_16
REMARK    7  A    between atoms: O_16  and  C_17
REMARK                            x       y       z     vdW  Elec       q    Type
REMARK                         _______ _______ _______ _____ _____    ______ ____
ROOT
ATOM      1  C   UNL     1       2.445   7.014  18.952  0.00  0.00    +0.000 A 
ATOM      2  C   UNL     1       2.446   7.816  17.805  0.00  0.00    +0.000 A 
ATOM      3  C   UNL     1       1.842   9.077  17.838  0.00  0.00    +0.000 A 
ATOM      4  C   UNL     1       1.235   9.541  19.008  0.00  0.00    +0.000 A 
ATOM      5  C   UNL     1       1.299   8.770  20.170  0.00  0.00    +0.000 A 
ATOM      6  C   UNL     1       1.880   7.502  20.137  0.00  0.00    +0.000 A 
ENDROOT
BRANCH   1   8
ATOM      7  O   UNL     1       3.727   5.314  19.952  0.00  0.00    +0.000 OA
ATOM      8  C   UNL     1       3.049   5.650  18.981  0.00  0.00    +0.000 C 
BRANCH   8   9
ATOM      9  C   UNL     1       2.850   4.716  17.820  0.00  0.00    +0.000 C 
BRANCH   9  10
ATOM     10  C   UNL     1       4.063   3.896  17.448  0.00  0.00    +0.000 C 
ATOM     11  O   UNL     1       4.234   2.749  17.863  0.00  0.00    +0.000 OA
BRANCH  10  12
ATOM     12  C   UNL     1       5.004   4.535  16.561  0.00  0.00    +0.000 A 
ATOM     13  C   UNL     1       6.123   4.067  15.908  0.00  0.00    +0.000 A 
ATOM     14  C   UNL     1       6.559   5.177  15.177  0.00  0.00    +0.000 A 
ATOM     15  N   UNL     1       5.805   6.255  15.357  0.00  0.00    +0.000 NA
ATOM     16  O   UNL     1       4.818   5.850  16.239  0.00  0.00    +0.000 OA
BRANCH  14  17
ATOM     17  O   UNL     1       7.594   5.289  14.342  0.00  0.00    +0.000 OA
ATOM     18  H   UNL     1       8.418   5.055  14.799  0.00  0.00    +0.000 HD
ENDBRANCH  14  17
ENDBRANCH  10  12
ENDBRANCH   9  10
ENDBRANCH   8   9
ENDBRANCH   1   8
BRANCH   4  19
ATOM     19  O   UNL     1       0.658  10.788  18.936  0.00  0.00    +0.000 OA
BRANCH  19  20
ATOM     20  C   UNL     1      -0.688  10.906  18.663  0.00  0.00    +0.000 A 
ATOM     21  C   UNL     1      -1.370  11.894  19.378  0.00  0.00    +0.000 A 
ATOM     22  C   UNL     1      -2.738  12.087  19.177  0.00  0.00    +0.000 A 
ATOM     23  C   UNL     1      -3.426  11.293  18.260  0.00  0.00    +0.000 A 
ATOM     24  C   UNL     1      -2.742  10.333  17.518  0.00  0.00    +0.000 A 
ATOM     25  C   UNL     1      -1.368  10.159  17.697  0.00  0.00    +0.000 A 
ENDBRANCH  19  20
ENDBRANCH   4  19
TORSDOF 7
ENDMDL
MODEL 6
REMARK VINA RESULT:      -7.8      4.252      7.905
REMARK  Name = 
REMARK  7 active torsions:
REMARK  status: ('A' for Active; 'I' for Inactive)
REMARK    1  A    between atoms: C_2  and  C_3
REMARK    2  A    between atoms: C_2  and  C_12
REMARK    3  A    between atoms: C_3  and  C_4
REMARK    4  A    between atoms: C_4  and  C_6
REMARK    5  A    between atoms: C_8  and  O_9
REMARK    6  A    between atoms: C_15  and  O_16
REMARK    7  A    between atoms: O_16  and  C_17
REMARK                            x       y       z     vdW  Elec       q    Type
REMARK                         _______ _______ _______ _____ _____    ______ ____
ROOT
ATOM      1  C   UNL     1       4.096   6.035  17.999  0.00  0.00    +0.000 A 
ATOM      2  C   UNL     1       4.171   6.685  16.763  0.00  0.00    +0.000 A 
ATOM      3  C   UNL     1       5.294   6.502  15.948  0.00  0.00    +0.000 A 
ATOM      4  C   UNL     1       6.342   5.675  16.362  0.00  0.00    +0.000 A 
ATOM      5  C   UNL     1       6.231   4.971  17.562  0.00  0.00    +0.000 A 
ATOM      6  C   UNL     1       5.125   5.168  18.389  0.00  0.00    +0.000 A 
ENDROOT
BRANCH   1   8
ATOM      7  O   UNL     1       3.042   6.977  19.879  0.00  0.00    +0.000 OA
ATOM      8  C   UNL     1       2.941   6.203  18.928  0.00  0.00    +0.000 C 
BRANCH   8   9
ATOM      9  C   UNL     1       1.682   5.408  18.712  0.00  0.00    +0.000 C 
BRANCH   9  10
ATOM     10  C   UNL     1       1.511   4.224  19.634  0.00  0.00    +0.000 C 
ATOM     11  O   UNL     1       0.605   4.164  20.465  0.00  0.00    +0.000 OA
BRANCH  10  12
ATOM     12  C   UNL     1       2.469   3.158  19.470  0.00  0.00    +0.000 A 
ATOM     13  C   UNL     1       2.620   2.193  18.499  0.00  0.00    +0.000 A 
ATOM     14  C   UNL     1       3.764   1.500  18.907  0.00  0.00    +0.000 A 
ATOM     15  N   UNL     1       4.286   1.963  20.036  0.00  0.00    +0.000 NA
ATOM     16  O   UNL     1       3.462   3.016  20.398  0.00  0.00    +0.000 OA
BRANCH  14  17
ATOM     17  O   UNL     1       4.386   0.472  18.324  0.00  0.00    +0.000 OA
ATOM     18  H   UNL     1       3.735  -0.136  17.940  0.00  0.00    +0.000 HD
ENDBRANCH  14  17
ENDBRANCH  10  12
ENDBRANCH   9  10
ENDBRANCH   8   9
ENDBRANCH   1   8
BRANCH   4  19
ATOM     19  O   UNL     1       7.406   5.569  15.496  0.00  0.00    +0.000 OA
BRANCH  19  20
ATOM     20  C   UNL     1       7.223   5.007  14.251  0.00  0.00    +0.000 A 
ATOM     21  C   UNL     1       6.289   3.970  14.182  0.00  0.00    +0.000 A 
ATOM     22  C   UNL     1       6.037   3.334  12.966  0.00  0.00    +0.000 A 
ATOM     23  C   UNL     1       6.718   3.732  11.816  0.00  0.00    +0.000 A 
ATOM     24  C   UNL     1       7.623   4.789  11.874  0.00  0.00    +0.000 A 
ATOM     25  C   UNL     1       7.854   5.447  13.084  0.00  0.00    +0.000 A 
ENDBRANCH  19  20
ENDBRANCH   4  19
TORSDOF 7
ENDMDL
MODEL 7
REMARK VINA RESULT:      -7.7      2.254      3.143
REMARK  Name = 
REMARK  7 active torsions:
REMARK  status: ('A' for Active; 'I' for Inactive)
REMARK    1  A    between atoms: C_2  and  C_3
REMARK    2  A    between atoms: C_2  and  C_12
REMARK    3  A    between atoms: C_3  and  C_4
REMARK    4  A    between atoms: C_4  and  C_6
REMARK    5  A    between atoms: C_8  and  O_9
REMARK    6  A    between atoms: C_15  and  O_16
REMARK    7  A    between atoms: O_16  and  C_17
REMARK                            x       y       z     vdW  Elec       q    Type
REMARK                         _______ _______ _______ _____ _____    ______ ____
ROOT
ATOM      1  C   UNL     1       2.399   7.130  18.932  0.00  0.00    +0.000 A 
ATOM      2  C   UNL     1       1.868   7.628  20.127  0.00  0.00    +0.000 A 
ATOM      3  C   UNL     1       1.302   8.907  20.158  0.00  0.00    +0.000 A 
ATOM      4  C   UNL     1       1.264   9.692  19.003  0.00  0.00    +0.000 A 
ATOM      5  C   UNL     1       1.728   9.166  17.796  0.00  0.00    +0.000 A 
ATOM      6  C   UNL     1       2.314   7.900  17.765  0.00  0.00    +0.000 A 
ENDROOT
BRANCH   1   8
ATOM      7  O   UNL     1       2.464   4.893  18.210  0.00  0.00    +0.000 OA
ATOM      8  C   UNL     1       3.038   5.787  18.832  0.00  0.00    +0.000 C 
BRANCH   8   9
ATOM      9  C   UNL     1       4.354   5.529  19.513  0.00  0.00    +0.000 C 
BRANCH   9  10
ATOM     10  C   UNL     1       5.084   4.294  19.041  0.00  0.00    +0.000 C 
ATOM     11  O   UNL     1       4.922   3.193  19.569  0.00  0.00    +0.000 OA
BRANCH  10  12
ATOM     12  C   UNL     1       5.975   4.481  17.922  0.00  0.00    +0.000 A 
ATOM     13  C   UNL     1       5.747   4.821  16.607  0.00  0.00    +0.000 A 
ATOM     14  C   UNL     1       7.033   4.876  16.060  0.00  0.00    +0.000 A 
ATOM     15  N   UNL     1       7.989   4.584  16.933  0.00  0.00    +0.000 NA
ATOM     16  O   UNL     1       7.318   4.328  18.117  0.00  0.00    +0.000 OA
BRANCH  14  17
ATOM     17  O   UNL     1       7.414   5.185  14.818  0.00  0.00    +0.000 OA
ATOM     18  H   UNL     1       7.365   4.399  14.250  0.00  0.00    +0.000 HD
ENDBRANCH  14  17
ENDBRANCH  10  12
ENDBRANCH   9  10
ENDBRANCH   8   9
ENDBRANCH   1   8
BRANCH   4  19
ATOM     19  O   UNL     1       0.698  10.939  19.139  0.00  0.00    +0.000 OA
BRANCH  19  20
ATOM     20  C   UNL     1       1.501  12.034  19.377  0.00  0.00    +0.000 A 
ATOM     21  C   UNL     1       2.177  12.547  18.267  0.00  0.00    +0.000 A 
ATOM     22  C   UNL     1       3.019  13.652  18.408  0.00  0.00    +0.000 A 
ATOM     23  C   UNL     1       3.186  14.246  19.658  0.00  0.00    +0.000 A 
ATOM     24  C   UNL     1       2.485  13.760  20.760  0.00  0.00    +0.000 A 
ATOM     25  C   UNL     1       1.620  12.674  20.614  0.00  0.00    +0.000 A 
ENDBRANCH  19  20
ENDBRANCH   4  19
TORSDOF 7
ENDMDL
MODEL 8
REMARK VINA RESULT:      -7.7      4.516      9.164
REMARK  Name = 
REMARK  7 active torsions:
REMARK  status: ('A' for Active; 'I' for Inactive)
REMARK    1  A    between atoms: C_2  and  C_3
REMARK    2  A    between atoms: C_2  and  C_12
REMARK    3  A    between atoms: C_3  and  C_4
REMARK    4  A    between atoms: C_4  and  C_6
REMARK    5  A    between atoms: C_8  and  O_9
REMARK    6  A    between atoms: C_15  and  O_16
REMARK    7  A    between atoms: O_16  and  C_17
REMARK                            x       y       z     vdW  Elec       q    Type
REMARK                         _______ _______ _______ _____ _____    ______ ____
ROOT
ATOM      1  C   UNL     1       0.251   9.992  19.622  0.00  0.00    +0.000 A 
ATOM      2  C   UNL     1       0.351   9.228  20.791  0.00  0.00    +0.000 A 
ATOM      3  C   UNL     1       1.194   8.112  20.823  0.00  0.00    +0.000 A 
ATOM      4  C   UNL     1       1.935   7.753  19.693  0.00  0.00    +0.000 A 
ATOM      5  C   UNL     1       1.889   8.557  18.554  0.00  0.00    +0.000 A 
ATOM      6  C   UNL     1       1.033   9.658  18.509  0.00  0.00    +0.000 A 
ENDROOT
BRANCH   1   8
ATOM      7  O   UNL     1      -1.005  11.759  20.535  0.00  0.00    +0.000 OA
ATOM      8  C   UNL     1      -0.645  11.179  19.511  0.00  0.00    +0.000 C 
BRANCH   8   9
ATOM      9  C   UNL     1      -1.120  11.636  18.159  0.00  0.00    +0.000 C 
BRANCH   9  10
ATOM     10  C   UNL     1      -2.207  10.784  17.545  0.00  0.00    +0.000 C 
ATOM     11  O   UNL     1      -1.972   9.692  17.028  0.00  0.00    +0.000 OA
BRANCH  10  12
ATOM     12  C   UNL     1      -3.542  11.326  17.615  0.00  0.00    +0.000 A 
ATOM     13  C   UNL     1      -4.564  11.385  16.693  0.00  0.00    +0.000 A 
ATOM     14  C   UNL     1      -5.603  11.996  17.402  0.00  0.00    +0.000 A 
ATOM     15  N   UNL     1      -5.276  12.311  18.649  0.00  0.00    +0.000 NA
ATOM     16  O   UNL     1      -3.964  11.890  18.785  0.00  0.00    +0.000 OA
BRANCH  14  17
ATOM     17  O   UNL     1      -6.845  12.284  17.006  0.00  0.00    +0.000 OA
ATOM     18  H   UNL     1      -7.042  13.218  17.180  0.00  0.00    +0.000 HD
ENDBRANCH  14  17
ENDBRANCH  10  12
ENDBRANCH   9  10
ENDBRANCH   8   9
ENDBRANCH   1   8
BRANCH   4  19
ATOM     19  O   UNL     1       2.725   6.633  19.821  0.00  0.00    +0.000 OA
BRANCH  19  20
ATOM     20  C   UNL     1       2.199   5.389  19.550  0.00  0.00    +0.000 A 
ATOM     21  C   UNL     1       1.717   4.678  20.652  0.00  0.00    +0.000 A 
ATOM     22  C   UNL     1       1.169   3.406  20.481  0.00  0.00    +0.000 A 
ATOM     23  C   UNL     1       1.101   2.841  19.208  0.00  0.00    +0.000 A 
ATOM     24  C   UNL     1       1.547   3.562  18.102  0.00  0.00    +0.000 A 
ATOM     25  C   UNL     1       2.068   4.846  18.268  0.00  0.00    +0.000 A 
ENDBRANCH  19  20
ENDBRANCH   4  19
TORSDOF 7
ENDMDL
MODEL 9
REMARK VINA RESULT:      -7.7      1.996      3.214
REMARK  Name = 
REMARK  7 active torsions:
REMARK  status: ('A' for Active; 'I' for Inactive)
REMARK    1  A    between atoms: C_2  and  C_3
REMARK    2  A    between atoms: C_2  and  C_12
REMARK    3  A    between atoms: C_3  and  C_4
REMARK    4  A    between atoms: C_4  and  C_6
REMARK    5  A    between atoms: C_8  and  O_9
REMARK    6  A    between atoms: C_15  and  O_16
REMARK    7  A    between atoms: O_16  and  C_17
REMARK                            x       y       z     vdW  Elec       q    Type
REMARK                         _______ _______ _______ _____ _____    ______ ____
ROOT
ATOM      1  C   UNL     1       2.399   5.551  18.635  0.00  0.00    +0.000 A 
ATOM      2  C   UNL     1       2.585   6.787  18.006  0.00  0.00    +0.000 A 
ATOM      3  C   UNL     1       2.272   7.968  18.688  0.00  0.00    +0.000 A 
ATOM      4  C   UNL     1       1.772   7.921  19.992  0.00  0.00    +0.000 A 
ATOM      5  C   UNL     1       1.656   6.691  20.642  0.00  0.00    +0.000 A 
ATOM      6  C   UNL     1       1.946   5.510  19.959  0.00  0.00    +0.000 A 
ENDROOT
BRANCH   1   8
ATOM      7  O   UNL     1       1.796   3.691  17.327  0.00  0.00    +0.000 OA
ATOM      8  C   UNL     1       2.690   4.253  17.960  0.00  0.00    +0.000 C 
BRANCH   8   9
ATOM      9  C   UNL     1       4.054   3.632  18.083  0.00  0.00    +0.000 C 
BRANCH   9  10
ATOM     10  C   UNL     1       5.111   4.235  17.187  0.00  0.00    +0.000 C 
ATOM     11  O   UNL     1       5.073   4.128  15.961  0.00  0.00    +0.000 OA
BRANCH  10  12
ATOM     12  C   UNL     1       6.163   4.960  17.859  0.00  0.00    +0.000 A 
ATOM     13  C   UNL     1       6.772   6.165  17.589  0.00  0.00    +0.000 A 
ATOM     14  C   UNL     1       7.678   6.312  18.644  0.00  0.00    +0.000 A 
ATOM     15  N   UNL     1       7.664   5.295  19.496  0.00  0.00    +0.000 NA
ATOM     16  O   UNL     1       6.703   4.431  18.997  0.00  0.00    +0.000 OA
BRANCH  14  17
ATOM     17  O   UNL     1       8.521   7.314  18.904  0.00  0.00    +0.000 OA
ATOM     18  H   UNL     1       9.337   6.969  19.301  0.00  0.00    +0.000 HD
ENDBRANCH  14  17
ENDBRANCH  10  12
ENDBRANCH   9  10
ENDBRANCH   8   9
ENDBRANCH   1   8
BRANCH   4  19
ATOM     19  O   UNL     1       1.483   9.135  20.572  0.00  0.00    +0.000 OA
BRANCH  19  20
ATOM     20  C   UNL     1       0.745  10.068  19.877  0.00  0.00    +0.000 A 
ATOM     21  C   UNL     1      -0.582   9.721  19.611  0.00  0.00    +0.000 A 
ATOM     22  C   UNL     1      -1.409  10.597  18.908  0.00  0.00    +0.000 A 
ATOM     23  C   UNL     1      -0.912  11.824  18.468  0.00  0.00    +0.000 A 
ATOM     24  C   UNL     1       0.399  12.189  18.763  0.00  0.00    +0.000 A 
ATOM     25  C   UNL     1       1.219  11.326  19.493  0.00  0.00    +0.000 A 
ENDBRANCH  19  20
ENDBRANCH   4  19
TORSDOF 7
ENDMDL
