MODEL 1
REMARK VINA RESULT:      -7.2      0.000      0.000
REMARK  Name = 
REMARK  5 active torsions:
REMARK  status: ('A' for Active; 'I' for Inactive)
REMARK    1  A    between atoms: C_2  and  C_3
REMARK    2  A    between atoms: C_3  and  O_4
REMARK    3  A    between atoms: O_4  and  C_5
REMARK    4  A    between atoms: C_12  and  C_13
REMARK    5  A    between atoms: C_13  and  C_14
REMARK                            x       y       z     vdW  Elec       q    Type
REMARK                         _______ _______ _______ _____ _____    ______ ____
ROOT
ATOM      1  C   UNL     1       5.267   4.141  16.528  0.00  0.00    +0.000 A 
ATOM      2  N   UNL     1       4.887   5.371  16.497  0.00  0.00    +0.000 NA
ATOM      3  C   UNL     1       4.042   5.792  17.504  0.00  0.00    +0.000 A 
ATOM      4  O   UNL     1       3.574   7.123  17.349  0.00  0.00    +0.000 OA
ATOM      5  C   UNL     1       2.758   7.711  18.263  0.00  0.00    +0.000 A 
ATOM      6  O   UNL     1       2.348   8.859  18.150  0.00  0.00    +0.000 OA
ATOM      7  C   UNL     1       2.364   6.896  19.418  0.00  0.00    +0.000 A 
ATOM      8  C   UNL     1       2.785   5.630  19.587  0.00  0.00    +0.000 A 
ATOM      9  C   UNL     1       3.669   5.054  18.573  0.00  0.00    +0.000 A 
ATOM     10  C   UNL     1       4.223   3.668  18.613  0.00  0.00    +0.000 A 
ATOM     11  O   UNL     1       4.118   2.926  19.579  0.00  0.00    +0.000 OA
ATOM     12  N   UNL     1       4.897   3.268  17.495  0.00  0.00    +0.000 N 
ATOM     13  H   UNL     1       5.301   2.344  17.489  0.00  0.00    +0.000 HD
ENDROOT
BRANCH   8  14
ATOM     14  C   UNL     1       2.256   4.854  20.778  0.00  0.00    +0.000 C 
ATOM     15  C   UNL     1       0.972   4.081  20.495  0.00  0.00    +0.000 C 
ENDBRANCH   8  14
BRANCH   1  16
ATOM     16  O   UNL     1       6.092   3.573  15.617  0.00  0.00    +0.000 OA
BRANCH  16  17
ATOM     17  C   UNL     1       6.527   4.392  14.511  0.00  0.00    +0.000 C 
BRANCH  17  19
ATOM     18  C   UNL     1       5.806   3.119  12.096  0.00  0.00    +0.000 C 
ATOM     19  C   UNL     1       6.140   3.706  13.211  0.00  0.00    +0.000 C 
ENDBRANCH  17  19
ENDBRANCH  16  17
ENDBRANCH   1  16
TORSDOF 4
ENDMDL
MODEL 2
REMARK VINA RESULT:      -7.2      1.149      1.384
REMARK  Name = 
REMARK  5 active torsions:
REMARK  status: ('A' for Active; 'I' for Inactive)
REMARK    1  A    between atoms: C_2  and  C_3
REMARK    2  A    between atoms: C_3  and  O_4
REMARK    3  A    between atoms: O_4  and  C_5
REMARK    4  A    between atoms: C_12  and  C_13
REMARK    5  A    between atoms: C_13  and  C_14
REMARK                            x       y       z     vdW  Elec       q    Type
REMARK                         _______ _______ _______ _____ _____    ______ ____
ROOT
ATOM      1  C   UNL     1       5.100   3.956  16.740  0.00  0.00    +0.000 A 
ATOM      2  N   UNL     1       4.793   5.089  17.269  0.00  0.00    +0.000 NA
ATOM      3  C   UNL     1       3.779   5.091  18.204  0.00  0.00    +0.000 A 
ATOM      4  O   UNL     1       3.417   6.384  18.665  0.00  0.00    +0.000 OA
ATOM      5  C   UNL     1       2.457   6.570  19.609  0.00  0.00    +0.000 A 
ATOM      6  O   UNL     1       2.134   7.676  20.023  0.00  0.00    +0.000 OA
ATOM      7  C   UNL     1       1.793   5.366  20.123  0.00  0.00    +0.000 A 
ATOM      8  C   UNL     1       2.109   4.129  19.700  0.00  0.00    +0.000 A 
ATOM      9  C   UNL     1       3.157   3.992  18.687  0.00  0.00    +0.000 A 
ATOM     10  C   UNL     1       3.625   2.694  18.115  0.00  0.00    +0.000 A 
ATOM     11  O   UNL     1       3.285   1.604  18.551  0.00  0.00    +0.000 OA
ATOM     12  N   UNL     1       4.497   2.789  17.069  0.00  0.00    +0.000 N 
ATOM     13  H   UNL     1       4.849   1.935  16.666  0.00  0.00    +0.000 HD
ENDROOT
BRANCH   8  14
ATOM     14  C   UNL     1       1.309   2.962  20.243  0.00  0.00    +0.000 C 
ATOM     15  C   UNL     1       1.595   2.639  21.706  0.00  0.00    +0.000 C 
ENDBRANCH   8  14
BRANCH   1  16
ATOM     16  O   UNL     1       6.069   3.785  15.810  0.00  0.00    +0.000 OA
BRANCH  16  17
ATOM     17  C   UNL     1       6.093   4.701  14.696  0.00  0.00    +0.000 C 
BRANCH  17  19
ATOM     18  C   UNL     1       5.892   3.224  12.298  0.00  0.00    +0.000 C 
ATOM     19  C   UNL     1       5.985   3.907  13.405  0.00  0.00    +0.000 C 
ENDBRANCH  17  19
ENDBRANCH  16  17
ENDBRANCH   1  16
TORSDOF 4
ENDMDL
MODEL 3
REMARK VINA RESULT:      -7.0      3.017      3.419
REMARK  Name = 
REMARK  5 active torsions:
REMARK  status: ('A' for Active; 'I' for Inactive)
REMARK    1  A    between atoms: C_2  and  C_3
REMARK    2  A    between atoms: C_3  and  O_4
REMARK    3  A    between atoms: O_4  and  C_5
REMARK    4  A    between atoms: C_12  and  C_13
REMARK    5  A    between atoms: C_13  and  C_14
REMARK                            x       y       z     vdW  Elec       q    Type
REMARK                         _______ _______ _______ _____ _____    ______ ____
ROOT
ATOM      1  C   UNL     1       5.890   4.636  18.814  0.00  0.00    +0.000 A 
ATOM      2  N   UNL     1       5.176   5.603  19.274  0.00  0.00    +0.000 NA
ATOM      3  C   UNL     1       3.885   5.302  19.658  0.00  0.00    +0.000 A 
ATOM      4  O   UNL     1       3.118   6.430  20.050  0.00  0.00    +0.000 OA
ATOM      5  C   UNL     1       1.836   6.315  20.486  0.00  0.00    +0.000 A 
ATOM      6  O   UNL     1       1.161   7.275  20.833  0.00  0.00    +0.000 OA
ATOM      7  C   UNL     1       1.268   4.962  20.516  0.00  0.00    +0.000 A 
ATOM      8  C   UNL     1       1.967   3.875  20.142  0.00  0.00    +0.000 A 
ATOM      9  C   UNL     1       3.347   4.062  19.690  0.00  0.00    +0.000 A 
ATOM     10  C   UNL     1       4.254   2.964  19.244  0.00  0.00    +0.000 A 
ATOM     11  O   UNL     1       3.985   1.777  19.361  0.00  0.00    +0.000 OA
ATOM     12  N   UNL     1       5.446   3.361  18.710  0.00  0.00    +0.000 N 
ATOM     13  H   UNL     1       6.094   2.649  18.413  0.00  0.00    +0.000 HD
ENDROOT
BRANCH   8  14
ATOM     14  C   UNL     1       1.259   2.535  20.141  0.00  0.00    +0.000 C 
ATOM     15  C   UNL     1       0.593   2.185  18.814  0.00  0.00    +0.000 C 
ENDBRANCH   8  14
BRANCH   1  16
ATOM     16  O   UNL     1       7.172   4.765  18.396  0.00  0.00    +0.000 OA
BRANCH  16  17
ATOM     17  C   UNL     1       7.991   5.753  19.056  0.00  0.00    +0.000 C 
BRANCH  17  19
ATOM     18  C   UNL     1       7.852   8.170  17.602  0.00  0.00    +0.000 C 
ATOM     19  C   UNL     1       7.916   7.053  18.274  0.00  0.00    +0.000 C 
ENDBRANCH  17  19
ENDBRANCH  16  17
ENDBRANCH   1  16
TORSDOF 4
ENDMDL
MODEL 4
REMARK VINA RESULT:      -7.0      1.356      1.557
REMARK  Name = 
REMARK  5 active torsions:
REMARK  status: ('A' for Active; 'I' for Inactive)
REMARK    1  A    between atoms: C_2  and  C_3
REMARK    2  A    between atoms: C_3  and  O_4
REMARK    3  A    between atoms: O_4  and  C_5
REMARK    4  A    between atoms: C_12  and  C_13
REMARK    5  A    between atoms: C_13  and  C_14
REMARK                            x       y       z     vdW  Elec       q    Type
REMARK                         _______ _______ _______ _____ _____    ______ ____
ROOT
ATOM      1  C   UNL     1       5.951   4.714  17.904  0.00  0.00    +0.000 A 
ATOM      2  N   UNL     1       5.277   5.799  18.067  0.00  0.00    +0.000 NA
ATOM      3  C   UNL     1       4.171   5.733  18.890  0.00  0.00    +0.000 A 
ATOM      4  O   UNL     1       3.412   6.931  18.939  0.00  0.00    +0.000 OA
ATOM      5  C   UNL     1       2.309   7.055  19.722  0.00  0.00    +0.000 A 
ATOM      6  O   UNL     1       1.644   8.081  19.781  0.00  0.00    +0.000 OA
ATOM      7  C   UNL     1       1.921   5.877  20.508  0.00  0.00    +0.000 A 
ATOM      8  C   UNL     1       2.617   4.726  20.476  0.00  0.00    +0.000 A 
ATOM      9  C   UNL     1       3.802   4.657  19.620  0.00  0.00    +0.000 A 
ATOM     10  C   UNL     1       4.679   3.458  19.473  0.00  0.00    +0.000 A 
ATOM     11  O   UNL     1       4.583   2.461  20.175  0.00  0.00    +0.000 OA
ATOM     12  N   UNL     1       5.639   3.542  18.507  0.00  0.00    +0.000 N 
ATOM     13  H   UNL     1       6.263   2.759  18.388  0.00  0.00    +0.000 HD
ENDROOT
BRANCH   8  14
ATOM     14  C   UNL     1       2.086   3.549  21.270  0.00  0.00    +0.000 C 
ATOM     15  C   UNL     1       1.084   2.686  20.508  0.00  0.00    +0.000 C 
ENDBRANCH   8  14
BRANCH   1  16
ATOM     16  O   UNL     1       7.058   4.611  17.131  0.00  0.00    +0.000 OA
BRANCH  16  17
ATOM     17  C   UNL     1       7.090   5.378  15.909  0.00  0.00    +0.000 C 
BRANCH  17  19
ATOM     18  C   UNL     1       5.975   3.828  13.829  0.00  0.00    +0.000 C 
ATOM     19  C   UNL     1       6.491   4.543  14.790  0.00  0.00    +0.000 C 
ENDBRANCH  17  19
ENDBRANCH  16  17
ENDBRANCH   1  16
TORSDOF 4
ENDMDL
MODEL 5
REMARK VINA RESULT:      -6.9      2.393      5.698
REMARK  Name = 
REMARK  5 active torsions:
REMARK  status: ('A' for Active; 'I' for Inactive)
REMARK    1  A    between atoms: C_2  and  C_3
REMARK    2  A    between atoms: C_3  and  O_4
REMARK    3  A    between atoms: O_4  and  C_5
REMARK    4  A    between atoms: C_12  and  C_13
REMARK    5  A    between atoms: C_13  and  C_14
REMARK                            x       y       z     vdW  Elec       q    Type
REMARK                         _______ _______ _______ _____ _____    ______ ____
ROOT
ATOM      1  C   UNL     1       2.646   4.170  17.952  0.00  0.00    +0.000 A 
ATOM      2  N   UNL     1       3.164   3.807  16.830  0.00  0.00    +0.000 NA
ATOM      3  C   UNL     1       4.466   4.194  16.586  0.00  0.00    +0.000 A 
ATOM      4  O   UNL     1       4.938   3.858  15.290  0.00  0.00    +0.000 OA
ATOM      5  C   UNL     1       6.206   4.137  14.890  0.00  0.00    +0.000 A 
ATOM      6  O   UNL     1       6.633   3.850  13.779  0.00  0.00    +0.000 OA
ATOM      7  C   UNL     1       7.069   4.823  15.859  0.00  0.00    +0.000 A 
ATOM      8  C   UNL     1       6.647   5.161  17.091  0.00  0.00    +0.000 A 
ATOM      9  C   UNL     1       5.273   4.827  17.467  0.00  0.00    +0.000 A 
ATOM     10  C   UNL     1       4.654   5.132  18.791  0.00  0.00    +0.000 A 
ATOM     11  O   UNL     1       5.284   5.553  19.750  0.00  0.00    +0.000 OA
ATOM     12  N   UNL     1       3.315   4.882  18.889  0.00  0.00    +0.000 N 
ATOM     13  H   UNL     1       2.863   5.059  19.773  0.00  0.00    +0.000 HD
ENDROOT
BRANCH   8  14
ATOM     14  C   UNL     1       7.597   5.935  17.984  0.00  0.00    +0.000 C 
ATOM     15  C   UNL     1       7.646   7.431  17.691  0.00  0.00    +0.000 C 
ENDBRANCH   8  14
BRANCH   1  16
ATOM     16  O   UNL     1       1.384   3.872  18.342  0.00  0.00    +0.000 OA
BRANCH  16  17
ATOM     17  C   UNL     1       1.149   2.558  18.889  0.00  0.00    +0.000 C 
BRANCH  17  19
ATOM     18  C   UNL     1       1.489   2.664  21.690  0.00  0.00    +0.000 C 
ATOM     19  C   UNL     1       1.331   2.614  20.397  0.00  0.00    +0.000 C 
ENDBRANCH  17  19
ENDBRANCH  16  17
ENDBRANCH   1  16
TORSDOF 4
ENDMDL
MODEL 6
REMARK VINA RESULT:      -6.9      1.090      1.171
REMARK  Name = 
REMARK  5 active torsions:
REMARK  status: ('A' for Active; 'I' for Inactive)
REMARK    1  A    between atoms: C_2  and  C_3
REMARK    2  A    between atoms: C_3  and  O_4
REMARK    3  A    between atoms: O_4  and  C_5
REMARK    4  A    between atoms: C_12  and  C_13
REMARK    5  A    between atoms: C_13  and  C_14
REMARK                            x       y       z     vdW  Elec       q    Type
REMARK                         _______ _______ _______ _____ _____    ______ ____
ROOT
ATOM      1  C   UNL     1       6.083   4.694  16.037  0.00  0.00    +0.000 A 
ATOM      2  N   UNL     1       5.681   5.877  16.349  0.00  0.00    +0.000 NA
ATOM      3  C   UNL     1       4.483   5.974  17.026  0.00  0.00    +0.000 A 
ATOM      4  O   UNL     1       4.044   7.307  17.240  0.00  0.00    +0.000 OA
ATOM      5  C   UNL     1       2.900   7.590  17.917  0.00  0.00    +0.000 A 
ATOM      6  O   UNL     1       2.508   8.732  18.116  0.00  0.00    +0.000 OA
ATOM      7  C   UNL     1       2.121   6.445  18.405  0.00  0.00    +0.000 A 
ATOM      8  C   UNL     1       2.508   5.171  18.210  0.00  0.00    +0.000 A 
ATOM      9  C   UNL     1       3.754   4.930  17.482  0.00  0.00    +0.000 A 
ATOM     10  C   UNL     1       4.320   3.582  17.184  0.00  0.00    +0.000 A 
ATOM     11  O   UNL     1       3.877   2.545  17.656  0.00  0.00    +0.000 OA
ATOM     12  N   UNL     1       5.406   3.566  16.356  0.00  0.00    +0.000 N 
ATOM     13  H   UNL     1       5.828   2.675  16.144  0.00  0.00    +0.000 HD
ENDROOT
BRANCH   8  14
ATOM     14  C   UNL     1       1.590   4.065  18.692  0.00  0.00    +0.000 C 
ATOM     15  C   UNL     1       1.451   3.989  20.209  0.00  0.00    +0.000 C 
ENDBRANCH   8  14
BRANCH   1  16
ATOM     16  O   UNL     1       7.234   4.428  15.375  0.00  0.00    +0.000 OA
BRANCH  16  17
ATOM     17  C   UNL     1       7.348   4.908  14.019  0.00  0.00    +0.000 C 
BRANCH  17  19
ATOM     18  C   UNL     1       5.813   3.244  12.330  0.00  0.00    +0.000 C 
ATOM     19  C   UNL     1       6.521   4.012  13.111  0.00  0.00    +0.000 C 
ENDBRANCH  17  19
ENDBRANCH  16  17
ENDBRANCH   1  16
TORSDOF 4
ENDMDL
MODEL 7
REMARK VINA RESULT:      -6.9      1.162      3.028
REMARK  Name = 
REMARK  5 active torsions:
REMARK  status: ('A' for Active; 'I' for Inactive)
REMARK    1  A    between atoms: C_2  and  C_3
REMARK    2  A    between atoms: C_3  and  O_4
REMARK    3  A    between atoms: O_4  and  C_5
REMARK    4  A    between atoms: C_12  and  C_13
REMARK    5  A    between atoms: C_13  and  C_14
REMARK                            x       y       z     vdW  Elec       q    Type
REMARK                         _______ _______ _______ _____ _____    ______ ____
ROOT
ATOM      1  C   UNL     1       4.810   4.083  16.883  0.00  0.00    +0.000 A 
ATOM      2  N   UNL     1       4.104   3.375  17.694  0.00  0.00    +0.000 NA
ATOM      3  C   UNL     1       3.332   4.056  18.613  0.00  0.00    +0.000 A 
ATOM      4  O   UNL     1       2.667   3.218  19.546  0.00  0.00    +0.000 OA
ATOM      5  C   UNL     1       1.841   3.717  20.502  0.00  0.00    +0.000 A 
ATOM      6  O   UNL     1       1.255   3.011  21.313  0.00  0.00    +0.000 OA
ATOM      7  C   UNL     1       1.679   5.176  20.540  0.00  0.00    +0.000 A 
ATOM      8  C   UNL     1       2.302   5.995  19.674  0.00  0.00    +0.000 A 
ATOM      9  C   UNL     1       3.173   5.398  18.661  0.00  0.00    +0.000 A 
ATOM     10  C   UNL     1       3.933   6.165  17.630  0.00  0.00    +0.000 A 
ATOM     11  O   UNL     1       3.781   7.361  17.431  0.00  0.00    +0.000 OA
ATOM     12  N   UNL     1       4.811   5.437  16.879  0.00  0.00    +0.000 N 
ATOM     13  H   UNL     1       5.332   5.916  16.161  0.00  0.00    +0.000 HD
ENDROOT
BRANCH   8  14
ATOM     14  C   UNL     1       2.123   7.490  19.850  0.00  0.00    +0.000 C 
ATOM     15  C   UNL     1       1.284   7.877  21.064  0.00  0.00    +0.000 C 
ENDBRANCH   8  14
BRANCH   1  16
ATOM     16  O   UNL     1       5.618   3.570  15.925  0.00  0.00    +0.000 OA
BRANCH  16  17
ATOM     17  C   UNL     1       6.158   4.485  14.949  0.00  0.00    +0.000 C 
BRANCH  17  19
ATOM     18  C   UNL     1       5.902   3.335  12.383  0.00  0.00    +0.000 C 
ATOM     19  C   UNL     1       6.020   3.867  13.568  0.00  0.00    +0.000 C 
ENDBRANCH  17  19
ENDBRANCH  16  17
ENDBRANCH   1  16
TORSDOF 4
ENDMDL
MODEL 8
REMARK VINA RESULT:      -6.8      3.643      5.668
REMARK  Name = 
REMARK  5 active torsions:
REMARK  status: ('A' for Active; 'I' for Inactive)
REMARK    1  A    between atoms: C_2  and  C_3
REMARK    2  A    between atoms: C_3  and  O_4
REMARK    3  A    between atoms: O_4  and  C_5
REMARK    4  A    between atoms: C_12  and  C_13
REMARK    5  A    between atoms: C_13  and  C_14
REMARK                            x       y       z     vdW  Elec       q    Type
REMARK                         _______ _______ _______ _____ _____    ______ ____
ROOT
ATOM      1  C   UNL     1       7.724   6.916  18.040  0.00  0.00    +0.000 A 
ATOM      2  N   UNL     1       7.755   6.632  16.785  0.00  0.00    +0.000 NA
ATOM      3  C   UNL     1       6.936   5.608  16.353  0.00  0.00    +0.000 A 
ATOM      4  O   UNL     1       7.101   5.272  14.984  0.00  0.00    +0.000 OA
ATOM      5  C   UNL     1       6.354   4.308  14.384  0.00  0.00    +0.000 A 
ATOM      6  O   UNL     1       6.477   4.007  13.204  0.00  0.00    +0.000 OA
ATOM      7  C   UNL     1       5.375   3.610  15.226  0.00  0.00    +0.000 A 
ATOM      8  C   UNL     1       5.203   3.902  16.528  0.00  0.00    +0.000 A 
ATOM      9  C   UNL     1       6.030   4.956  17.116  0.00  0.00    +0.000 A 
ATOM     10  C   UNL     1       5.962   5.398  18.540  0.00  0.00    +0.000 A 
ATOM     11  O   UNL     1       5.097   5.029  19.321  0.00  0.00    +0.000 OA
ATOM     12  N   UNL     1       6.926   6.283  18.932  0.00  0.00    +0.000 N 
ATOM     13  H   UNL     1       6.904   6.618  19.882  0.00  0.00    +0.000 HD
ENDROOT
BRANCH   8  14
ATOM     14  C   UNL     1       4.216   3.068  17.322  0.00  0.00    +0.000 C 
ATOM     15  C   UNL     1       2.765   3.512  17.171  0.00  0.00    +0.000 C 
ENDBRANCH   8  14
BRANCH   1  16
ATOM     16  O   UNL     1       8.464   7.891  18.621  0.00  0.00    +0.000 OA
BRANCH  16  17
ATOM     17  C   UNL     1       8.334   9.228  18.096  0.00  0.00    +0.000 C 
BRANCH  17  19
ATOM     18  C   UNL     1       9.853  10.987  19.700  0.00  0.00    +0.000 C 
ATOM     19  C   UNL     1       9.151  10.175  18.960  0.00  0.00    +0.000 C 
ENDBRANCH  17  19
ENDBRANCH  16  17
ENDBRANCH   1  16
TORSDOF 4
ENDMDL
MODEL 9
REMARK VINA RESULT:      -6.8      2.893      4.617
REMARK  Name = 
REMARK  5 active torsions:
REMARK  status: ('A' for Active; 'I' for Inactive)
REMARK    1  A    between atoms: C_2  and  C_3
REMARK    2  A    between atoms: C_3  and  O_4
REMARK    3  A    between atoms: O_4  and  C_5
REMARK    4  A    between atoms: C_12  and  C_13
REMARK    5  A    between atoms: C_13  and  C_14
REMARK                            x       y       z     vdW  Elec       q    Type
REMARK                         _______ _______ _______ _____ _____    ______ ____
ROOT
ATOM      1  C   UNL     1       5.342   6.347  17.783  0.00  0.00    +0.000 A 
ATOM      2  N   UNL     1       5.800   5.275  18.329  0.00  0.00    +0.000 NA
ATOM      3  C   UNL     1       4.881   4.425  18.910  0.00  0.00    +0.000 A 
ATOM      4  O   UNL     1       5.459   3.321  19.589  0.00  0.00    +0.000 OA
ATOM      5  C   UNL     1       4.702   2.368  20.193  0.00  0.00    +0.000 A 
ATOM      6  O   UNL     1       5.182   1.406  20.779  0.00  0.00    +0.000 OA
ATOM      7  C   UNL     1       3.246   2.542  20.128  0.00  0.00    +0.000 A 
ATOM      8  C   UNL     1       2.669   3.582  19.500  0.00  0.00    +0.000 A 
ATOM      9  C   UNL     1       3.537   4.572  18.860  0.00  0.00    +0.000 A 
ATOM     10  C   UNL     1       3.057   5.779  18.124  0.00  0.00    +0.000 A 
ATOM     11  O   UNL     1       1.883   5.978  17.848  0.00  0.00    +0.000 OA
ATOM     12  N   UNL     1       4.025   6.661  17.738  0.00  0.00    +0.000 N 
ATOM     13  H   UNL     1       3.743   7.481  17.224  0.00  0.00    +0.000 HD
ENDROOT
BRANCH   8  14
ATOM     14  C   UNL     1       1.159   3.704  19.558  0.00  0.00    +0.000 C 
ATOM     15  C   UNL     1       0.417   2.561  18.874  0.00  0.00    +0.000 C 
ENDBRANCH   8  14
BRANCH   1  16
ATOM     16  O   UNL     1       6.109   7.281  17.172  0.00  0.00    +0.000 OA
BRANCH  16  17
ATOM     17  C   UNL     1       7.539   7.174  17.329  0.00  0.00    +0.000 C 
BRANCH  17  19
ATOM     18  C   UNL     1       8.538   9.639  18.277  0.00  0.00    +0.000 C 
ATOM     19  C   UNL     1       8.077   8.500  17.840  0.00  0.00    +0.000 C 
ENDBRANCH  17  19
ENDBRANCH  16  17
ENDBRANCH   1  16
TORSDOF 4
ENDMDL
