MODEL 1
REMARK VINA RESULT:      -8.3      0.000      0.000
REMARK  Name = 
REMARK  9 active torsions:
REMARK  status: ('A' for Active; 'I' for Inactive)
REMARK    1  A    between atoms: C_1  and  C_2
REMARK    2  A    between atoms: C_2  and  C_3
REMARK    3  A    between atoms: C_3  and  C_4
REMARK    4  A    between atoms: C_3  and  C_26
REMARK    5  A    between atoms: C_5  and  O_6
REMARK    6  A    between atoms: C_8  and  C_9
REMARK    7  A    between atoms: C_8  and  C_16
REMARK    8  A    between atoms: C_9  and  C_10
REMARK    9  A    between atoms: C_16  and  C_17
REMARK                            x       y       z     vdW  Elec       q    Type
REMARK                         _______ _______ _______ _____ _____    ______ ____
ROOT
ATOM      1  C   UNL     1       1.109   9.282  19.621  0.00  0.00    +0.000 C 
ATOM      2  C   UNL     1       1.646   8.330  20.409  0.00  0.00    +0.000 C 
ATOM      3  O   UNL     1       2.315   7.228  19.959  0.00  0.00    +0.000 OA
ATOM      4  C   UNL     1       2.665   7.011  18.576  0.00  0.00    +0.000 C 
ATOM      5  C   UNL     1       2.531   8.311  17.773  0.00  0.00    +0.000 C 
ATOM      6  C   UNL     1       1.265   9.006  18.171  0.00  0.00    +0.000 C 
ATOM      7  O   UNL     1       0.419   9.352  17.352  0.00  0.00    +0.000 OA
ENDROOT
BRANCH   2   8
ATOM      8  O   UNL     1       1.559   8.386  21.784  0.00  0.00    +0.000 OA
ATOM      9  H   UNL     1       2.244   8.967  22.141  0.00  0.00    +0.000 HD
ENDBRANCH   2   8
BRANCH   1  10
ATOM     10  C   UNL     1       0.477  10.594  20.065  0.00  0.00    +0.000 C 
BRANCH  10  11
ATOM     11  C   UNL     1       1.392  11.802  19.805  0.00  0.00    +0.000 A 
ATOM     12  C   UNL     1       1.783  12.122  18.495  0.00  0.00    +0.000 A 
ATOM     13  C   UNL     1       2.588  13.239  18.244  0.00  0.00    +0.000 A 
ATOM     14  C   UNL     1       3.013  14.050  19.295  0.00  0.00    +0.000 A 
ATOM     15  C   UNL     1       2.633  13.750  20.602  0.00  0.00    +0.000 A 
ATOM     16  C   UNL     1       1.825  12.641  20.848  0.00  0.00    +0.000 A 
ENDBRANCH  10  11
BRANCH  10  18
ATOM     17  C   UNL     1      -1.675  12.041  20.083  0.00  0.00    +0.000 C 
ATOM     18  C   UNL     1      -0.962  10.812  19.531  0.00  0.00    +0.000 C 
ENDBRANCH  10  18
ENDBRANCH   1  10
BRANCH   4  19
ATOM     19  C   UNL     1       1.756   5.869  18.038  0.00  0.00    +0.000 C 
BRANCH  19  20
ATOM     20  C   UNL     1       1.715   4.579  18.828  0.00  0.00    +0.000 A 
ATOM     21  C   UNL     1       1.418   4.574  20.200  0.00  0.00    +0.000 A 
ATOM     22  C   UNL     1       1.368   3.376  20.917  0.00  0.00    +0.000 A 
ATOM     23  C   UNL     1       1.603   2.165  20.269  0.00  0.00    +0.000 A 
ATOM     24  C   UNL     1       1.895   2.156  18.906  0.00  0.00    +0.000 A 
ATOM     25  C   UNL     1       1.949   3.353  18.190  0.00  0.00    +0.000 A 
ENDBRANCH  19  20
ENDBRANCH   4  19
BRANCH   4  26
ATOM     26  C   UNL     1       4.178   6.626  18.570  0.00  0.00    +0.000 C 
BRANCH  26  27
ATOM     27  C   UNL     1       4.796   5.913  17.379  0.00  0.00    +0.000 A 
ATOM     28  C   UNL     1       5.124   4.553  17.514  0.00  0.00    +0.000 A 
ATOM     29  C   UNL     1       5.613   3.818  16.432  0.00  0.00    +0.000 A 
ATOM     30  C   UNL     1       5.774   4.428  15.191  0.00  0.00    +0.000 A 
ATOM     31  C   UNL     1       5.447   5.771  15.035  0.00  0.00    +0.000 A 
ATOM     32  C   UNL     1       4.956   6.505  16.118  0.00  0.00    +0.000 A 
ENDBRANCH  26  27
ENDBRANCH   4  26
TORSDOF 8
ENDMDL
MODEL 2
REMARK VINA RESULT:      -8.3      2.051      8.186
REMARK  Name = 
REMARK  9 active torsions:
REMARK  status: ('A' for Active; 'I' for Inactive)
REMARK    1  A    between atoms: C_1  and  C_2
REMARK    2  A    between atoms: C_2  and  C_3
REMARK    3  A    between atoms: C_3  and  C_4
REMARK    4  A    between atoms: C_3  and  C_26
REMARK    5  A    between atoms: C_5  and  O_6
REMARK    6  A    between atoms: C_8  and  C_9
REMARK    7  A    between atoms: C_8  and  C_16
REMARK    8  A    between atoms: C_9  and  C_10
REMARK    9  A    between atoms: C_16  and  C_17
REMARK                            x       y       z     vdW  Elec       q    Type
REMARK                         _______ _______ _______ _____ _____    ______ ____
ROOT
ATOM      1  C   UNL     1       2.241   7.833  19.207  0.00  0.00    +0.000 C 
ATOM      2  C   UNL     1       1.658   8.395  20.284  0.00  0.00    +0.000 C 
ATOM      3  O   UNL     1       0.804   9.461  20.244  0.00  0.00    +0.000 OA
ATOM      4  C   UNL     1       0.296  10.036  19.021  0.00  0.00    +0.000 C 
ATOM      5  C   UNL     1       0.529   9.087  17.839  0.00  0.00    +0.000 C 
ATOM      6  C   UNL     1       1.910   8.515  17.932  0.00  0.00    +0.000 C 
ATOM      7  O   UNL     1       2.712   8.579  17.006  0.00  0.00    +0.000 OA
ENDROOT
BRANCH   2   8
ATOM      8  O   UNL     1       1.883   7.931  21.563  0.00  0.00    +0.000 OA
ATOM      9  H   UNL     1       2.363   7.092  21.537  0.00  0.00    +0.000 HD
ENDBRANCH   2   8
BRANCH   1  10
ATOM     10  C   UNL     1       3.085   6.567  19.177  0.00  0.00    +0.000 C 
BRANCH  10  11
ATOM     11  C   UNL     1       2.231   5.291  19.252  0.00  0.00    +0.000 A 
ATOM     12  C   UNL     1       1.908   4.588  18.079  0.00  0.00    +0.000 A 
ATOM     13  C   UNL     1       1.159   3.408  18.139  0.00  0.00    +0.000 A 
ATOM     14  C   UNL     1       0.723   2.913  19.366  0.00  0.00    +0.000 A 
ATOM     15  C   UNL     1       1.036   3.593  20.541  0.00  0.00    +0.000 A 
ATOM     16  C   UNL     1       1.789   4.766  20.480  0.00  0.00    +0.000 A 
ENDBRANCH  10  11
BRANCH  10  18
ATOM     17  C   UNL     1       5.361   5.689  18.294  0.00  0.00    +0.000 C 
ATOM     18  C   UNL     1       4.116   6.525  18.020  0.00  0.00    +0.000 C 
ENDBRANCH  10  18
ENDBRANCH   1  10
BRANCH   4  19
ATOM     19  C   UNL     1       0.985  11.418  18.835  0.00  0.00    +0.000 C 
BRANCH  19  20
ATOM     20  C   UNL     1       0.415  12.591  19.601  0.00  0.00    +0.000 A 
ATOM     21  C   UNL     1       0.614  12.724  20.985  0.00  0.00    +0.000 A 
ATOM     22  C   UNL     1       0.095  13.820  21.680  0.00  0.00    +0.000 A 
ATOM     23  C   UNL     1      -0.620  14.803  21.000  0.00  0.00    +0.000 A 
ATOM     24  C   UNL     1      -0.822  14.684  19.625  0.00  0.00    +0.000 A 
ATOM     25  C   UNL     1      -0.307  13.589  18.931  0.00  0.00    +0.000 A 
ENDBRANCH  19  20
ENDBRANCH   4  19
BRANCH   4  26
ATOM     26  C   UNL     1      -1.248  10.157  19.212  0.00  0.00    +0.000 C 
BRANCH  26  27
ATOM     27  C   UNL     1      -2.166  10.372  18.020  0.00  0.00    +0.000 A 
ATOM     28  C   UNL     1      -3.230  11.280  18.155  0.00  0.00    +0.000 A 
ATOM     29  C   UNL     1      -4.056  11.590  17.073  0.00  0.00    +0.000 A 
ATOM     30  C   UNL     1      -3.828  11.003  15.831  0.00  0.00    +0.000 A 
ATOM     31  C   UNL     1      -2.775  10.108  15.676  0.00  0.00    +0.000 A 
ATOM     32  C   UNL     1      -1.947   9.801  16.759  0.00  0.00    +0.000 A 
ENDBRANCH  26  27
ENDBRANCH   4  26
TORSDOF 8
ENDMDL
MODEL 3
REMARK VINA RESULT:      -8.3      0.115      1.227
REMARK  Name = 
REMARK  9 active torsions:
REMARK  status: ('A' for Active; 'I' for Inactive)
REMARK    1  A    between atoms: C_1  and  C_2
REMARK    2  A    between atoms: C_2  and  C_3
REMARK    3  A    between atoms: C_3  and  C_4
REMARK    4  A    between atoms: C_3  and  C_26
REMARK    5  A    between atoms: C_5  and  O_6
REMARK    6  A    between atoms: C_8  and  C_9
REMARK    7  A    between atoms: C_8  and  C_16
REMARK    8  A    between atoms: C_9  and  C_10
REMARK    9  A    between atoms: C_16  and  C_17
REMARK                            x       y       z     vdW  Elec       q    Type
REMARK                         _______ _______ _______ _____ _____    ______ ____
ROOT
ATOM      1  C   UNL     1       1.136   9.264  19.628  0.00  0.00    +0.000 C 
ATOM      2  C   UNL     1       1.709   8.318  20.398  0.00  0.00    +0.000 C 
ATOM      3  O   UNL     1       2.359   7.214  19.925  0.00  0.00    +0.000 OA
ATOM      4  C   UNL     1       2.647   6.989  18.529  0.00  0.00    +0.000 C 
ATOM      5  C   UNL     1       2.474   8.283  17.724  0.00  0.00    +0.000 C 
ATOM      6  C   UNL     1       1.227   8.978  18.174  0.00  0.00    +0.000 C 
ATOM      7  O   UNL     1       0.344   9.318  17.393  0.00  0.00    +0.000 OA
ENDROOT
BRANCH   2   8
ATOM      8  O   UNL     1       1.684   8.383  21.775  0.00  0.00    +0.000 OA
ATOM      9  H   UNL     1       1.204   9.171  22.066  0.00  0.00    +0.000 HD
ENDBRANCH   2   8
BRANCH   1  10
ATOM     10  C   UNL     1       0.522  10.578  20.091  0.00  0.00    +0.000 C 
BRANCH  10  11
ATOM     11  C   UNL     1       1.433  11.783  19.806  0.00  0.00    +0.000 A 
ATOM     12  C   UNL     1       1.848  12.058  18.492  0.00  0.00    +0.000 A 
ATOM     13  C   UNL     1       2.651  13.171  18.216  0.00  0.00    +0.000 A 
ATOM     14  C   UNL     1       3.048  14.023  19.245  0.00  0.00    +0.000 A 
ATOM     15  C   UNL     1       2.644  13.769  20.554  0.00  0.00    +0.000 A 
ATOM     16  C   UNL     1       1.839  12.663  20.825  0.00  0.00    +0.000 A 
ENDBRANCH  10  11
BRANCH  10  18
ATOM     17  C   UNL     1      -1.638  12.008  20.208  0.00  0.00    +0.000 C 
ATOM     18  C   UNL     1      -0.931  10.802  19.601  0.00  0.00    +0.000 C 
ENDBRANCH  10  18
ENDBRANCH   1  10
BRANCH   4  19
ATOM     19  C   UNL     1       1.717   5.842  18.041  0.00  0.00    +0.000 C 
BRANCH  19  20
ATOM     20  C   UNL     1       1.660   4.584  18.880  0.00  0.00    +0.000 A 
ATOM     21  C   UNL     1       1.877   3.319  18.311  0.00  0.00    +0.000 A 
ATOM     22  C   UNL     1       1.837   2.165  19.098  0.00  0.00    +0.000 A 
ATOM     23  C   UNL     1       1.593   2.261  20.466  0.00  0.00    +0.000 A 
ATOM     24  C   UNL     1       1.380   3.512  21.044  0.00  0.00    +0.000 A 
ATOM     25  C   UNL     1       1.416   4.665  20.258  0.00  0.00    +0.000 A 
ENDBRANCH  19  20
ENDBRANCH   4  19
BRANCH   4  26
ATOM     26  C   UNL     1       4.159   6.606  18.458  0.00  0.00    +0.000 C 
BRANCH  26  27
ATOM     27  C   UNL     1       4.698   5.774  17.306  0.00  0.00    +0.000 A 
ATOM     28  C   UNL     1       5.000   6.428  16.098  0.00  0.00    +0.000 A 
ATOM     29  C   UNL     1       5.580   5.739  15.031  0.00  0.00    +0.000 A 
ATOM     30  C   UNL     1       5.876   4.385  15.154  0.00  0.00    +0.000 A 
ATOM     31  C   UNL     1       5.592   3.722  16.343  0.00  0.00    +0.000 A 
ATOM     32  C   UNL     1       5.014   4.413  17.412  0.00  0.00    +0.000 A 
ENDBRANCH  26  27
ENDBRANCH   4  26
TORSDOF 8
ENDMDL
MODEL 4
REMARK VINA RESULT:      -8.3      2.372      7.469
REMARK  Name = 
REMARK  9 active torsions:
REMARK  status: ('A' for Active; 'I' for Inactive)
REMARK    1  A    between atoms: C_1  and  C_2
REMARK    2  A    between atoms: C_2  and  C_3
REMARK    3  A    between atoms: C_3  and  C_4
REMARK    4  A    between atoms: C_3  and  C_26
REMARK    5  A    between atoms: C_5  and  O_6
REMARK    6  A    between atoms: C_8  and  C_9
REMARK    7  A    between atoms: C_8  and  C_16
REMARK    8  A    between atoms: C_9  and  C_10
REMARK    9  A    between atoms: C_16  and  C_17
REMARK                            x       y       z     vdW  Elec       q    Type
REMARK                         _______ _______ _______ _____ _____    ______ ____
ROOT
ATOM      1  C   UNL     1       5.329   5.092  16.974  0.00  0.00    +0.000 C 
ATOM      2  C   UNL     1       4.746   6.191  16.456  0.00  0.00    +0.000 C 
ATOM      3  O   UNL     1       3.686   6.849  17.012  0.00  0.00    +0.000 OA
ATOM      4  C   UNL     1       3.141   6.538  18.311  0.00  0.00    +0.000 C 
ATOM      5  C   UNL     1       4.114   5.664  19.112  0.00  0.00    +0.000 C 
ATOM      6  C   UNL     1       4.676   4.605  18.215  0.00  0.00    +0.000 C 
ATOM      7  O   UNL     1       4.629   3.412  18.495  0.00  0.00    +0.000 OA
ENDROOT
BRANCH   2   8
ATOM      8  O   UNL     1       5.180   6.763  15.279  0.00  0.00    +0.000 OA
ATOM      9  H   UNL     1       5.582   6.093  14.708  0.00  0.00    +0.000 HD
ENDBRANCH   2   8
BRANCH   1  10
ATOM     10  C   UNL     1       6.591   4.401  16.476  0.00  0.00    +0.000 C 
BRANCH  10  11
ATOM     11  C   UNL     1       6.687   4.390  14.943  0.00  0.00    +0.000 A 
ATOM     12  C   UNL     1       7.669   5.154  14.291  0.00  0.00    +0.000 A 
ATOM     13  C   UNL     1       7.787   5.125  12.897  0.00  0.00    +0.000 A 
ATOM     14  C   UNL     1       6.928   4.336  12.135  0.00  0.00    +0.000 A 
ATOM     15  C   UNL     1       5.949   3.568  12.763  0.00  0.00    +0.000 A 
ATOM     16  C   UNL     1       5.838   3.593  14.153  0.00  0.00    +0.000 A 
ENDBRANCH  10  11
BRANCH  10  18
ATOM     17  C   UNL     1       7.726   6.140  18.031  0.00  0.00    +0.000 C 
ATOM     18  C   UNL     1       7.893   4.907  17.150  0.00  0.00    +0.000 C 
ENDBRANCH  10  18
ENDBRANCH   1  10
BRANCH   4  19
ATOM     19  C   UNL     1       1.759   5.859  18.086  0.00  0.00    +0.000 C 
BRANCH  19  20
ATOM     20  C   UNL     1       1.485   4.570  18.828  0.00  0.00    +0.000 A 
ATOM     21  C   UNL     1       1.293   3.361  18.141  0.00  0.00    +0.000 A 
ATOM     22  C   UNL     1       1.056   2.173  18.837  0.00  0.00    +0.000 A 
ATOM     23  C   UNL     1       1.020   2.175  20.230  0.00  0.00    +0.000 A 
ATOM     24  C   UNL     1       1.213   3.368  20.924  0.00  0.00    +0.000 A 
ATOM     25  C   UNL     1       1.446   4.556  20.230  0.00  0.00    +0.000 A 
ENDBRANCH  19  20
ENDBRANCH   4  19
BRANCH   4  26
ATOM     26  C   UNL     1       3.023   7.900  19.066  0.00  0.00    +0.000 C 
BRANCH  26  27
ATOM     27  C   UNL     1       1.705   8.654  19.109  0.00  0.00    +0.000 A 
ATOM     28  C   UNL     1       1.067   8.809  20.353  0.00  0.00    +0.000 A 
ATOM     29  C   UNL     1      -0.100   9.565  20.476  0.00  0.00    +0.000 A 
ATOM     30  C   UNL     1      -0.647  10.190  19.359  0.00  0.00    +0.000 A 
ATOM     31  C   UNL     1      -0.026  10.056  18.121  0.00  0.00    +0.000 A 
ATOM     32  C   UNL     1       1.143   9.300  18.000  0.00  0.00    +0.000 A 
ENDBRANCH  26  27
ENDBRANCH   4  26
TORSDOF 8
ENDMDL
MODEL 5
REMARK VINA RESULT:      -8.3      0.254      1.243
REMARK  Name = 
REMARK  9 active torsions:
REMARK  status: ('A' for Active; 'I' for Inactive)
REMARK    1  A    between atoms: C_1  and  C_2
REMARK    2  A    between atoms: C_2  and  C_3
REMARK    3  A    between atoms: C_3  and  C_4
REMARK    4  A    between atoms: C_3  and  C_26
REMARK    5  A    between atoms: C_5  and  O_6
REMARK    6  A    between atoms: C_8  and  C_9
REMARK    7  A    between atoms: C_8  and  C_16
REMARK    8  A    between atoms: C_9  and  C_10
REMARK    9  A    between atoms: C_16  and  C_17
REMARK                            x       y       z     vdW  Elec       q    Type
REMARK                         _______ _______ _______ _____ _____    ______ ____
ROOT
ATOM      1  C   UNL     1       1.135   9.269  19.621  0.00  0.00    +0.000 C 
ATOM      2  C   UNL     1       1.722   8.319  20.375  0.00  0.00    +0.000 C 
ATOM      3  O   UNL     1       2.377   7.225  19.886  0.00  0.00    +0.000 OA
ATOM      4  C   UNL     1       2.657   7.019  18.485  0.00  0.00    +0.000 C 
ATOM      5  C   UNL     1       2.468   8.321  17.696  0.00  0.00    +0.000 C 
ATOM      6  C   UNL     1       1.218   9.000  18.163  0.00  0.00    +0.000 C 
ATOM      7  O   UNL     1       0.327   9.342  17.392  0.00  0.00    +0.000 OA
ENDROOT
BRANCH   2   8
ATOM      8  O   UNL     1       1.706   8.367  21.754  0.00  0.00    +0.000 OA
ATOM      9  H   UNL     1       1.095   7.706  22.107  0.00  0.00    +0.000 HD
ENDBRANCH   2   8
BRANCH   1  10
ATOM     10  C   UNL     1       0.515  10.572  20.104  0.00  0.00    +0.000 C 
BRANCH  10  11
ATOM     11  C   UNL     1       1.380  11.795  19.761  0.00  0.00    +0.000 A 
ATOM     12  C   UNL     1       1.648  12.767  20.739  0.00  0.00    +0.000 A 
ATOM     13  C   UNL     1       2.461  13.868  20.447  0.00  0.00    +0.000 A 
ATOM     14  C   UNL     1       3.017  14.014  19.178  0.00  0.00    +0.000 A 
ATOM     15  C   UNL     1       2.765  13.059  18.194  0.00  0.00    +0.000 A 
ATOM     16  C   UNL     1       1.960  11.960  18.490  0.00  0.00    +0.000 A 
ENDBRANCH  10  11
BRANCH  10  18
ATOM     17  C   UNL     1      -1.287  12.083  19.010  0.00  0.00    +0.000 C 
ATOM     18  C   UNL     1      -0.967  10.756  19.688  0.00  0.00    +0.000 C 
ENDBRANCH  10  18
ENDBRANCH   1  10
BRANCH   4  19
ATOM     19  C   UNL     1       1.732   5.869  17.990  0.00  0.00    +0.000 C 
BRANCH  19  20
ATOM     20  C   UNL     1       1.679   4.609  18.824  0.00  0.00    +0.000 A 
ATOM     21  C   UNL     1       1.512   4.663  20.217  0.00  0.00    +0.000 A 
ATOM     22  C   UNL     1       1.448   3.492  20.976  0.00  0.00    +0.000 A 
ATOM     23  C   UNL     1       1.539   2.250  20.352  0.00  0.00    +0.000 A 
ATOM     24  C   UNL     1       1.702   2.182  18.969  0.00  0.00    +0.000 A 
ATOM     25  C   UNL     1       1.768   3.351  18.210  0.00  0.00    +0.000 A 
ENDBRANCH  19  20
ENDBRANCH   4  19
BRANCH   4  26
ATOM     26  C   UNL     1       4.171   6.649  18.398  0.00  0.00    +0.000 C 
BRANCH  26  27
ATOM     27  C   UNL     1       4.699   5.791  17.261  0.00  0.00    +0.000 A 
ATOM     28  C   UNL     1       5.010   6.419  16.042  0.00  0.00    +0.000 A 
ATOM     29  C   UNL     1       5.580   5.704  14.987  0.00  0.00    +0.000 A 
ATOM     30  C   UNL     1       5.859   4.349  15.133  0.00  0.00    +0.000 A 
ATOM     31  C   UNL     1       5.567   3.711  16.334  0.00  0.00    +0.000 A 
ATOM     32  C   UNL     1       4.998   4.427  17.390  0.00  0.00    +0.000 A 
ENDBRANCH  26  27
ENDBRANCH   4  26
TORSDOF 8
ENDMDL
MODEL 6
REMARK VINA RESULT:      -8.2      2.062      8.199
REMARK  Name = 
REMARK  9 active torsions:
REMARK  status: ('A' for Active; 'I' for Inactive)
REMARK    1  A    between atoms: C_1  and  C_2
REMARK    2  A    between atoms: C_2  and  C_3
REMARK    3  A    between atoms: C_3  and  C_4
REMARK    4  A    between atoms: C_3  and  C_26
REMARK    5  A    between atoms: C_5  and  O_6
REMARK    6  A    between atoms: C_8  and  C_9
REMARK    7  A    between atoms: C_8  and  C_16
REMARK    8  A    between atoms: C_9  and  C_10
REMARK    9  A    between atoms: C_16  and  C_17
REMARK                            x       y       z     vdW  Elec       q    Type
REMARK                         _______ _______ _______ _____ _____    ______ ____
ROOT
ATOM      1  C   UNL     1       2.276   7.807  19.207  0.00  0.00    +0.000 C 
ATOM      2  C   UNL     1       1.668   8.361  20.274  0.00  0.00    +0.000 C 
ATOM      3  O   UNL     1       0.802   9.416  20.220  0.00  0.00    +0.000 OA
ATOM      4  C   UNL     1       0.307   9.985  18.990  0.00  0.00    +0.000 C 
ATOM      5  C   UNL     1       0.571   9.040  17.811  0.00  0.00    +0.000 C 
ATOM      6  C   UNL     1       1.957   8.486  17.926  0.00  0.00    +0.000 C 
ATOM      7  O   UNL     1       2.774   8.561  17.013  0.00  0.00    +0.000 OA
ENDROOT
BRANCH   2   8
ATOM      8  O   UNL     1       1.879   7.899  21.556  0.00  0.00    +0.000 OA
ATOM      9  H   UNL     1       1.108   7.406  21.867  0.00  0.00    +0.000 HD
ENDBRANCH   2   8
BRANCH   1  10
ATOM     10  C   UNL     1       3.137   6.552  19.189  0.00  0.00    +0.000 C 
BRANCH  10  11
ATOM     11  C   UNL     1       2.300   5.266  19.264  0.00  0.00    +0.000 A 
ATOM     12  C   UNL     1       1.901   4.755  20.510  0.00  0.00    +0.000 A 
ATOM     13  C   UNL     1       1.111   3.602  20.589  0.00  0.00    +0.000 A 
ATOM     14  C   UNL     1       0.708   2.946  19.427  0.00  0.00    +0.000 A 
ATOM     15  C   UNL     1       1.091   3.438  18.181  0.00  0.00    +0.000 A 
ATOM     16  C   UNL     1       1.873   4.591  18.106  0.00  0.00    +0.000 A 
ENDBRANCH  10  11
BRANCH  10  18
ATOM     17  C   UNL     1       5.411   5.665  18.311  0.00  0.00    +0.000 C 
ATOM     18  C   UNL     1       4.178   6.518  18.040  0.00  0.00    +0.000 C 
ENDBRANCH  10  18
ENDBRANCH   1  10
BRANCH   4  19
ATOM     19  C   UNL     1       0.980  11.376  18.816  0.00  0.00    +0.000 C 
BRANCH  19  20
ATOM     20  C   UNL     1       0.397  12.536  19.593  0.00  0.00    +0.000 A 
ATOM     21  C   UNL     1       0.551  12.631  20.985  0.00  0.00    +0.000 A 
ATOM     22  C   UNL     1       0.022  13.714  21.690  0.00  0.00    +0.000 A 
ATOM     23  C   UNL     1      -0.658  14.724  21.012  0.00  0.00    +0.000 A 
ATOM     24  C   UNL     1      -0.815  14.643  19.629  0.00  0.00    +0.000 A 
ATOM     25  C   UNL     1      -0.289  13.559  18.924  0.00  0.00    +0.000 A 
ENDBRANCH  19  20
ENDBRANCH   4  19
BRANCH   4  26
ATOM     26  C   UNL     1      -1.242  10.086  19.156  0.00  0.00    +0.000 C 
BRANCH  26  27
ATOM     27  C   UNL     1      -2.129  10.453  17.978  0.00  0.00    +0.000 A 
ATOM     28  C   UNL     1      -1.944   9.766  16.765  0.00  0.00    +0.000 A 
ATOM     29  C   UNL     1      -2.782   9.993  15.672  0.00  0.00    +0.000 A 
ATOM     30  C   UNL     1      -3.827  10.907  15.773  0.00  0.00    +0.000 A 
ATOM     31  C   UNL     1      -4.032  11.591  16.966  0.00  0.00    +0.000 A 
ATOM     32  C   UNL     1      -3.194  11.361  18.061  0.00  0.00    +0.000 A 
ENDBRANCH  26  27
ENDBRANCH   4  26
TORSDOF 8
ENDMDL
MODEL 7
REMARK VINA RESULT:      -8.2      2.045      8.231
REMARK  Name = 
REMARK  9 active torsions:
REMARK  status: ('A' for Active; 'I' for Inactive)
REMARK    1  A    between atoms: C_1  and  C_2
REMARK    2  A    between atoms: C_2  and  C_3
REMARK    3  A    between atoms: C_3  and  C_4
REMARK    4  A    between atoms: C_3  and  C_26
REMARK    5  A    between atoms: C_5  and  O_6
REMARK    6  A    between atoms: C_8  and  C_9
REMARK    7  A    between atoms: C_8  and  C_16
REMARK    8  A    between atoms: C_9  and  C_10
REMARK    9  A    between atoms: C_16  and  C_17
REMARK                            x       y       z     vdW  Elec       q    Type
REMARK                         _______ _______ _______ _____ _____    ______ ____
ROOT
ATOM      1  C   UNL     1       2.257   7.832  19.208  0.00  0.00    +0.000 C 
ATOM      2  C   UNL     1       1.659   8.381  20.283  0.00  0.00    +0.000 C 
ATOM      3  O   UNL     1       0.789   9.434  20.242  0.00  0.00    +0.000 OA
ATOM      4  C   UNL     1       0.280  10.006  19.019  0.00  0.00    +0.000 C 
ATOM      5  C   UNL     1       0.535   9.066  17.834  0.00  0.00    +0.000 C 
ATOM      6  C   UNL     1       1.924   8.516  17.933  0.00  0.00    +0.000 C 
ATOM      7  O   UNL     1       2.731   8.596  17.012  0.00  0.00    +0.000 OA
ENDROOT
BRANCH   2   8
ATOM      8  O   UNL     1       1.884   7.915  21.561  0.00  0.00    +0.000 OA
ATOM      9  H   UNL     1       1.127   8.114  22.130  0.00  0.00    +0.000 HD
ENDBRANCH   2   8
BRANCH   1  10
ATOM     10  C   UNL     1       3.121   6.580  19.177  0.00  0.00    +0.000 C 
BRANCH  10  11
ATOM     11  C   UNL     1       2.288   5.291  19.257  0.00  0.00    +0.000 A 
ATOM     12  C   UNL     1       1.899   4.778  20.505  0.00  0.00    +0.000 A 
ATOM     13  C   UNL     1       1.112   3.623  20.588  0.00  0.00    +0.000 A 
ATOM     14  C   UNL     1       0.704   2.966  19.429  0.00  0.00    +0.000 A 
ATOM     15  C   UNL     1       1.077   3.461  18.181  0.00  0.00    +0.000 A 
ATOM     16  C   UNL     1       1.855   4.616  18.101  0.00  0.00    +0.000 A 
ENDBRANCH  10  11
BRANCH  10  18
ATOM     17  C   UNL     1       5.369   5.670  18.256  0.00  0.00    +0.000 C 
ATOM     18  C   UNL     1       4.150   6.552  18.017  0.00  0.00    +0.000 C 
ENDBRANCH  10  18
ENDBRANCH   1  10
BRANCH   4  19
ATOM     19  C   UNL     1       0.949  11.400  18.843  0.00  0.00    +0.000 C 
BRANCH  19  20
ATOM     20  C   UNL     1       0.365  12.557  19.623  0.00  0.00    +0.000 A 
ATOM     21  C   UNL     1      -0.390  13.557  18.988  0.00  0.00    +0.000 A 
ATOM     22  C   UNL     1      -0.937  14.613  19.720  0.00  0.00    +0.000 A 
ATOM     23  C   UNL     1      -0.748  14.679  21.099  0.00  0.00    +0.000 A 
ATOM     24  C   UNL     1      -0.004  13.691  21.742  0.00  0.00    +0.000 A 
ATOM     25  C   UNL     1       0.547  12.637  21.011  0.00  0.00    +0.000 A 
ENDBRANCH  19  20
ENDBRANCH   4  19
BRANCH   4  26
ATOM     26  C   UNL     1      -1.267  10.103  19.200  0.00  0.00    +0.000 C 
BRANCH  26  27
ATOM     27  C   UNL     1      -2.177  10.348  18.009  0.00  0.00    +0.000 A 
ATOM     28  C   UNL     1      -3.237  11.260  18.157  0.00  0.00    +0.000 A 
ATOM     29  C   UNL     1      -4.056  11.596  17.077  0.00  0.00    +0.000 A 
ATOM     30  C   UNL     1      -3.825  11.034  15.825  0.00  0.00    +0.000 A 
ATOM     31  C   UNL     1      -2.777  10.135  15.656  0.00  0.00    +0.000 A 
ATOM     32  C   UNL     1      -1.956   9.801  16.737  0.00  0.00    +0.000 A 
ENDBRANCH  26  27
ENDBRANCH   4  26
TORSDOF 8
ENDMDL
MODEL 8
REMARK VINA RESULT:      -8.2      2.373      7.387
REMARK  Name = 
REMARK  9 active torsions:
REMARK  status: ('A' for Active; 'I' for Inactive)
REMARK    1  A    between atoms: C_1  and  C_2
REMARK    2  A    between atoms: C_2  and  C_3
REMARK    3  A    between atoms: C_3  and  C_4
REMARK    4  A    between atoms: C_3  and  C_26
REMARK    5  A    between atoms: C_5  and  O_6
REMARK    6  A    between atoms: C_8  and  C_9
REMARK    7  A    between atoms: C_8  and  C_16
REMARK    8  A    between atoms: C_9  and  C_10
REMARK    9  A    between atoms: C_16  and  C_17
REMARK                            x       y       z     vdW  Elec       q    Type
REMARK                         _______ _______ _______ _____ _____    ______ ____
ROOT
ATOM      1  C   UNL     1       5.356   5.233  17.050  0.00  0.00    +0.000 C 
ATOM      2  C   UNL     1       4.747   6.325  16.544  0.00  0.00    +0.000 C 
ATOM      3  O   UNL     1       3.659   6.939  17.095  0.00  0.00    +0.000 OA
ATOM      4  C   UNL     1       3.103   6.586  18.379  0.00  0.00    +0.000 C 
ATOM      5  C   UNL     1       4.090   5.726  19.179  0.00  0.00    +0.000 C 
ATOM      6  C   UNL     1       4.698   4.703  18.271  0.00  0.00    +0.000 C 
ATOM      7  O   UNL     1       4.683   3.503  18.527  0.00  0.00    +0.000 OA
ENDROOT
BRANCH   2   8
ATOM      8  O   UNL     1       5.183   6.932  15.385  0.00  0.00    +0.000 OA
ATOM      9  H   UNL     1       6.149   6.957  15.362  0.00  0.00    +0.000 HD
ENDBRANCH   2   8
BRANCH   1  10
ATOM     10  C   UNL     1       6.646   4.591  16.561  0.00  0.00    +0.000 C 
BRANCH  10  11
ATOM     11  C   UNL     1       6.680   4.437  15.032  0.00  0.00    +0.000 A 
ATOM     12  C   UNL     1       5.724   3.640  14.381  0.00  0.00    +0.000 A 
ATOM     13  C   UNL     1       5.727   3.519  12.986  0.00  0.00    +0.000 A 
ATOM     14  C   UNL     1       6.680   4.191  12.224  0.00  0.00    +0.000 A 
ATOM     15  C   UNL     1       7.635   4.989  12.851  0.00  0.00    +0.000 A 
ATOM     16  C   UNL     1       7.627   5.113  14.240  0.00  0.00    +0.000 A 
ENDBRANCH  10  11
BRANCH  10  18
ATOM     17  C   UNL     1       7.780   5.895  18.495  0.00  0.00    +0.000 C 
ATOM     18  C   UNL     1       7.931   5.253  17.121  0.00  0.00    +0.000 C 
ENDBRANCH  10  18
ENDBRANCH   1  10
BRANCH   4  19
ATOM     19  C   UNL     1       1.747   5.871  18.118  0.00  0.00    +0.000 C 
BRANCH  19  20
ATOM     20  C   UNL     1       1.493   4.569  18.845  0.00  0.00    +0.000 A 
ATOM     21  C   UNL     1       1.394   4.523  20.245  0.00  0.00    +0.000 A 
ATOM     22  C   UNL     1       1.144   3.317  20.905  0.00  0.00    +0.000 A 
ATOM     23  C   UNL     1       0.978   2.143  20.175  0.00  0.00    +0.000 A 
ATOM     24  C   UNL     1       1.071   2.175  18.784  0.00  0.00    +0.000 A 
ATOM     25  C   UNL     1       1.324   3.378  18.124  0.00  0.00    +0.000 A 
ENDBRANCH  19  20
ENDBRANCH   4  19
BRANCH   4  26
ATOM     26  C   UNL     1       2.933   7.929  19.158  0.00  0.00    +0.000 C 
BRANCH  26  27
ATOM     27  C   UNL     1       1.616   8.686  19.123  0.00  0.00    +0.000 A 
ATOM     28  C   UNL     1       0.934   8.892  20.335  0.00  0.00    +0.000 A 
ATOM     29  C   UNL     1      -0.234   9.655  20.386  0.00  0.00    +0.000 A 
ATOM     30  C   UNL     1      -0.739  10.234  19.225  0.00  0.00    +0.000 A 
ATOM     31  C   UNL     1      -0.074  10.049  18.017  0.00  0.00    +0.000 A 
ATOM     32  C   UNL     1       1.096   9.288  17.969  0.00  0.00    +0.000 A 
ENDBRANCH  26  27
ENDBRANCH   4  26
TORSDOF 8
ENDMDL
MODEL 9
REMARK VINA RESULT:      -8.1      0.929      1.454
REMARK  Name = 
REMARK  9 active torsions:
REMARK  status: ('A' for Active; 'I' for Inactive)
REMARK    1  A    between atoms: C_1  and  C_2
REMARK    2  A    between atoms: C_2  and  C_3
REMARK    3  A    between atoms: C_3  and  C_4
REMARK    4  A    between atoms: C_3  and  C_26
REMARK    5  A    between atoms: C_5  and  O_6
REMARK    6  A    between atoms: C_8  and  C_9
REMARK    7  A    between atoms: C_8  and  C_16
REMARK    8  A    between atoms: C_9  and  C_10
REMARK    9  A    between atoms: C_16  and  C_17
REMARK                            x       y       z     vdW  Elec       q    Type
REMARK                         _______ _______ _______ _____ _____    ______ ____
ROOT
ATOM      1  C   UNL     1       1.249   9.188  19.936  0.00  0.00    +0.000 C 
ATOM      2  C   UNL     1       1.799   8.137  20.576  0.00  0.00    +0.000 C 
ATOM      3  O   UNL     1       2.421   7.087  19.963  0.00  0.00    +0.000 OA
ATOM      4  C   UNL     1       2.704   7.037  18.549  0.00  0.00    +0.000 C 
ATOM      5  C   UNL     1       2.564   8.429  17.919  0.00  0.00    +0.000 C 
ATOM      6  C   UNL     1       1.334   9.090  18.458  0.00  0.00    +0.000 C 
ATOM      7  O   UNL     1       0.460   9.550  17.729  0.00  0.00    +0.000 OA
ENDROOT
BRANCH   2   8
ATOM      8  O   UNL     1       1.775   8.024  21.950  0.00  0.00    +0.000 OA
ATOM      9  H   UNL     1       0.870   8.114  22.279  0.00  0.00    +0.000 HD
ENDBRANCH   2   8
BRANCH   1  10
ATOM     10  C   UNL     1       0.669  10.446  20.567  0.00  0.00    +0.000 C 
BRANCH  10  11
ATOM     11  C   UNL     1       0.785  11.671  19.646  0.00  0.00    +0.000 A 
ATOM     12  C   UNL     1      -0.372  12.303  19.163  0.00  0.00    +0.000 A 
ATOM     13  C   UNL     1      -0.278  13.439  18.350  0.00  0.00    +0.000 A 
ATOM     14  C   UNL     1       0.969  13.958  18.010  0.00  0.00    +0.000 A 
ATOM     15  C   UNL     1       2.129  13.347  18.481  0.00  0.00    +0.000 A 
ATOM     16  C   UNL     1       2.033  12.220  19.297  0.00  0.00    +0.000 A 
ENDBRANCH  10  11
BRANCH  10  18
ATOM     17  C   UNL     1      -0.865  10.311  22.655  0.00  0.00    +0.000 C 
ATOM     18  C   UNL     1      -0.762  10.263  21.135  0.00  0.00    +0.000 C 
ENDBRANCH  10  18
ENDBRANCH   1  10
BRANCH   4  19
ATOM     19  C   UNL     1       1.746   5.986  17.919  0.00  0.00    +0.000 C 
BRANCH  19  20
ATOM     20  C   UNL     1       1.637   4.642  18.605  0.00  0.00    +0.000 A 
ATOM     21  C   UNL     1       1.342   4.544  19.974  0.00  0.00    +0.000 A 
ATOM     22  C   UNL     1       1.229   3.297  20.593  0.00  0.00    +0.000 A 
ATOM     23  C   UNL     1       1.397   2.130  19.851  0.00  0.00    +0.000 A 
ATOM     24  C   UNL     1       1.687   2.214  18.489  0.00  0.00    +0.000 A 
ATOM     25  C   UNL     1       1.804   3.459  17.870  0.00  0.00    +0.000 A 
ENDBRANCH  19  20
ENDBRANCH   4  19
BRANCH   4  26
ATOM     26  C   UNL     1       4.206   6.629  18.425  0.00  0.00    +0.000 C 
BRANCH  26  27
ATOM     27  C   UNL     1       4.693   5.804  17.246  0.00  0.00    +0.000 A 
ATOM     28  C   UNL     1       4.971   6.468  16.038  0.00  0.00    +0.000 A 
ATOM     29  C   UNL     1       5.505   5.783  14.944  0.00  0.00    +0.000 A 
ATOM     30  C   UNL     1       5.779   4.422  15.040  0.00  0.00    +0.000 A 
ATOM     31  C   UNL     1       5.518   3.749  16.229  0.00  0.00    +0.000 A 
ATOM     32  C   UNL     1       4.987   4.435  17.324  0.00  0.00    +0.000 A 
ENDBRANCH  26  27
ENDBRANCH   4  26
TORSDOF 8
ENDMDL
