MODEL 1
REMARK VINA RESULT:      -6.6      0.000      0.000
REMARK  Name = 
REMARK  10 active torsions:
REMARK  status: ('A' for Active; 'I' for Inactive)
REMARK    1  A    between atoms: C_1  and  C_2
REMARK    2  A    between atoms: C_5  and  C_6
REMARK    3  A    between atoms: C_6  and  N_7
REMARK    4  A    between atoms: N_7  and  C_8
REMARK    5  A    between atoms: N_11  and  C_12
REMARK    6  A    between atoms: C_12  and  C_13
REMARK    7  A    between atoms: C_13  and  C_14
REMARK    8  A    between atoms: C_13  and  C_15
REMARK    9  A    between atoms: C_13  and  S_16
REMARK   10  A    between atoms: S_16  and  C_17
REMARK                            x       y       z     vdW  Elec       q    Type
REMARK                         _______ _______ _______ _____ _____    ______ ____
ROOT
ATOM      1  N   UNL     1       5.813   5.718  16.613  0.00  0.00    +0.000 N 
ATOM      2  C   UNL     1       5.038   6.772  15.968  0.00  0.00    +0.000 C 
ATOM      3  C   UNL     1       5.503   5.149  17.844  0.00  0.00    +0.000 C 
ATOM      4  O   UNL     1       6.174   4.273  18.383  0.00  0.00    +0.000 OA
ATOM      5  N   UNL     1       4.387   5.682  18.443  0.00  0.00    +0.000 N 
ATOM      6  H   UNL     1       3.968   6.494  18.028  0.00  0.00    +0.000 HD
ENDROOT
BRANCH   1   7
ATOM      7  C   UNL     1       7.102   5.393  16.007  0.00  0.00    +0.000 C 
BRANCH   7  12
ATOM      8  C   UNL     1       5.536   2.631  11.675  0.00  0.00    +0.000 C 
ATOM      9  C   UNL     1       6.230   3.564  12.608  0.00  0.00    +0.000 A 
ATOM     10  C   UNL     1       7.242   4.457  12.331  0.00  0.00    +0.000 A 
ATOM     11  C   UNL     1       7.680   5.152  13.497  0.00  0.00    +0.000 A 
ATOM     12  C   UNL     1       6.972   4.795  14.630  0.00  0.00    +0.000 A 
ATOM     13  S   UNL     1       5.790   3.608  14.259  0.00  0.00    +0.000 S 
ENDBRANCH   7  12
ENDBRANCH   1   7
BRANCH   5  14
ATOM     14  C   UNL     1       3.811   5.209  19.694  0.00  0.00    +0.000 C 
BRANCH  14  15
ATOM     15  C   UNL     1       2.492   4.436  19.485  0.00  0.00    +0.000 C 
ATOM     16  C   UNL     1       1.457   4.812  20.556  0.00  0.00    +0.000 C 
ATOM     17  C   UNL     1       1.901   4.730  18.089  0.00  0.00    +0.000 C 
BRANCH  15  18
ATOM     18  S   UNL     1       2.843   2.639  19.553  0.00  0.00    +0.000 S 
ATOM     19  C   UNL     1       3.160   2.119  17.882  0.00  0.00    +0.000 C 
ATOM     20  O   UNL     1       4.079   2.450  20.291  0.00  0.00    +0.000 OA
ATOM     21  O   UNL     1       1.635   1.962  19.986  0.00  0.00    +0.000 OA
ENDBRANCH  15  18
ENDBRANCH  14  15
ENDBRANCH   5  14
TORSDOF 5
ENDMDL
MODEL 2
REMARK VINA RESULT:      -6.6      1.386      1.761
REMARK  Name = 
REMARK  10 active torsions:
REMARK  status: ('A' for Active; 'I' for Inactive)
REMARK    1  A    between atoms: C_1  and  C_2
REMARK    2  A    between atoms: C_5  and  C_6
REMARK    3  A    between atoms: C_6  and  N_7
REMARK    4  A    between atoms: N_7  and  C_8
REMARK    5  A    between atoms: N_11  and  C_12
REMARK    6  A    between atoms: C_12  and  C_13
REMARK    7  A    between atoms: C_13  and  C_14
REMARK    8  A    between atoms: C_13  and  C_15
REMARK    9  A    between atoms: C_13  and  S_16
REMARK   10  A    between atoms: S_16  and  C_17
REMARK                            x       y       z     vdW  Elec       q    Type
REMARK                         _______ _______ _______ _____ _____    ______ ____
ROOT
ATOM      1  N   UNL     1       5.251   5.691  17.668  0.00  0.00    +0.000 N 
ATOM      2  C   UNL     1       4.295   6.745  17.348  0.00  0.00    +0.000 C 
ATOM      3  C   UNL     1       5.051   4.709  18.634  0.00  0.00    +0.000 C 
ATOM      4  O   UNL     1       5.873   3.837  18.905  0.00  0.00    +0.000 OA
ATOM      5  N   UNL     1       3.857   4.816  19.304  0.00  0.00    +0.000 N 
ATOM      6  H   UNL     1       3.296   5.632  19.145  0.00  0.00    +0.000 HD
ENDROOT
BRANCH   1   7
ATOM      7  C   UNL     1       6.578   5.809  17.068  0.00  0.00    +0.000 C 
BRANCH   7  12
ATOM      8  C   UNL     1       5.588   3.198  12.481  0.00  0.00    +0.000 C 
ATOM      9  C   UNL     1       6.189   4.052  13.544  0.00  0.00    +0.000 A 
ATOM     10  C   UNL     1       7.338   4.811  13.486  0.00  0.00    +0.000 A 
ATOM     11  C   UNL     1       7.614   5.464  14.723  0.00  0.00    +0.000 A 
ATOM     12  C   UNL     1       6.655   5.212  15.687  0.00  0.00    +0.000 A 
ATOM     13  S   UNL     1       5.436   4.173  15.073  0.00  0.00    +0.000 S 
ENDBRANCH   7  12
ENDBRANCH   1   7
BRANCH   5  14
ATOM     14  C   UNL     1       3.378   3.871  20.302  0.00  0.00    +0.000 C 
BRANCH  14  15
ATOM     15  C   UNL     1       1.851   3.659  20.236  0.00  0.00    +0.000 C 
ATOM     16  C   UNL     1       1.376   2.713  21.349  0.00  0.00    +0.000 C 
ATOM     17  C   UNL     1       1.106   5.006  20.368  0.00  0.00    +0.000 C 
BRANCH  15  18
ATOM     18  S   UNL     1       1.422   2.966  18.595  0.00  0.00    +0.000 S 
ATOM     19  C   UNL     1       2.737   1.852  18.154  0.00  0.00    +0.000 C 
ATOM     20  O   UNL     1       0.224   2.160  18.746  0.00  0.00    +0.000 OA
ATOM     21  O   UNL     1       1.444   4.050  17.630  0.00  0.00    +0.000 OA
ENDBRANCH  15  18
ENDBRANCH  14  15
ENDBRANCH   5  14
TORSDOF 5
ENDMDL
MODEL 3
REMARK VINA RESULT:      -6.4      4.881      7.438
REMARK  Name = 
REMARK  10 active torsions:
REMARK  status: ('A' for Active; 'I' for Inactive)
REMARK    1  A    between atoms: C_1  and  C_2
REMARK    2  A    between atoms: C_5  and  C_6
REMARK    3  A    between atoms: C_6  and  N_7
REMARK    4  A    between atoms: N_7  and  C_8
REMARK    5  A    between atoms: N_11  and  C_12
REMARK    6  A    between atoms: C_12  and  C_13
REMARK    7  A    between atoms: C_13  and  C_14
REMARK    8  A    between atoms: C_13  and  C_15
REMARK    9  A    between atoms: C_13  and  S_16
REMARK   10  A    between atoms: S_16  and  C_17
REMARK                            x       y       z     vdW  Elec       q    Type
REMARK                         _______ _______ _______ _____ _____    ______ ____
ROOT
ATOM      1  N   UNL     1       1.343   8.901  19.597  0.00  0.00    +0.000 N 
ATOM      2  C   UNL     1       0.873   8.847  20.977  0.00  0.00    +0.000 C 
ATOM      3  C   UNL     1       2.174   7.954  19.007  0.00  0.00    +0.000 C 
ATOM      4  O   UNL     1       2.575   8.021  17.848  0.00  0.00    +0.000 OA
ATOM      5  N   UNL     1       2.553   6.938  19.850  0.00  0.00    +0.000 N 
ATOM      6  H   UNL     1       2.318   7.015  20.822  0.00  0.00    +0.000 HD
ENDROOT
BRANCH   1   7
ATOM      7  C   UNL     1       1.076  10.137  18.865  0.00  0.00    +0.000 C 
BRANCH   7  12
ATOM      8  C   UNL     1      -4.039  11.737  18.528  0.00  0.00    +0.000 C 
ATOM      9  C   UNL     1      -2.728  11.066  18.298  0.00  0.00    +0.000 A 
ATOM     10  C   UNL     1      -2.391  10.153  17.322  0.00  0.00    +0.000 A 
ATOM     11  C   UNL     1      -1.045   9.703  17.449  0.00  0.00    +0.000 A 
ATOM     12  C   UNL     1      -0.376  10.303  18.499  0.00  0.00    +0.000 A 
ATOM     13  S   UNL     1      -1.404  11.401  19.324  0.00  0.00    +0.000 S 
ENDBRANCH   7  12
ENDBRANCH   1   7
BRANCH   5  14
ATOM     14  C   UNL     1       3.354   5.787  19.456  0.00  0.00    +0.000 C 
BRANCH  14  15
ATOM     15  C   UNL     1       2.524   4.489  19.367  0.00  0.00    +0.000 C 
ATOM     16  C   UNL     1       1.373   4.500  20.383  0.00  0.00    +0.000 C 
ATOM     17  C   UNL     1       1.942   4.308  17.948  0.00  0.00    +0.000 C 
BRANCH  15  18
ATOM     18  S   UNL     1       3.628   3.061  19.683  0.00  0.00    +0.000 S 
ATOM     19  C   UNL     1       3.247   1.841  18.446  0.00  0.00    +0.000 C 
ATOM     20  O   UNL     1       4.995   3.486  19.443  0.00  0.00    +0.000 OA
ATOM     21  O   UNL     1       3.266   2.490  20.967  0.00  0.00    +0.000 OA
ENDBRANCH  15  18
ENDBRANCH  14  15
ENDBRANCH   5  14
TORSDOF 5
ENDMDL
MODEL 4
REMARK VINA RESULT:      -6.3      1.462      1.817
REMARK  Name = 
REMARK  10 active torsions:
REMARK  status: ('A' for Active; 'I' for Inactive)
REMARK    1  A    between atoms: C_1  and  C_2
REMARK    2  A    between atoms: C_5  and  C_6
REMARK    3  A    between atoms: C_6  and  N_7
REMARK    4  A    between atoms: N_7  and  C_8
REMARK    5  A    between atoms: N_11  and  C_12
REMARK    6  A    between atoms: C_12  and  C_13
REMARK    7  A    between atoms: C_13  and  C_14
REMARK    8  A    between atoms: C_13  and  C_15
REMARK    9  A    between atoms: C_13  and  S_16
REMARK   10  A    between atoms: S_16  and  C_17
REMARK                            x       y       z     vdW  Elec       q    Type
REMARK                         _______ _______ _______ _____ _____    ______ ____
ROOT
ATOM      1  N   UNL     1       5.792   5.590  16.911  0.00  0.00    +0.000 N 
ATOM      2  C   UNL     1       4.788   6.477  16.335  0.00  0.00    +0.000 C 
ATOM      3  C   UNL     1       5.671   4.953  18.143  0.00  0.00    +0.000 C 
ATOM      4  O   UNL     1       6.533   4.222  18.624  0.00  0.00    +0.000 OA
ATOM      5  N   UNL     1       4.508   5.245  18.813  0.00  0.00    +0.000 N 
ATOM      6  H   UNL     1       3.914   5.963  18.442  0.00  0.00    +0.000 HD
ENDROOT
BRANCH   1   7
ATOM      7  C   UNL     1       7.083   5.536  16.231  0.00  0.00    +0.000 C 
BRANCH   7  12
ATOM      8  C   UNL     1       5.681   2.757  11.854  0.00  0.00    +0.000 C 
ATOM      9  C   UNL     1       6.329   3.705  12.805  0.00  0.00    +0.000 A 
ATOM     10  C   UNL     1       7.316   4.633  12.551  0.00  0.00    +0.000 A 
ATOM     11  C   UNL     1       7.710   5.333  13.729  0.00  0.00    +0.000 A 
ATOM     12  C   UNL     1       6.996   4.945  14.848  0.00  0.00    +0.000 A 
ATOM     13  S   UNL     1       5.860   3.723  14.448  0.00  0.00    +0.000 S 
ENDBRANCH   7  12
ENDBRANCH   1   7
BRANCH   5  14
ATOM     14  C   UNL     1       4.109   4.650  20.081  0.00  0.00    +0.000 C 
BRANCH  14  15
ATOM     15  C   UNL     1       3.285   3.359  19.897  0.00  0.00    +0.000 C 
ATOM     16  C   UNL     1       4.202   2.145  19.682  0.00  0.00    +0.000 C 
ATOM     17  C   UNL     1       2.389   3.102  21.128  0.00  0.00    +0.000 C 
BRANCH  15  18
ATOM     18  S   UNL     1       2.173   3.569  18.456  0.00  0.00    +0.000 S 
ATOM     19  C   UNL     1       0.750   2.546  18.758  0.00  0.00    +0.000 C 
ATOM     20  O   UNL     1       1.705   4.943  18.444  0.00  0.00    +0.000 OA
ATOM     21  O   UNL     1       2.844   3.026  17.289  0.00  0.00    +0.000 OA
ENDBRANCH  15  18
ENDBRANCH  14  15
ENDBRANCH   5  14
TORSDOF 5
ENDMDL
MODEL 5
REMARK VINA RESULT:      -6.2      5.304      7.853
REMARK  Name = 
REMARK  10 active torsions:
REMARK  status: ('A' for Active; 'I' for Inactive)
REMARK    1  A    between atoms: C_1  and  C_2
REMARK    2  A    between atoms: C_5  and  C_6
REMARK    3  A    between atoms: C_6  and  N_7
REMARK    4  A    between atoms: N_7  and  C_8
REMARK    5  A    between atoms: N_11  and  C_12
REMARK    6  A    between atoms: C_12  and  C_13
REMARK    7  A    between atoms: C_13  and  C_14
REMARK    8  A    between atoms: C_13  and  C_15
REMARK    9  A    between atoms: C_13  and  S_16
REMARK   10  A    between atoms: S_16  and  C_17
REMARK                            x       y       z     vdW  Elec       q    Type
REMARK                         _______ _______ _______ _____ _____    ______ ____
ROOT
ATOM      1  N   UNL     1       1.134   9.342  19.312  0.00  0.00    +0.000 N 
ATOM      2  C   UNL     1       0.865   8.961  20.694  0.00  0.00    +0.000 C 
ATOM      3  C   UNL     1       1.948   8.627  18.439  0.00  0.00    +0.000 C 
ATOM      4  O   UNL     1       2.179   8.970  17.282  0.00  0.00    +0.000 OA
ATOM      5  N   UNL     1       2.518   7.508  18.994  0.00  0.00    +0.000 N 
ATOM      6  H   UNL     1       2.414   7.362  19.980  0.00  0.00    +0.000 HD
ENDROOT
BRANCH   1   7
ATOM      7  C   UNL     1       0.672  10.665  18.899  0.00  0.00    +0.000 C 
BRANCH   7  12
ATOM      8  C   UNL     1      -4.547  11.818  18.377  0.00  0.00    +0.000 C 
ATOM      9  C   UNL     1      -3.183  11.239  18.217  0.00  0.00    +0.000 A 
ATOM     10  C   UNL     1      -2.758  10.282  17.321  0.00  0.00    +0.000 A 
ATOM     11  C   UNL     1      -1.383   9.952  17.498  0.00  0.00    +0.000 A 
ATOM     12  C   UNL     1      -0.782  10.685  18.505  0.00  0.00    +0.000 A 
ATOM     13  S   UNL     1      -1.908  11.759  19.228  0.00  0.00    +0.000 S 
ENDBRANCH   7  12
ENDBRANCH   1   7
BRANCH   5  14
ATOM     14  C   UNL     1       3.345   6.552  18.270  0.00  0.00    +0.000 C 
BRANCH  14  15
ATOM     15  C   UNL     1       3.051   5.091  18.668  0.00  0.00    +0.000 C 
ATOM     16  C   UNL     1       2.751   4.980  20.170  0.00  0.00    +0.000 C 
ATOM     17  C   UNL     1       1.850   4.538  17.872  0.00  0.00    +0.000 C 
BRANCH  15  18
ATOM     18  S   UNL     1       4.503   4.059  18.239  0.00  0.00    +0.000 S 
ATOM     19  C   UNL     1       5.681   5.139  17.458  0.00  0.00    +0.000 C 
ATOM     20  O   UNL     1       5.112   3.600  19.475  0.00  0.00    +0.000 OA
ATOM     21  O   UNL     1       4.086   3.093  17.239  0.00  0.00    +0.000 OA
ENDBRANCH  15  18
ENDBRANCH  14  15
ENDBRANCH   5  14
TORSDOF 5
ENDMDL
MODEL 6
REMARK VINA RESULT:      -6.2      1.175      1.722
REMARK  Name = 
REMARK  10 active torsions:
REMARK  status: ('A' for Active; 'I' for Inactive)
REMARK    1  A    between atoms: C_1  and  C_2
REMARK    2  A    between atoms: C_5  and  C_6
REMARK    3  A    between atoms: C_6  and  N_7
REMARK    4  A    between atoms: N_7  and  C_8
REMARK    5  A    between atoms: N_11  and  C_12
REMARK    6  A    between atoms: C_12  and  C_13
REMARK    7  A    between atoms: C_13  and  C_14
REMARK    8  A    between atoms: C_13  and  C_15
REMARK    9  A    between atoms: C_13  and  S_16
REMARK   10  A    between atoms: S_16  and  C_17
REMARK                            x       y       z     vdW  Elec       q    Type
REMARK                         _______ _______ _______ _____ _____    ______ ____
ROOT
ATOM      1  N   UNL     1       5.807   5.720  16.488  0.00  0.00    +0.000 N 
ATOM      2  C   UNL     1       5.001   6.833  15.999  0.00  0.00    +0.000 C 
ATOM      3  C   UNL     1       5.519   4.977  17.628  0.00  0.00    +0.000 C 
ATOM      4  O   UNL     1       6.217   4.053  18.038  0.00  0.00    +0.000 OA
ATOM      5  N   UNL     1       4.394   5.392  18.299  0.00  0.00    +0.000 N 
ATOM      6  H   UNL     1       3.952   6.242  18.003  0.00  0.00    +0.000 HD
ENDROOT
BRANCH   1   7
ATOM      7  C   UNL     1       7.100   5.517  15.840  0.00  0.00    +0.000 C 
BRANCH   7  12
ATOM      8  C   UNL     1       5.564   2.565  11.624  0.00  0.00    +0.000 C 
ATOM      9  C   UNL     1       6.259   3.531  12.522  0.00  0.00    +0.000 A 
ATOM     10  C   UNL     1       7.296   4.387  12.221  0.00  0.00    +0.000 A 
ATOM     11  C   UNL     1       7.724   5.133  13.358  0.00  0.00    +0.000 A 
ATOM     12  C   UNL     1       6.986   4.851  14.493  0.00  0.00    +0.000 A 
ATOM     13  S   UNL     1       5.786   3.671  14.158  0.00  0.00    +0.000 S 
ENDBRANCH   7  12
ENDBRANCH   1   7
BRANCH   5  14
ATOM     14  C   UNL     1       3.838   4.734  19.473  0.00  0.00    +0.000 C 
BRANCH  14  15
ATOM     15  C   UNL     1       2.756   3.694  19.114  0.00  0.00    +0.000 C 
ATOM     16  C   UNL     1       2.152   3.983  17.732  0.00  0.00    +0.000 C 
ATOM     17  C   UNL     1       3.346   2.267  19.118  0.00  0.00    +0.000 C 
BRANCH  15  18
ATOM     18  S   UNL     1       1.447   3.739  20.395  0.00  0.00    +0.000 S 
ATOM     19  C   UNL     1       2.114   2.934  21.833  0.00  0.00    +0.000 C 
ATOM     20  O   UNL     1       1.220   5.127  20.759  0.00  0.00    +0.000 OA
ATOM     21  O   UNL     1       0.337   2.926  19.931  0.00  0.00    +0.000 OA
ENDBRANCH  15  18
ENDBRANCH  14  15
ENDBRANCH   5  14
TORSDOF 5
ENDMDL
MODEL 7
REMARK VINA RESULT:      -6.1      1.509      1.877
REMARK  Name = 
REMARK  10 active torsions:
REMARK  status: ('A' for Active; 'I' for Inactive)
REMARK    1  A    between atoms: C_1  and  C_2
REMARK    2  A    between atoms: C_5  and  C_6
REMARK    3  A    between atoms: C_6  and  N_7
REMARK    4  A    between atoms: N_7  and  C_8
REMARK    5  A    between atoms: N_11  and  C_12
REMARK    6  A    between atoms: C_12  and  C_13
REMARK    7  A    between atoms: C_13  and  C_14
REMARK    8  A    between atoms: C_13  and  C_15
REMARK    9  A    between atoms: C_13  and  S_16
REMARK   10  A    between atoms: S_16  and  C_17
REMARK                            x       y       z     vdW  Elec       q    Type
REMARK                         _______ _______ _______ _____ _____    ______ ____
ROOT
ATOM      1  N   UNL     1       5.116   5.788  17.660  0.00  0.00    +0.000 N 
ATOM      2  C   UNL     1       4.235   6.945  17.544  0.00  0.00    +0.000 C 
ATOM      3  C   UNL     1       4.967   4.772  18.599  0.00  0.00    +0.000 C 
ATOM      4  O   UNL     1       5.727   3.812  18.696  0.00  0.00    +0.000 OA
ATOM      5  N   UNL     1       3.906   4.949  19.453  0.00  0.00    +0.000 N 
ATOM      6  H   UNL     1       3.413   5.822  19.423  0.00  0.00    +0.000 HD
ENDROOT
BRANCH   1   7
ATOM      7  C   UNL     1       6.341   5.818  16.864  0.00  0.00    +0.000 C 
BRANCH   7  12
ATOM      8  C   UNL     1       7.153   3.754  11.974  0.00  0.00    +0.000 C 
ATOM      9  C   UNL     1       6.572   4.128  13.294  0.00  0.00    +0.000 A 
ATOM     10  C   UNL     1       5.353   3.768  13.827  0.00  0.00    +0.000 A 
ATOM     11  C   UNL     1       5.130   4.357  15.105  0.00  0.00    +0.000 A 
ATOM     12  C   UNL     1       6.195   5.130  15.532  0.00  0.00    +0.000 A 
ATOM     13  S   UNL     1       7.448   5.134  14.361  0.00  0.00    +0.000 S 
ENDBRANCH   7  12
ENDBRANCH   1   7
BRANCH   5  14
ATOM     14  C   UNL     1       3.491   3.993  20.470  0.00  0.00    +0.000 C 
BRANCH  14  15
ATOM     15  C   UNL     1       1.988   3.655  20.389  0.00  0.00    +0.000 C 
ATOM     16  C   UNL     1       1.575   2.703  21.522  0.00  0.00    +0.000 C 
ATOM     17  C   UNL     1       1.133   4.938  20.473  0.00  0.00    +0.000 C 
BRANCH  15  18
ATOM     18  S   UNL     1       1.643   2.884  18.763  0.00  0.00    +0.000 S 
ATOM     19  C   UNL     1       1.451   4.215  17.600  0.00  0.00    +0.000 C 
ATOM     20  O   UNL     1       2.823   2.141  18.358  0.00  0.00    +0.000 OA
ATOM     21  O   UNL     1       0.361   2.208  18.850  0.00  0.00    +0.000 OA
ENDBRANCH  15  18
ENDBRANCH  14  15
ENDBRANCH   5  14
TORSDOF 5
ENDMDL
MODEL 8
REMARK VINA RESULT:      -6.1      5.192      7.776
REMARK  Name = 
REMARK  10 active torsions:
REMARK  status: ('A' for Active; 'I' for Inactive)
REMARK    1  A    between atoms: C_1  and  C_2
REMARK    2  A    between atoms: C_5  and  C_6
REMARK    3  A    between atoms: C_6  and  N_7
REMARK    4  A    between atoms: N_7  and  C_8
REMARK    5  A    between atoms: N_11  and  C_12
REMARK    6  A    between atoms: C_12  and  C_13
REMARK    7  A    between atoms: C_13  and  C_14
REMARK    8  A    between atoms: C_13  and  C_15
REMARK    9  A    between atoms: C_13  and  S_16
REMARK   10  A    between atoms: S_16  and  C_17
REMARK                            x       y       z     vdW  Elec       q    Type
REMARK                         _______ _______ _______ _____ _____    ______ ____
ROOT
ATOM      1  N   UNL     1       1.406   9.037  19.303  0.00  0.00    +0.000 N 
ATOM      2  C   UNL     1       1.208   8.408  20.605  0.00  0.00    +0.000 C 
ATOM      3  C   UNL     1       2.151   8.487  18.265  0.00  0.00    +0.000 C 
ATOM      4  O   UNL     1       2.324   9.036  17.180  0.00  0.00    +0.000 OA
ATOM      5  N   UNL     1       2.726   7.276  18.567  0.00  0.00    +0.000 N 
ATOM      6  H   UNL     1       2.675   6.951  19.515  0.00  0.00    +0.000 HD
ENDROOT
BRANCH   1   7
ATOM      7  C   UNL     1       0.954  10.420  19.171  0.00  0.00    +0.000 C 
BRANCH   7  12
ATOM      8  C   UNL     1      -4.194  11.824  18.565  0.00  0.00    +0.000 C 
ATOM      9  C   UNL     1      -2.849  11.202  18.406  0.00  0.00    +0.000 A 
ATOM     10  C   UNL     1      -2.429  10.298  17.455  0.00  0.00    +0.000 A 
ATOM     11  C   UNL     1      -1.076   9.899  17.652  0.00  0.00    +0.000 A 
ATOM     12  C   UNL     1      -0.483  10.530  18.731  0.00  0.00    +0.000 A 
ATOM     13  S   UNL     1      -1.592  11.592  19.496  0.00  0.00    +0.000 S 
ENDBRANCH   7  12
ENDBRANCH   1   7
BRANCH   5  14
ATOM     14  C   UNL     1       3.487   6.462  17.630  0.00  0.00    +0.000 C 
BRANCH  14  15
ATOM     15  C   UNL     1       3.693   5.017  18.130  0.00  0.00    +0.000 C 
ATOM     16  C   UNL     1       4.382   4.157  17.061  0.00  0.00    +0.000 C 
ATOM     17  C   UNL     1       4.548   5.001  19.417  0.00  0.00    +0.000 C 
BRANCH  15  18
ATOM     18  S   UNL     1       2.061   4.302  18.559  0.00  0.00    +0.000 S 
ATOM     19  C   UNL     1       2.312   2.554  18.771  0.00  0.00    +0.000 C 
ATOM     20  O   UNL     1       1.665   4.828  19.853  0.00  0.00    +0.000 OA
ATOM     21  O   UNL     1       1.185   4.469  17.414  0.00  0.00    +0.000 OA
ENDBRANCH  15  18
ENDBRANCH  14  15
ENDBRANCH   5  14
TORSDOF 5
ENDMDL
MODEL 9
REMARK VINA RESULT:      -6.1      5.154      6.838
REMARK  Name = 
REMARK  10 active torsions:
REMARK  status: ('A' for Active; 'I' for Inactive)
REMARK    1  A    between atoms: C_1  and  C_2
REMARK    2  A    between atoms: C_5  and  C_6
REMARK    3  A    between atoms: C_6  and  N_7
REMARK    4  A    between atoms: N_7  and  C_8
REMARK    5  A    between atoms: N_11  and  C_12
REMARK    6  A    between atoms: C_12  and  C_13
REMARK    7  A    between atoms: C_13  and  C_14
REMARK    8  A    between atoms: C_13  and  C_15
REMARK    9  A    between atoms: C_13  and  S_16
REMARK   10  A    between atoms: S_16  and  C_17
REMARK                            x       y       z     vdW  Elec       q    Type
REMARK                         _______ _______ _______ _____ _____    ______ ____
ROOT
ATOM      1  N   UNL     1       2.552   7.509  18.833  0.00  0.00    +0.000 N 
ATOM      2  C   UNL     1       2.300   6.876  20.123  0.00  0.00    +0.000 C 
ATOM      3  C   UNL     1       1.952   8.688  18.401  0.00  0.00    +0.000 C 
ATOM      4  O   UNL     1       2.161   9.201  17.304  0.00  0.00    +0.000 OA
ATOM      5  N   UNL     1       1.059   9.223  19.296  0.00  0.00    +0.000 N 
ATOM      6  H   UNL     1       0.818   8.684  20.106  0.00  0.00    +0.000 HD
ENDROOT
BRANCH   1   7
ATOM      7  C   UNL     1       3.332   6.737  17.869  0.00  0.00    +0.000 C 
BRANCH   7  12
ATOM      8  C   UNL     1       3.575   1.410  18.506  0.00  0.00    +0.000 C 
ATOM      9  C   UNL     1       3.114   2.805  18.252  0.00  0.00    +0.000 A 
ATOM     10  C   UNL     1       1.847   3.245  17.937  0.00  0.00    +0.000 A 
ATOM     11  C   UNL     1       1.804   4.654  17.727  0.00  0.00    +0.000 A 
ATOM     12  C   UNL     1       3.032   5.262  17.915  0.00  0.00    +0.000 A 
ATOM     13  S   UNL     1       4.224   4.101  18.335  0.00  0.00    +0.000 S 
ENDBRANCH   7  12
ENDBRANCH   1   7
BRANCH   5  14
ATOM     14  C   UNL     1       0.360  10.488  19.115  0.00  0.00    +0.000 C 
BRANCH  14  15
ATOM     15  C   UNL     1       0.025  11.178  20.454  0.00  0.00    +0.000 C 
ATOM     16  C   UNL     1       1.033  12.296  20.765  0.00  0.00    +0.000 C 
ATOM     17  C   UNL     1      -1.397  11.778  20.419  0.00  0.00    +0.000 C 
BRANCH  15  18
ATOM     18  S   UNL     1       0.048   9.922  21.787  0.00  0.00    +0.000 S 
ATOM     19  C   UNL     1      -0.897  10.595  23.135  0.00  0.00    +0.000 C 
ATOM     20  O   UNL     1      -0.671   8.752  21.316  0.00  0.00    +0.000 OA
ATOM     21  O   UNL     1       1.416   9.788  22.254  0.00  0.00    +0.000 OA
ENDBRANCH  15  18
ENDBRANCH  14  15
ENDBRANCH   5  14
TORSDOF 5
ENDMDL
