MODEL 1
REMARK VINA RESULT:      -9.0      0.000      0.000
REMARK  Name = 
REMARK  5 active torsions:
REMARK  status: ('A' for Active; 'I' for Inactive)
REMARK    1  A    between atoms: C_1  and  C_2
REMARK    2  A    between atoms: C_2  and  C_3
REMARK    3  A    between atoms: C_8  and  C_9
REMARK    4  A    between atoms: N_12  and  S_13
REMARK    5  A    between atoms: S_13  and  C_16
REMARK                            x       y       z     vdW  Elec       q    Type
REMARK                         _______ _______ _______ _____ _____    ______ ____
ROOT
ATOM      1  C   UNL     1       2.489   6.651  19.709  0.00  0.00    +0.000 A 
ATOM      2  C   UNL     1       1.974   5.499  20.364  0.00  0.00    +0.000 A 
ATOM      3  C   UNL     1       2.933   4.529  20.218  0.00  0.00    +0.000 A 
ATOM      4  N   UNL     1       3.981   5.129  19.563  0.00  0.00    +0.000 N 
ATOM      5  N   UNL     1       3.678   6.386  19.139  0.00  0.00    +0.000 NA
ENDROOT
BRANCH   1  13
ATOM      6  C   UNL     1      -1.426  13.423  19.919  0.00  0.00    +0.000 C 
ATOM      7  C   UNL     1      -0.364  12.427  20.411  0.00  0.00    +0.000 C 
ATOM      8  C   UNL     1       0.818  13.220  20.988  0.00  0.00    +0.000 C 
ATOM      9  C   UNL     1      -1.003  11.487  21.444  0.00  0.00    +0.000 C 
ATOM     10  C   UNL     1      -0.039  10.384  21.853  0.00  0.00    +0.000 C 
ATOM     11  C   UNL     1       0.615   9.794  20.642  0.00  0.00    +0.000 A 
ATOM     12  C   UNL     1       1.232   8.538  20.727  0.00  0.00    +0.000 A 
ATOM     13  C   UNL     1       1.861   7.964  19.610  0.00  0.00    +0.000 A 
ATOM     14  C   UNL     1       1.868   8.671  18.400  0.00  0.00    +0.000 A 
ATOM     15  C   UNL     1       1.259   9.925  18.312  0.00  0.00    +0.000 A 
ATOM     16  C   UNL     1       0.646  10.487  19.432  0.00  0.00    +0.000 A 
ATOM     17  O   UNL     1       0.079  11.717  19.239  0.00  0.00    +0.000 OA
ENDBRANCH   1  13
BRANCH   4  18
ATOM     18  S   UNL     1       5.430   4.254  19.205  0.00  0.00    +0.000 S 
ATOM     19  O   UNL     1       6.499   4.957  19.899  0.00  0.00    +0.000 OA
ATOM     20  O   UNL     1       5.143   2.868  19.519  0.00  0.00    +0.000 OA
BRANCH  18  21
ATOM     21  C   UNL     1       5.655   4.476  17.463  0.00  0.00    +0.000 A 
ATOM     22  C   UNL     1       6.877   5.015  17.015  0.00  0.00    +0.000 A 
ATOM     23  C   UNL     1       7.136   5.120  15.643  0.00  0.00    +0.000 A 
ATOM     24  C   UNL     1       6.188   4.683  14.720  0.00  0.00    +0.000 A 
ATOM     25  C   UNL     1       4.974   4.163  15.165  0.00  0.00    +0.000 A 
ATOM     26  C   UNL     1       4.695   4.063  16.534  0.00  0.00    +0.000 A 
ATOM     27 CL   UNL     1       3.130   3.456  16.931  0.00  0.00    +0.000 Cl
ENDBRANCH  18  21
ENDBRANCH   4  18
TORSDOF 3
ENDMDL
MODEL 2
REMARK VINA RESULT:      -9.0      2.390      3.602
REMARK  Name = 
REMARK  5 active torsions:
REMARK  status: ('A' for Active; 'I' for Inactive)
REMARK    1  A    between atoms: C_1  and  C_2
REMARK    2  A    between atoms: C_2  and  C_3
REMARK    3  A    between atoms: C_8  and  C_9
REMARK    4  A    between atoms: N_12  and  S_13
REMARK    5  A    between atoms: S_13  and  C_16
REMARK                            x       y       z     vdW  Elec       q    Type
REMARK                         _______ _______ _______ _____ _____    ______ ____
ROOT
ATOM      1  C   UNL     1       2.120   8.324  18.818  0.00  0.00    +0.000 A 
ATOM      2  C   UNL     1       2.759   8.441  17.553  0.00  0.00    +0.000 A 
ATOM      3  C   UNL     1       3.575   7.344  17.446  0.00  0.00    +0.000 A 
ATOM      4  N   UNL     1       3.358   6.598  18.580  0.00  0.00    +0.000 N 
ATOM      5  N   UNL     1       2.565   7.242  19.480  0.00  0.00    +0.000 NA
ENDROOT
BRANCH   1  13
ATOM      6  C   UNL     1      -3.209  12.579  22.654  0.00  0.00    +0.000 C 
ATOM      7  C   UNL     1      -1.781  12.091  22.365  0.00  0.00    +0.000 C 
ATOM      8  C   UNL     1      -0.802  13.230  22.687  0.00  0.00    +0.000 C 
ATOM      9  C   UNL     1      -1.508  10.827  23.195  0.00  0.00    +0.000 C 
ATOM     10  C   UNL     1      -0.164  10.213  22.835  0.00  0.00    +0.000 C 
ATOM     11  C   UNL     1      -0.006  10.152  21.346  0.00  0.00    +0.000 A 
ATOM     12  C   UNL     1       0.952   9.298  20.783  0.00  0.00    +0.000 A 
ATOM     13  C   UNL     1       1.128   9.226  19.392  0.00  0.00    +0.000 A 
ATOM     14  C   UNL     1       0.331  10.032  18.566  0.00  0.00    +0.000 A 
ATOM     15  C   UNL     1      -0.620  10.889  19.123  0.00  0.00    +0.000 A 
ATOM     16  C   UNL     1      -0.778  10.957  20.507  0.00  0.00    +0.000 A 
ATOM     17  O   UNL     1      -1.738  11.826  20.950  0.00  0.00    +0.000 OA
ENDBRANCH   1  13
BRANCH   4  18
ATOM     18  S   UNL     1       4.175   5.094  18.831  0.00  0.00    +0.000 S 
ATOM     19  O   UNL     1       4.415   4.547  17.504  0.00  0.00    +0.000 OA
ATOM     20  O   UNL     1       5.288   5.391  19.712  0.00  0.00    +0.000 OA
BRANCH  18  21
ATOM     21  C   UNL     1       2.976   4.078  19.645  0.00  0.00    +0.000 A 
ATOM     22  C   UNL     1       3.273   3.605  20.939  0.00  0.00    +0.000 A 
ATOM     23  C   UNL     1       2.317   2.879  21.658  0.00  0.00    +0.000 A 
ATOM     24  C   UNL     1       1.066   2.630  21.097  0.00  0.00    +0.000 A 
ATOM     25  C   UNL     1       0.777   3.086  19.812  0.00  0.00    +0.000 A 
ATOM     26  C   UNL     1       1.728   3.804  19.076  0.00  0.00    +0.000 A 
ATOM     27 CL   UNL     1       1.249   4.250  17.480  0.00  0.00    +0.000 Cl
ENDBRANCH  18  21
ENDBRANCH   4  18
TORSDOF 3
ENDMDL
MODEL 3
REMARK VINA RESULT:      -8.9      1.285      1.633
REMARK  Name = 
REMARK  5 active torsions:
REMARK  status: ('A' for Active; 'I' for Inactive)
REMARK    1  A    between atoms: C_1  and  C_2
REMARK    2  A    between atoms: C_2  and  C_3
REMARK    3  A    between atoms: C_8  and  C_9
REMARK    4  A    between atoms: N_12  and  S_13
REMARK    5  A    between atoms: S_13  and  C_16
REMARK                            x       y       z     vdW  Elec       q    Type
REMARK                         _______ _______ _______ _____ _____    ______ ____
ROOT
ATOM      1  C   UNL     1       2.302   6.423  19.566  0.00  0.00    +0.000 A 
ATOM      2  C   UNL     1       1.916   5.587  20.649  0.00  0.00    +0.000 A 
ATOM      3  C   UNL     1       2.546   4.387  20.434  0.00  0.00    +0.000 A 
ATOM      4  N   UNL     1       3.313   4.558  19.306  0.00  0.00    +0.000 N 
ATOM      5  N   UNL     1       3.081   5.753  18.698  0.00  0.00    +0.000 NA
ENDROOT
BRANCH   1  13
ATOM      6  C   UNL     1      -0.396  13.751  19.069  0.00  0.00    +0.000 C 
ATOM      7  C   UNL     1       0.406  12.617  19.727  0.00  0.00    +0.000 C 
ATOM      8  C   UNL     1       1.620  13.230  20.442  0.00  0.00    +0.000 C 
ATOM      9  C   UNL     1      -0.514  11.845  20.685  0.00  0.00    +0.000 C 
ATOM     10  C   UNL     1       0.186  10.619  21.250  0.00  0.00    +0.000 C 
ATOM     11  C   UNL     1       0.883   9.872  20.154  0.00  0.00    +0.000 A 
ATOM     12  C   UNL     1       1.262   8.537  20.354  0.00  0.00    +0.000 A 
ATOM     13  C   UNL     1       1.925   7.815  19.349  0.00  0.00    +0.000 A 
ATOM     14  C   UNL     1       2.212   8.454  18.134  0.00  0.00    +0.000 A 
ATOM     15  C   UNL     1       1.842   9.785  17.933  0.00  0.00    +0.000 A 
ATOM     16  C   UNL     1       1.192  10.493  18.944  0.00  0.00    +0.000 A 
ATOM     17  O   UNL     1       0.872  11.790  18.644  0.00  0.00    +0.000 OA
ENDBRANCH   1  13
BRANCH   4  18
ATOM     18  S   UNL     1       4.308   3.280  18.699  0.00  0.00    +0.000 S 
ATOM     19  O   UNL     1       5.132   2.853  19.821  0.00  0.00    +0.000 OA
ATOM     20  O   UNL     1       3.404   2.344  18.059  0.00  0.00    +0.000 OA
BRANCH  18  21
ATOM     21  C   UNL     1       5.352   4.069  17.507  0.00  0.00    +0.000 A 
ATOM     22  C   UNL     1       5.155   3.763  16.146  0.00  0.00    +0.000 A 
ATOM     23  C   UNL     1       5.892   4.434  15.163  0.00  0.00    +0.000 A 
ATOM     24  C   UNL     1       6.814   5.411  15.530  0.00  0.00    +0.000 A 
ATOM     25  C   UNL     1       7.018   5.704  16.877  0.00  0.00    +0.000 A 
ATOM     26  C   UNL     1       6.296   5.033  17.873  0.00  0.00    +0.000 A 
ATOM     27 CL   UNL     1       6.699   5.458  19.495  0.00  0.00    +0.000 Cl
ENDBRANCH  18  21
ENDBRANCH   4  18
TORSDOF 3
ENDMDL
MODEL 4
REMARK VINA RESULT:      -8.9      6.021      7.343
REMARK  Name = 
REMARK  5 active torsions:
REMARK  status: ('A' for Active; 'I' for Inactive)
REMARK    1  A    between atoms: C_1  and  C_2
REMARK    2  A    between atoms: C_2  and  C_3
REMARK    3  A    between atoms: C_8  and  C_9
REMARK    4  A    between atoms: N_12  and  S_13
REMARK    5  A    between atoms: S_13  and  C_16
REMARK                            x       y       z     vdW  Elec       q    Type
REMARK                         _______ _______ _______ _____ _____    ______ ____
ROOT
ATOM      1  C   UNL     1       7.898   8.349  17.985  0.00  0.00    +0.000 A 
ATOM      2  C   UNL     1       8.239   7.193  18.739  0.00  0.00    +0.000 A 
ATOM      3  C   UNL     1       7.561   6.155  18.153  0.00  0.00    +0.000 A 
ATOM      4  N   UNL     1       6.911   6.691  17.067  0.00  0.00    +0.000 N 
ATOM      5  N   UNL     1       7.010   8.048  17.022  0.00  0.00    +0.000 NA
ENDROOT
BRANCH   1  13
ATOM      6  C   UNL     1      10.673  15.389  19.977  0.00  0.00    +0.000 C 
ATOM      7  C   UNL     1      10.815  13.905  19.604  0.00  0.00    +0.000 C 
ATOM      8  C   UNL     1      12.145  13.713  18.861  0.00  0.00    +0.000 C 
ATOM      9  C   UNL     1      10.728  13.059  20.884  0.00  0.00    +0.000 C 
ATOM     10  C   UNL     1      10.709  11.573  20.559  0.00  0.00    +0.000 C 
ATOM     11  C   UNL     1       9.749  11.301  19.442  0.00  0.00    +0.000 A 
ATOM     12  C   UNL     1       9.281   9.996  19.231  0.00  0.00    +0.000 A 
ATOM     13  C   UNL     1       8.388   9.709  18.186  0.00  0.00    +0.000 A 
ATOM     14  C   UNL     1       7.971  10.751  17.346  0.00  0.00    +0.000 A 
ATOM     15  C   UNL     1       8.440  12.050  17.549  0.00  0.00    +0.000 A 
ATOM     16  C   UNL     1       9.334  12.320  18.585  0.00  0.00    +0.000 A 
ATOM     17  O   UNL     1       9.731  13.625  18.699  0.00  0.00    +0.000 OA
ENDBRANCH   1  13
BRANCH   4  18
ATOM     18  S   UNL     1       5.955   5.702  16.018  0.00  0.00    +0.000 S 
ATOM     19  O   UNL     1       5.336   6.616  15.069  0.00  0.00    +0.000 OA
ATOM     20  O   UNL     1       6.838   4.651  15.552  0.00  0.00    +0.000 OA
BRANCH  18  21
ATOM     21  C   UNL     1       4.690   5.048  17.070  0.00  0.00    +0.000 A 
ATOM     22  C   UNL     1       4.666   3.657  17.293  0.00  0.00    +0.000 A 
ATOM     23  C   UNL     1       3.744   3.107  18.191  0.00  0.00    +0.000 A 
ATOM     24  C   UNL     1       2.856   3.936  18.872  0.00  0.00    +0.000 A 
ATOM     25  C   UNL     1       2.872   5.310  18.641  0.00  0.00    +0.000 A 
ATOM     26  C   UNL     1       3.781   5.874  17.737  0.00  0.00    +0.000 A 
ATOM     27 CL   UNL     1       3.642   7.579  17.511  0.00  0.00    +0.000 Cl
ENDBRANCH  18  21
ENDBRANCH   4  18
TORSDOF 3
ENDMDL
MODEL 5
REMARK VINA RESULT:      -8.7      6.303      7.791
REMARK  Name = 
REMARK  5 active torsions:
REMARK  status: ('A' for Active; 'I' for Inactive)
REMARK    1  A    between atoms: C_1  and  C_2
REMARK    2  A    between atoms: C_2  and  C_3
REMARK    3  A    between atoms: C_8  and  C_9
REMARK    4  A    between atoms: N_12  and  S_13
REMARK    5  A    between atoms: S_13  and  C_16
REMARK                            x       y       z     vdW  Elec       q    Type
REMARK                         _______ _______ _______ _____ _____    ______ ____
ROOT
ATOM      1  C   UNL     1       8.475   8.867  18.261  0.00  0.00    +0.000 A 
ATOM      2  C   UNL     1       7.686   8.667  17.095  0.00  0.00    +0.000 A 
ATOM      3  C   UNL     1       7.272   7.361  17.146  0.00  0.00    +0.000 A 
ATOM      4  N   UNL     1       7.753   6.857  18.331  0.00  0.00    +0.000 N 
ATOM      5  N   UNL     1       8.589   7.726  18.962  0.00  0.00    +0.000 NA
ENDROOT
BRANCH   1  13
ATOM      6  C   UNL     1      12.333  15.525  19.678  0.00  0.00    +0.000 C 
ATOM      7  C   UNL     1      11.192  14.694  19.071  0.00  0.00    +0.000 C 
ATOM      8  C   UNL     1       9.930  15.567  19.014  0.00  0.00    +0.000 C 
ATOM      9  C   UNL     1      11.624  14.190  17.685  0.00  0.00    +0.000 C 
ATOM     10  C   UNL     1      10.593  13.236  17.102  0.00  0.00    +0.000 C 
ATOM     11  C   UNL     1      10.169  12.239  18.136  0.00  0.00    +0.000 A 
ATOM     12  C   UNL     1       9.537  11.052  17.740  0.00  0.00    +0.000 A 
ATOM     13  C   UNL     1       9.120  10.104  18.688  0.00  0.00    +0.000 A 
ATOM     14  C   UNL     1       9.340  10.364  20.047  0.00  0.00    +0.000 A 
ATOM     15  C   UNL     1       9.964  11.547  20.447  0.00  0.00    +0.000 A 
ATOM     16  C   UNL     1      10.365  12.485  19.495  0.00  0.00    +0.000 A 
ATOM     17  O   UNL     1      10.967  13.609  19.992  0.00  0.00    +0.000 OA
ENDBRANCH   1  13
BRANCH   4  18
ATOM     18  S   UNL     1       7.424   5.227  18.809  0.00  0.00    +0.000 S 
ATOM     19  O   UNL     1       8.204   4.386  17.912  0.00  0.00    +0.000 OA
ATOM     20  O   UNL     1       7.655   5.180  20.239  0.00  0.00    +0.000 OA
BRANCH  18  21
ATOM     21  C   UNL     1       5.709   5.002  18.435  0.00  0.00    +0.000 A 
ATOM     22  C   UNL     1       4.762   5.388  19.404  0.00  0.00    +0.000 A 
ATOM     23  C   UNL     1       3.394   5.317  19.116  0.00  0.00    +0.000 A 
ATOM     24  C   UNL     1       2.969   4.872  17.866  0.00  0.00    +0.000 A 
ATOM     25  C   UNL     1       3.906   4.477  16.913  0.00  0.00    +0.000 A 
ATOM     26  C   UNL     1       5.277   4.532  17.191  0.00  0.00    +0.000 A 
ATOM     27 CL   UNL     1       6.312   3.955  15.938  0.00  0.00    +0.000 Cl
ENDBRANCH  18  21
ENDBRANCH   4  18
TORSDOF 3
ENDMDL
MODEL 6
REMARK VINA RESULT:      -8.5      3.658      8.641
REMARK  Name = 
REMARK  5 active torsions:
REMARK  status: ('A' for Active; 'I' for Inactive)
REMARK    1  A    between atoms: C_1  and  C_2
REMARK    2  A    between atoms: C_2  and  C_3
REMARK    3  A    between atoms: C_8  and  C_9
REMARK    4  A    between atoms: N_12  and  S_13
REMARK    5  A    between atoms: S_13  and  C_16
REMARK                            x       y       z     vdW  Elec       q    Type
REMARK                         _______ _______ _______ _____ _____    ______ ____
ROOT
ATOM      1  C   UNL     1       1.751   7.902  19.760  0.00  0.00    +0.000 A 
ATOM      2  C   UNL     1       1.186   7.720  21.052  0.00  0.00    +0.000 A 
ATOM      3  C   UNL     1       0.515   8.884  21.331  0.00  0.00    +0.000 A 
ATOM      4  N   UNL     1       0.641   9.671  20.212  0.00  0.00    +0.000 N 
ATOM      5  N   UNL     1       1.492   9.136  19.294  0.00  0.00    +0.000 NA
ENDROOT
BRANCH   1  13
ATOM      6  C   UNL     1       5.999   3.394  14.979  0.00  0.00    +0.000 C 
ATOM      7  C   UNL     1       5.807   4.531  15.995  0.00  0.00    +0.000 C 
ATOM      8  C   UNL     1       7.087   4.656  16.835  0.00  0.00    +0.000 C 
ATOM      9  C   UNL     1       5.470   5.825  15.239  0.00  0.00    +0.000 C 
ATOM     10  C   UNL     1       5.121   6.949  16.202  0.00  0.00    +0.000 C 
ATOM     11  C   UNL     1       4.173   6.454  17.251  0.00  0.00    +0.000 A 
ATOM     12  C   UNL     1       3.423   7.371  18.000  0.00  0.00    +0.000 A 
ATOM     13  C   UNL     1       2.534   6.937  18.996  0.00  0.00    +0.000 A 
ATOM     14  C   UNL     1       2.409   5.562  19.239  0.00  0.00    +0.000 A 
ATOM     15  C   UNL     1       3.158   4.644  18.499  0.00  0.00    +0.000 A 
ATOM     16  C   UNL     1       4.044   5.090  17.519  0.00  0.00    +0.000 A 
ATOM     17  O   UNL     1       4.728   4.111  16.851  0.00  0.00    +0.000 OA
ENDBRANCH   1  13
BRANCH   4  18
ATOM     18  S   UNL     1      -0.098  11.233  20.130  0.00  0.00    +0.000 S 
ATOM     19  O   UNL     1      -0.720  11.446  21.429  0.00  0.00    +0.000 OA
ATOM     20  O   UNL     1       0.934  12.135  19.658  0.00  0.00    +0.000 OA
BRANCH  18  21
ATOM     21  C   UNL     1      -1.378  11.047  18.922  0.00  0.00    +0.000 A 
ATOM     22  C   UNL     1      -1.187  10.106  17.891  0.00  0.00    +0.000 A 
ATOM     23  C   UNL     1      -2.210   9.857  16.969  0.00  0.00    +0.000 A 
ATOM     24  C   UNL     1      -3.424  10.533  17.077  0.00  0.00    +0.000 A 
ATOM     25  C   UNL     1      -3.608  11.473  18.090  0.00  0.00    +0.000 A 
ATOM     26  C   UNL     1      -2.588  11.742  19.012  0.00  0.00    +0.000 A 
ATOM     27 CL   UNL     1      -2.940  12.971  20.169  0.00  0.00    +0.000 Cl
ENDBRANCH  18  21
ENDBRANCH   4  18
TORSDOF 3
ENDMDL
MODEL 7
REMARK VINA RESULT:      -8.5      5.693      7.070
REMARK  Name = 
REMARK  5 active torsions:
REMARK  status: ('A' for Active; 'I' for Inactive)
REMARK    1  A    between atoms: C_1  and  C_2
REMARK    2  A    between atoms: C_2  and  C_3
REMARK    3  A    between atoms: C_8  and  C_9
REMARK    4  A    between atoms: N_12  and  S_13
REMARK    5  A    between atoms: S_13  and  C_16
REMARK                            x       y       z     vdW  Elec       q    Type
REMARK                         _______ _______ _______ _____ _____    ______ ____
ROOT
ATOM      1  C   UNL     1       7.889   8.130  18.051  0.00  0.00    +0.000 A 
ATOM      2  C   UNL     1       8.178   6.877  18.656  0.00  0.00    +0.000 A 
ATOM      3  C   UNL     1       7.440   5.951  17.963  0.00  0.00    +0.000 A 
ATOM      4  N   UNL     1       6.808   6.644  16.960  0.00  0.00    +0.000 N 
ATOM      5  N   UNL     1       6.976   7.990  17.074  0.00  0.00    +0.000 NA
ENDROOT
BRANCH   1  13
ATOM      6  C   UNL     1      10.722  15.357  19.035  0.00  0.00    +0.000 C 
ATOM      7  C   UNL     1       9.592  14.324  18.903  0.00  0.00    +0.000 C 
ATOM      8  C   UNL     1       8.399  14.796  19.748  0.00  0.00    +0.000 C 
ATOM      9  C   UNL     1       9.235  14.161  17.418  0.00  0.00    +0.000 C 
ATOM     10  C   UNL     1       8.228  13.040  17.215  0.00  0.00    +0.000 C 
ATOM     11  C   UNL     1       8.635  11.831  18.000  0.00  0.00    +0.000 A 
ATOM     12  C   UNL     1       8.094  10.578  17.679  0.00  0.00    +0.000 A 
ATOM     13  C   UNL     1       8.451   9.430  18.403  0.00  0.00    +0.000 A 
ATOM     14  C   UNL     1       9.358   9.553  19.464  0.00  0.00    +0.000 A 
ATOM     15  C   UNL     1       9.896  10.799  19.791  0.00  0.00    +0.000 A 
ATOM     16  C   UNL     1       9.526  11.934  19.069  0.00  0.00    +0.000 A 
ATOM     17  O   UNL     1      10.110  13.105  19.469  0.00  0.00    +0.000 OA
ENDBRANCH   1  13
BRANCH   4  18
ATOM     18  S   UNL     1       5.790   5.837  15.818  0.00  0.00    +0.000 S 
ATOM     19  O   UNL     1       5.143   6.891  15.049  0.00  0.00    +0.000 OA
ATOM     20  O   UNL     1       6.634   4.862  15.155  0.00  0.00    +0.000 OA
BRANCH  18  21
ATOM     21  C   UNL     1       4.563   5.040  16.815  0.00  0.00    +0.000 A 
ATOM     22  C   UNL     1       4.546   3.631  16.847  0.00  0.00    +0.000 A 
ATOM     23  C   UNL     1       3.657   2.960  17.694  0.00  0.00    +0.000 A 
ATOM     24  C   UNL     1       2.794   3.685  18.513  0.00  0.00    +0.000 A 
ATOM     25  C   UNL     1       2.803   5.078  18.471  0.00  0.00    +0.000 A 
ATOM     26  C   UNL     1       3.679   5.764  17.620  0.00  0.00    +0.000 A 
ATOM     27 CL   UNL     1       3.533   7.482  17.633  0.00  0.00    +0.000 Cl
ENDBRANCH  18  21
ENDBRANCH   4  18
TORSDOF 3
ENDMDL
MODEL 8
REMARK VINA RESULT:      -8.5      1.712      2.509
REMARK  Name = 
REMARK  5 active torsions:
REMARK  status: ('A' for Active; 'I' for Inactive)
REMARK    1  A    between atoms: C_1  and  C_2
REMARK    2  A    between atoms: C_2  and  C_3
REMARK    3  A    between atoms: C_8  and  C_9
REMARK    4  A    between atoms: N_12  and  S_13
REMARK    5  A    between atoms: S_13  and  C_16
REMARK                            x       y       z     vdW  Elec       q    Type
REMARK                         _______ _______ _______ _____ _____    ______ ____
ROOT
ATOM      1  C   UNL     1       2.050   6.585  20.167  0.00  0.00    +0.000 A 
ATOM      2  C   UNL     1       1.635   5.337  20.709  0.00  0.00    +0.000 A 
ATOM      3  C   UNL     1       2.489   4.402  20.182  0.00  0.00    +0.000 A 
ATOM      4  N   UNL     1       3.395   5.101  19.421  0.00  0.00    +0.000 N 
ATOM      5  N   UNL     1       3.068   6.418  19.305  0.00  0.00    +0.000 NA
ENDROOT
BRANCH   1  13
ATOM      6  C   UNL     1      -0.422  13.965  20.971  0.00  0.00    +0.000 C 
ATOM      7  C   UNL     1      -0.368  12.596  20.276  0.00  0.00    +0.000 C 
ATOM      8  C   UNL     1      -1.731  12.328  19.621  0.00  0.00    +0.000 C 
ATOM      9  C   UNL     1       0.784  12.598  19.259  0.00  0.00    +0.000 C 
ATOM     10  C   UNL     1       0.980  11.218  18.649  0.00  0.00    +0.000 C 
ATOM     11  C   UNL     1       0.961  10.173  19.721  0.00  0.00    +0.000 A 
ATOM     12  C   UNL     1       1.494   8.902  19.463  0.00  0.00    +0.000 A 
ATOM     13  C   UNL     1       1.481   7.899  20.445  0.00  0.00    +0.000 A 
ATOM     14  C   UNL     1       0.918   8.185  21.697  0.00  0.00    +0.000 A 
ATOM     15  C   UNL     1       0.380   9.447  21.957  0.00  0.00    +0.000 A 
ATOM     16  C   UNL     1       0.392  10.431  20.969  0.00  0.00    +0.000 A 
ATOM     17  O   UNL     1      -0.158  11.633  21.326  0.00  0.00    +0.000 OA
ENDBRANCH   1  13
BRANCH   4  18
ATOM     18  S   UNL     1       4.683   4.294  18.597  0.00  0.00    +0.000 S 
ATOM     19  O   UNL     1       5.155   3.263  19.511  0.00  0.00    +0.000 OA
ATOM     20  O   UNL     1       4.155   3.931  17.296  0.00  0.00    +0.000 OA
BRANCH  18  21
ATOM     21  C   UNL     1       5.945   5.527  18.447  0.00  0.00    +0.000 A 
ATOM     22  C   UNL     1       7.025   5.485  19.352  0.00  0.00    +0.000 A 
ATOM     23  C   UNL     1       8.091   6.381  19.212  0.00  0.00    +0.000 A 
ATOM     24  C   UNL     1       8.091   7.307  18.172  0.00  0.00    +0.000 A 
ATOM     25  C   UNL     1       7.016   7.356  17.285  0.00  0.00    +0.000 A 
ATOM     26  C   UNL     1       5.936   6.475  17.419  0.00  0.00    +0.000 A 
ATOM     27 CL   UNL     1       4.654   6.694  16.286  0.00  0.00    +0.000 Cl
ENDBRANCH  18  21
ENDBRANCH   4  18
TORSDOF 3
ENDMDL
MODEL 9
REMARK VINA RESULT:      -8.4      1.874      2.372
REMARK  Name = 
REMARK  5 active torsions:
REMARK  status: ('A' for Active; 'I' for Inactive)
REMARK    1  A    between atoms: C_1  and  C_2
REMARK    2  A    between atoms: C_2  and  C_3
REMARK    3  A    between atoms: C_8  and  C_9
REMARK    4  A    between atoms: N_12  and  S_13
REMARK    5  A    between atoms: S_13  and  C_16
REMARK                            x       y       z     vdW  Elec       q    Type
REMARK                         _______ _______ _______ _____ _____    ______ ____
ROOT
ATOM      1  C   UNL     1       2.103   8.065  18.747  0.00  0.00    +0.000 A 
ATOM      2  C   UNL     1       3.043   8.298  17.706  0.00  0.00    +0.000 A 
ATOM      3  C   UNL     1       3.672   7.097  17.499  0.00  0.00    +0.000 A 
ATOM      4  N   UNL     1       3.065   6.200  18.345  0.00  0.00    +0.000 N 
ATOM      5  N   UNL     1       2.190   6.801  19.197  0.00  0.00    +0.000 NA
ENDROOT
BRANCH   1  13
ATOM      6  C   UNL     1      -2.989  12.629  22.550  0.00  0.00    +0.000 C 
ATOM      7  C   UNL     1      -1.589  12.067  22.261  0.00  0.00    +0.000 C 
ATOM      8  C   UNL     1      -0.553  13.161  22.562  0.00  0.00    +0.000 C 
ATOM      9  C   UNL     1      -1.373  10.803  23.107  0.00  0.00    +0.000 C 
ATOM     10  C   UNL     1      -0.063  10.120  22.748  0.00  0.00    +0.000 C 
ATOM     11  C   UNL     1       0.083  10.030  21.260  0.00  0.00    +0.000 A 
ATOM     12  C   UNL     1       0.995   9.122  20.704  0.00  0.00    +0.000 A 
ATOM     13  C   UNL     1       1.159   9.023  19.313  0.00  0.00    +0.000 A 
ATOM     14  C   UNL     1       0.398   9.855  18.481  0.00  0.00    +0.000 A 
ATOM     15  C   UNL     1      -0.507  10.765  19.030  0.00  0.00    +0.000 A 
ATOM     16  C   UNL     1      -0.654  10.860  20.414  0.00  0.00    +0.000 A 
ATOM     17  O   UNL     1      -1.567  11.781  20.850  0.00  0.00    +0.000 OA
ENDBRANCH   1  13
BRANCH   4  18
ATOM     18  S   UNL     1       3.541   4.537  18.377  0.00  0.00    +0.000 S 
ATOM     19  O   UNL     1       3.927   4.262  19.754  0.00  0.00    +0.000 OA
ATOM     20  O   UNL     1       2.453   3.802  17.763  0.00  0.00    +0.000 OA
BRANCH  18  21
ATOM     21  C   UNL     1       4.994   4.481  17.368  0.00  0.00    +0.000 A 
ATOM     22  C   UNL     1       4.864   4.025  16.041  0.00  0.00    +0.000 A 
ATOM     23  C   UNL     1       5.967   4.053  15.179  0.00  0.00    +0.000 A 
ATOM     24  C   UNL     1       7.191   4.540  15.630  0.00  0.00    +0.000 A 
ATOM     25  C   UNL     1       7.322   4.978  16.947  0.00  0.00    +0.000 A 
ATOM     26  C   UNL     1       6.232   4.945  17.825  0.00  0.00    +0.000 A 
ATOM     27 CL   UNL     1       6.561   5.462  19.437  0.00  0.00    +0.000 Cl
ENDBRANCH  18  21
ENDBRANCH   4  18
TORSDOF 3
ENDMDL
