MODEL 1
REMARK VINA RESULT:     -10.1      0.000      0.000
REMARK  Name = 
REMARK  4 active torsions:
REMARK  status: ('A' for Active; 'I' for Inactive)
REMARK    1  A    between atoms: S_2  and  C_4
REMARK    2  A    between atoms: S_2  and  C_14
REMARK    3  A    between atoms: C_19  and  N_20
REMARK    4  A    between atoms: N_20  and  C_21
REMARK                            x       y       z     vdW  Elec       q    Type
REMARK                         _______ _______ _______ _____ _____    ______ ____
ROOT
ATOM      1  C   UNL     1       2.771   5.341  19.696  0.00  0.00    +0.000 A 
ATOM      2  N   UNL     1       2.294   5.196  20.946  0.00  0.00    +0.000 NA
ATOM      3  N   UNL     1       1.737   6.402  21.206  0.00  0.00    +0.000 N 
ATOM      4  C   UNL     1       1.804   7.300  20.167  0.00  0.00    +0.000 A 
ATOM      5  C   UNL     1       1.298   8.610  19.991  0.00  0.00    +0.000 A 
ATOM      6  C   UNL     1       1.581   9.289  18.791  0.00  0.00    +0.000 A 
ATOM      7  C   UNL     1       2.358   8.635  17.826  0.00  0.00    +0.000 A 
ATOM      8  C   UNL     1       2.825   7.326  17.991  0.00  0.00    +0.000 A 
ATOM      9  C   UNL     1       2.530   6.644  19.181  0.00  0.00    +0.000 A 
ATOM     10  H   UNL     1       1.324   6.555  22.122  0.00  0.00    +0.000 HD
ENDROOT
BRANCH   1  12
ATOM     11  O   UNL     1       2.744   4.064  17.536  0.00  0.00    +0.000 OA
ATOM     12  S   UNL     1       3.561   4.120  18.735  0.00  0.00    +0.000 S 
ATOM     13  O   UNL     1       3.650   2.957  19.601  0.00  0.00    +0.000 OA
BRANCH  12  14
ATOM     14  C   UNL     1       5.202   4.614  18.272  0.00  0.00    +0.000 A 
ATOM     15  C   UNL     1       5.984   5.200  19.289  0.00  0.00    +0.000 A 
ATOM     16  C   UNL     1       7.224   5.749  18.993  0.00  0.00    +0.000 A 
ATOM     17  C   UNL     1       7.695   5.721  17.687  0.00  0.00    +0.000 A 
ATOM     18  C   UNL     1       6.931   5.154  16.650  0.00  0.00    +0.000 A 
ATOM     19  C   UNL     1       7.442   5.177  15.345  0.00  0.00    +0.000 A 
ATOM     20  C   UNL     1       6.717   4.648  14.286  0.00  0.00    +0.000 A 
ATOM     21  C   UNL     1       5.467   4.088  14.523  0.00  0.00    +0.000 A 
ATOM     22  C   UNL     1       4.945   4.057  15.819  0.00  0.00    +0.000 A 
ATOM     23  C   UNL     1       5.658   4.584  16.924  0.00  0.00    +0.000 A 
ENDBRANCH  12  14
ENDBRANCH   1  12
BRANCH   6  24
ATOM     24  N   UNL     1       1.068  10.535  18.437  0.00  0.00    +0.000 N 
ATOM     25  H   UNL     1       1.707  11.101  17.887  0.00  0.00    +0.000 HD
BRANCH  24  26
ATOM     26  C   UNL     1       0.020  11.263  19.155  0.00  0.00    +0.000 C 
ATOM     27  C   UNL     1      -1.241  10.405  19.286  0.00  0.00    +0.000 C 
ATOM     28  C   UNL     1      -1.945  10.227  17.944  0.00  0.00    +0.000 C 
ATOM     29  C   UNL     1      -2.253  11.552  17.251  0.00  0.00    +0.000 C 
ATOM     30  N   UNL     1      -1.180  12.541  17.234  0.00  0.00    +0.000 NA
ATOM     31  C   UNL     1      -0.346  12.595  18.441  0.00  0.00    +0.000 C 
ATOM     32  H   UNL     1      -0.616  12.451  16.394  0.00  0.00    +0.000 HD
ENDBRANCH  24  26
ENDBRANCH   6  24
TORSDOF 4
ENDMDL
MODEL 2
REMARK VINA RESULT:      -9.6      0.591      2.070
REMARK  Name = 
REMARK  4 active torsions:
REMARK  status: ('A' for Active; 'I' for Inactive)
REMARK    1  A    between atoms: S_2  and  C_4
REMARK    2  A    between atoms: S_2  and  C_14
REMARK    3  A    between atoms: C_19  and  N_20
REMARK    4  A    between atoms: N_20  and  C_21
REMARK                            x       y       z     vdW  Elec       q    Type
REMARK                         _______ _______ _______ _____ _____    ______ ____
ROOT
ATOM      1  C   UNL     1       2.472   5.186  19.378  0.00  0.00    +0.000 A 
ATOM      2  N   UNL     1       2.297   5.021  20.703  0.00  0.00    +0.000 NA
ATOM      3  N   UNL     1       1.960   6.261  21.126  0.00  0.00    +0.000 N 
ATOM      4  C   UNL     1       1.877   7.205  20.131  0.00  0.00    +0.000 A 
ATOM      5  C   UNL     1       1.496   8.568  20.123  0.00  0.00    +0.000 A 
ATOM      6  C   UNL     1       1.557   9.280  18.911  0.00  0.00    +0.000 A 
ATOM      7  C   UNL     1       1.999   8.606  17.765  0.00  0.00    +0.000 A 
ATOM      8  C   UNL     1       2.340   7.248  17.772  0.00  0.00    +0.000 A 
ATOM      9  C   UNL     1       2.264   6.535  18.977  0.00  0.00    +0.000 A 
ATOM     10  H   UNL     1       1.799   6.404  22.120  0.00  0.00    +0.000 HD
ENDROOT
BRANCH   1  12
ATOM     11  O   UNL     1       1.710   3.945  17.336  0.00  0.00    +0.000 OA
ATOM     12  S   UNL     1       2.863   3.947  18.217  0.00  0.00    +0.000 S 
ATOM     13  O   UNL     1       3.166   2.768  19.011  0.00  0.00    +0.000 OA
BRANCH  12  14
ATOM     14  C   UNL     1       4.298   4.375  17.263  0.00  0.00    +0.000 A 
ATOM     15  C   UNL     1       4.241   4.073  15.886  0.00  0.00    +0.000 A 
ATOM     16  C   UNL     1       5.362   4.236  15.084  0.00  0.00    +0.000 A 
ATOM     17  C   UNL     1       6.546   4.698  15.644  0.00  0.00    +0.000 A 
ATOM     18  C   UNL     1       6.636   4.995  17.015  0.00  0.00    +0.000 A 
ATOM     19  C   UNL     1       7.863   5.433  17.533  0.00  0.00    +0.000 A 
ATOM     20  C   UNL     1       8.005   5.719  18.883  0.00  0.00    +0.000 A 
ATOM     21  C   UNL     1       6.917   5.571  19.735  0.00  0.00    +0.000 A 
ATOM     22  C   UNL     1       5.686   5.137  19.234  0.00  0.00    +0.000 A 
ATOM     23  C   UNL     1       5.503   4.839  17.861  0.00  0.00    +0.000 A 
ENDBRANCH  12  14
ENDBRANCH   1  12
BRANCH   6  24
ATOM     24  N   UNL     1       1.120  10.591  18.730  0.00  0.00    +0.000 N 
ATOM     25  H   UNL     1       1.851  11.232  18.437  0.00  0.00    +0.000 HD
BRANCH  24  26
ATOM     26  C   UNL     1      -0.048  11.198  19.372  0.00  0.00    +0.000 C 
ATOM     27  C   UNL     1      -1.260  10.268  19.280  0.00  0.00    +0.000 C 
ATOM     28  C   UNL     1      -1.792  10.173  17.851  0.00  0.00    +0.000 C 
ATOM     29  C   UNL     1      -2.097  11.536  17.236  0.00  0.00    +0.000 C 
ATOM     30  N   UNL     1      -1.093  12.577  17.430  0.00  0.00    +0.000 NA
ATOM     31  C   UNL     1      -0.410  12.567  18.729  0.00  0.00    +0.000 C 
ATOM     32  H   UNL     1      -0.430  12.590  16.660  0.00  0.00    +0.000 HD
ENDBRANCH  24  26
ENDBRANCH   6  24
TORSDOF 4
ENDMDL
MODEL 3
REMARK VINA RESULT:      -9.4      1.003      1.059
REMARK  Name = 
REMARK  4 active torsions:
REMARK  status: ('A' for Active; 'I' for Inactive)
REMARK    1  A    between atoms: S_2  and  C_4
REMARK    2  A    between atoms: S_2  and  C_14
REMARK    3  A    between atoms: C_19  and  N_20
REMARK    4  A    between atoms: N_20  and  C_21
REMARK                            x       y       z     vdW  Elec       q    Type
REMARK                         _______ _______ _______ _____ _____    ______ ____
ROOT
ATOM      1  C   UNL     1       2.662   5.451  19.642  0.00  0.00    +0.000 A 
ATOM      2  N   UNL     1       2.196   5.308  20.897  0.00  0.00    +0.000 NA
ATOM      3  N   UNL     1       1.669   6.524  21.172  0.00  0.00    +0.000 N 
ATOM      4  C   UNL     1       1.744   7.428  20.139  0.00  0.00    +0.000 A 
ATOM      5  C   UNL     1       1.266   8.750  19.979  0.00  0.00    +0.000 A 
ATOM      6  C   UNL     1       1.550   9.432  18.781  0.00  0.00    +0.000 A 
ATOM      7  C   UNL     1       2.302   8.768  17.802  0.00  0.00    +0.000 A 
ATOM      8  C   UNL     1       2.742   7.448  17.952  0.00  0.00    +0.000 A 
ATOM      9  C   UNL     1       2.444   6.764  19.140  0.00  0.00    +0.000 A 
ATOM     10  H   UNL     1       1.269   6.678  22.093  0.00  0.00    +0.000 HD
ENDROOT
BRANCH   1  12
ATOM     11  O   UNL     1       2.629   4.245  17.443  0.00  0.00    +0.000 OA
ATOM     12  S   UNL     1       3.414   4.221  18.664  0.00  0.00    +0.000 S 
ATOM     13  O   UNL     1       3.419   3.029  19.494  0.00  0.00    +0.000 OA
BRANCH  12  14
ATOM     14  C   UNL     1       5.091   4.641  18.260  0.00  0.00    +0.000 A 
ATOM     15  C   UNL     1       5.862   5.192  19.305  0.00  0.00    +0.000 A 
ATOM     16  C   UNL     1       7.135   5.685  19.054  0.00  0.00    +0.000 A 
ATOM     17  C   UNL     1       7.649   5.637  17.765  0.00  0.00    +0.000 A 
ATOM     18  C   UNL     1       6.899   5.105  16.701  0.00  0.00    +0.000 A 
ATOM     19  C   UNL     1       7.455   5.105  15.414  0.00  0.00    +0.000 A 
ATOM     20  C   UNL     1       6.745   4.610  14.330  0.00  0.00    +0.000 A 
ATOM     21  C   UNL     1       5.464   4.106  14.522  0.00  0.00    +0.000 A 
ATOM     22  C   UNL     1       4.895   4.097  15.798  0.00  0.00    +0.000 A 
ATOM     23  C   UNL     1       5.592   4.592  16.929  0.00  0.00    +0.000 A 
ENDBRANCH  12  14
ENDBRANCH   1  12
BRANCH   6  24
ATOM     24  N   UNL     1       1.062  10.692  18.441  0.00  0.00    +0.000 N 
ATOM     25  H   UNL     1       0.865  10.803  17.452  0.00  0.00    +0.000 HD
BRANCH  24  26
ATOM     26  C   UNL     1       1.288  11.927  19.196  0.00  0.00    +0.000 C 
ATOM     27  C   UNL     1       0.588  11.864  20.556  0.00  0.00    +0.000 C 
ATOM     28  C   UNL     1      -0.930  11.941  20.414  0.00  0.00    +0.000 C 
ATOM     29  C   UNL     1      -1.394  13.155  19.613  0.00  0.00    +0.000 C 
ATOM     30  N   UNL     1      -0.666  13.438  18.380  0.00  0.00    +0.000 NA
ATOM     31  C   UNL     1       0.777  13.174  18.420  0.00  0.00    +0.000 C 
ATOM     32  H   UNL     1      -1.106  12.983  17.585  0.00  0.00    +0.000 HD
ENDBRANCH  24  26
ENDBRANCH   6  24
TORSDOF 4
ENDMDL
MODEL 4
REMARK VINA RESULT:      -9.3      1.342      2.666
REMARK  Name = 
REMARK  4 active torsions:
REMARK  status: ('A' for Active; 'I' for Inactive)
REMARK    1  A    between atoms: S_2  and  C_4
REMARK    2  A    between atoms: S_2  and  C_14
REMARK    3  A    between atoms: C_19  and  N_20
REMARK    4  A    between atoms: N_20  and  C_21
REMARK                            x       y       z     vdW  Elec       q    Type
REMARK                         _______ _______ _______ _____ _____    ______ ____
ROOT
ATOM      1  C   UNL     1       2.756   4.319  19.310  0.00  0.00    +0.000 A 
ATOM      2  N   UNL     1       2.549   3.849  20.554  0.00  0.00    +0.000 NA
ATOM      3  N   UNL     1       2.113   4.939  21.227  0.00  0.00    +0.000 N 
ATOM      4  C   UNL     1       1.997   6.076  20.463  0.00  0.00    +0.000 A 
ATOM      5  C   UNL     1       1.522   7.380  20.741  0.00  0.00    +0.000 A 
ATOM      6  C   UNL     1       1.573   8.350  19.722  0.00  0.00    +0.000 A 
ATOM      7  C   UNL     1       2.099   7.979  18.478  0.00  0.00    +0.000 A 
ATOM      8  C   UNL     1       2.533   6.678  18.198  0.00  0.00    +0.000 A 
ATOM      9  C   UNL     1       2.468   5.708  19.209  0.00  0.00    +0.000 A 
ATOM     10  H   UNL     1       1.910   4.844  22.218  0.00  0.00    +0.000 HD
ENDROOT
BRANCH   1  12
ATOM     11  O   UNL     1       2.082   3.367  17.088  0.00  0.00    +0.000 OA
ATOM     12  S   UNL     1       3.270   3.399  17.922  0.00  0.00    +0.000 S 
ATOM     13  O   UNL     1       3.804   2.162  18.465  0.00  0.00    +0.000 OA
BRANCH  12  14
ATOM     14  C   UNL     1       4.559   4.231  17.028  0.00  0.00    +0.000 A 
ATOM     15  C   UNL     1       4.530   4.094  15.625  0.00  0.00    +0.000 A 
ATOM     16  C   UNL     1       5.572   4.584  14.849  0.00  0.00    +0.000 A 
ATOM     17  C   UNL     1       6.649   5.212  15.462  0.00  0.00    +0.000 A 
ATOM     18  C   UNL     1       6.711   5.352  16.860  0.00  0.00    +0.000 A 
ATOM     19  C   UNL     1       7.833   5.970  17.428  0.00  0.00    +0.000 A 
ATOM     20  C   UNL     1       7.949   6.112  18.804  0.00  0.00    +0.000 A 
ATOM     21  C   UNL     1       6.937   5.637  19.630  0.00  0.00    +0.000 A 
ATOM     22  C   UNL     1       5.811   5.021  19.079  0.00  0.00    +0.000 A 
ATOM     23  C   UNL     1       5.658   4.860  17.679  0.00  0.00    +0.000 A 
ENDBRANCH  12  14
ENDBRANCH   1  12
BRANCH   6  24
ATOM     24  N   UNL     1       1.051   9.639  19.818  0.00  0.00    +0.000 N 
ATOM     25  H   UNL     1       1.758  10.368  19.825  0.00  0.00    +0.000 HD
BRANCH  24  26
ATOM     26  C   UNL     1      -0.247   9.995  20.394  0.00  0.00    +0.000 C 
ATOM     27  C   UNL     1      -1.045  10.873  19.428  0.00  0.00    +0.000 C 
ATOM     28  C   UNL     1      -0.443  12.271  19.307  0.00  0.00    +0.000 C 
ATOM     29  C   UNL     1      -0.262  12.962  20.655  0.00  0.00    +0.000 C 
ATOM     30  N   UNL     1       0.314  12.156  21.727  0.00  0.00    +0.000 NA
ATOM     31  C   UNL     1      -0.088  10.745  21.747  0.00  0.00    +0.000 C 
ATOM     32  H   UNL     1       1.324  12.258  21.754  0.00  0.00    +0.000 HD
ENDBRANCH  24  26
ENDBRANCH   6  24
TORSDOF 4
ENDMDL
MODEL 5
REMARK VINA RESULT:      -9.2      1.047      1.772
REMARK  Name = 
REMARK  4 active torsions:
REMARK  status: ('A' for Active; 'I' for Inactive)
REMARK    1  A    between atoms: S_2  and  C_4
REMARK    2  A    between atoms: S_2  and  C_14
REMARK    3  A    between atoms: C_19  and  N_20
REMARK    4  A    between atoms: N_20  and  C_21
REMARK                            x       y       z     vdW  Elec       q    Type
REMARK                         _______ _______ _______ _____ _____    ______ ____
ROOT
ATOM      1  C   UNL     1       2.615   5.432  19.646  0.00  0.00    +0.000 A 
ATOM      2  N   UNL     1       2.106   5.277  20.882  0.00  0.00    +0.000 NA
ATOM      3  N   UNL     1       1.597   6.499  21.162  0.00  0.00    +0.000 N 
ATOM      4  C   UNL     1       1.724   7.419  20.150  0.00  0.00    +0.000 A 
ATOM      5  C   UNL     1       1.279   8.754  19.999  0.00  0.00    +0.000 A 
ATOM      6  C   UNL     1       1.616   9.451  18.823  0.00  0.00    +0.000 A 
ATOM      7  C   UNL     1       2.385   8.789  17.856  0.00  0.00    +0.000 A 
ATOM      8  C   UNL     1       2.792   7.457  17.996  0.00  0.00    +0.000 A 
ATOM      9  C   UNL     1       2.442   6.758  19.161  0.00  0.00    +0.000 A 
ATOM     10  H   UNL     1       1.170   6.646  22.074  0.00  0.00    +0.000 HD
ENDROOT
BRANCH   1  12
ATOM     11  O   UNL     1       2.598   4.235  17.442  0.00  0.00    +0.000 OA
ATOM     12  S   UNL     1       3.372   4.204  18.669  0.00  0.00    +0.000 S 
ATOM     13  O   UNL     1       3.366   3.008  19.495  0.00  0.00    +0.000 OA
BRANCH  12  14
ATOM     14  C   UNL     1       5.054   4.621  18.281  0.00  0.00    +0.000 A 
ATOM     15  C   UNL     1       5.822   5.149  19.340  0.00  0.00    +0.000 A 
ATOM     16  C   UNL     1       7.099   5.639  19.104  0.00  0.00    +0.000 A 
ATOM     17  C   UNL     1       7.621   5.609  17.817  0.00  0.00    +0.000 A 
ATOM     18  C   UNL     1       6.873   5.100  16.740  0.00  0.00    +0.000 A 
ATOM     19  C   UNL     1       7.436   5.118  15.457  0.00  0.00    +0.000 A 
ATOM     20  C   UNL     1       6.729   4.646  14.361  0.00  0.00    +0.000 A 
ATOM     21  C   UNL     1       5.444   4.147  14.537  0.00  0.00    +0.000 A 
ATOM     22  C   UNL     1       4.868   4.120  15.810  0.00  0.00    +0.000 A 
ATOM     23  C   UNL     1       5.562   4.591  16.952  0.00  0.00    +0.000 A 
ENDBRANCH  12  14
ENDBRANCH   1  12
BRANCH   6  24
ATOM     24  N   UNL     1       1.166  10.727  18.492  0.00  0.00    +0.000 N 
ATOM     25  H   UNL     1       1.786  11.232  17.866  0.00  0.00    +0.000 HD
BRANCH  24  26
ATOM     26  C   UNL     1       0.254  11.546  19.294  0.00  0.00    +0.000 C 
ATOM     27  C   UNL     1      -0.038  12.874  18.592  0.00  0.00    +0.000 C 
ATOM     28  C   UNL     1       1.180  13.795  18.594  0.00  0.00    +0.000 C 
ATOM     29  C   UNL     1       1.751  14.026  19.991  0.00  0.00    +0.000 C 
ATOM     30  N   UNL     1       1.894  12.846  20.838  0.00  0.00    +0.000 NA
ATOM     31  C   UNL     1       0.837  11.837  20.706  0.00  0.00    +0.000 C 
ATOM     32  H   UNL     1       2.818  12.435  20.736  0.00  0.00    +0.000 HD
ENDBRANCH  24  26
ENDBRANCH   6  24
TORSDOF 4
ENDMDL
MODEL 6
REMARK VINA RESULT:      -9.2      1.123      2.499
REMARK  Name = 
REMARK  4 active torsions:
REMARK  status: ('A' for Active; 'I' for Inactive)
REMARK    1  A    between atoms: S_2  and  C_4
REMARK    2  A    between atoms: S_2  and  C_14
REMARK    3  A    between atoms: C_19  and  N_20
REMARK    4  A    between atoms: N_20  and  C_21
REMARK                            x       y       z     vdW  Elec       q    Type
REMARK                         _______ _______ _______ _____ _____    ______ ____
ROOT
ATOM      1  C   UNL     1       2.769   4.306  19.308  0.00  0.00    +0.000 A 
ATOM      2  N   UNL     1       2.550   3.840  20.552  0.00  0.00    +0.000 NA
ATOM      3  N   UNL     1       2.109   4.933  21.218  0.00  0.00    +0.000 N 
ATOM      4  C   UNL     1       2.001   6.068  20.450  0.00  0.00    +0.000 A 
ATOM      5  C   UNL     1       1.526   7.373  20.720  0.00  0.00    +0.000 A 
ATOM      6  C   UNL     1       1.588   8.340  19.699  0.00  0.00    +0.000 A 
ATOM      7  C   UNL     1       2.125   7.965  18.461  0.00  0.00    +0.000 A 
ATOM      8  C   UNL     1       2.560   6.663  18.188  0.00  0.00    +0.000 A 
ATOM      9  C   UNL     1       2.483   5.696  19.202  0.00  0.00    +0.000 A 
ATOM     10  H   UNL     1       1.897   4.841  22.208  0.00  0.00    +0.000 HD
ENDROOT
BRANCH   1  12
ATOM     11  O   UNL     1       2.109   3.334  17.092  0.00  0.00    +0.000 OA
ATOM     12  S   UNL     1       3.295   3.382  17.928  0.00  0.00    +0.000 S 
ATOM     13  O   UNL     1       3.838   2.153  18.481  0.00  0.00    +0.000 OA
BRANCH  12  14
ATOM     14  C   UNL     1       4.579   4.220  17.032  0.00  0.00    +0.000 A 
ATOM     15  C   UNL     1       4.550   4.078  15.629  0.00  0.00    +0.000 A 
ATOM     16  C   UNL     1       5.589   4.573  14.852  0.00  0.00    +0.000 A 
ATOM     17  C   UNL     1       6.662   5.209  15.462  0.00  0.00    +0.000 A 
ATOM     18  C   UNL     1       6.723   5.354  16.860  0.00  0.00    +0.000 A 
ATOM     19  C   UNL     1       7.842   5.980  17.427  0.00  0.00    +0.000 A 
ATOM     20  C   UNL     1       7.956   6.127  18.801  0.00  0.00    +0.000 A 
ATOM     21  C   UNL     1       6.948   5.648  19.629  0.00  0.00    +0.000 A 
ATOM     22  C   UNL     1       5.825   5.022  19.080  0.00  0.00    +0.000 A 
ATOM     23  C   UNL     1       5.673   4.857  17.681  0.00  0.00    +0.000 A 
ENDBRANCH  12  14
ENDBRANCH   1  12
BRANCH   6  24
ATOM     24  N   UNL     1       1.067   9.630  19.786  0.00  0.00    +0.000 N 
ATOM     25  H   UNL     1       0.558   9.810  20.646  0.00  0.00    +0.000 HD
BRANCH  24  26
ATOM     26  C   UNL     1       0.745  10.500  18.652  0.00  0.00    +0.000 C 
ATOM     27  C   UNL     1       1.094  11.955  18.972  0.00  0.00    +0.000 C 
ATOM     28  C   UNL     1       0.144  12.549  20.010  0.00  0.00    +0.000 C 
ATOM     29  C   UNL     1      -1.326  12.408  19.624  0.00  0.00    +0.000 C 
ATOM     30  N   UNL     1      -1.742  11.107  19.111  0.00  0.00    +0.000 NA
ATOM     31  C   UNL     1      -0.760  10.411  18.271  0.00  0.00    +0.000 C 
ATOM     32  H   UNL     1      -2.079  10.512  19.862  0.00  0.00    +0.000 HD
ENDBRANCH  24  26
ENDBRANCH   6  24
TORSDOF 4
ENDMDL
MODEL 7
REMARK VINA RESULT:      -9.0      1.201      1.674
REMARK  Name = 
REMARK  4 active torsions:
REMARK  status: ('A' for Active; 'I' for Inactive)
REMARK    1  A    between atoms: S_2  and  C_4
REMARK    2  A    between atoms: S_2  and  C_14
REMARK    3  A    between atoms: C_19  and  N_20
REMARK    4  A    between atoms: N_20  and  C_21
REMARK                            x       y       z     vdW  Elec       q    Type
REMARK                         _______ _______ _______ _____ _____    ______ ____
ROOT
ATOM      1  C   UNL     1       2.891   4.602  19.601  0.00  0.00    +0.000 A 
ATOM      2  N   UNL     1       2.508   4.135  20.805  0.00  0.00    +0.000 NA
ATOM      3  N   UNL     1       1.924   5.211  21.381  0.00  0.00    +0.000 N 
ATOM      4  C   UNL     1       1.884   6.335  20.591  0.00  0.00    +0.000 A 
ATOM      5  C   UNL     1       1.317   7.619  20.768  0.00  0.00    +0.000 A 
ATOM      6  C   UNL     1       1.489   8.581  19.755  0.00  0.00    +0.000 A 
ATOM      7  C   UNL     1       2.223   8.222  18.616  0.00  0.00    +0.000 A 
ATOM      8  C   UNL     1       2.751   6.939  18.431  0.00  0.00    +0.000 A 
ATOM      9  C   UNL     1       2.565   5.976  19.434  0.00  0.00    +0.000 A 
ATOM     10  H   UNL     1       1.569   5.117  22.329  0.00  0.00    +0.000 HD
ENDROOT
BRANCH   1  12
ATOM     11  O   UNL     1       2.762   3.878  17.203  0.00  0.00    +0.000 OA
ATOM     12  S   UNL     1       3.659   3.693  18.328  0.00  0.00    +0.000 S 
ATOM     13  O   UNL     1       3.859   2.364  18.881  0.00  0.00    +0.000 OA
BRANCH  12  14
ATOM     14  C   UNL     1       5.242   4.376  17.901  0.00  0.00    +0.000 A 
ATOM     15  C   UNL     1       5.934   5.034  18.939  0.00  0.00    +0.000 A 
ATOM     16  C   UNL     1       7.109   5.724  18.672  0.00  0.00    +0.000 A 
ATOM     17  C   UNL     1       7.602   5.766  17.374  0.00  0.00    +0.000 A 
ATOM     18  C   UNL     1       6.926   5.130  16.317  0.00  0.00    +0.000 A 
ATOM     19  C   UNL     1       7.453   5.227  15.022  0.00  0.00    +0.000 A 
ATOM     20  C   UNL     1       6.810   4.633  13.945  0.00  0.00    +0.000 A 
ATOM     21  C   UNL     1       5.629   3.932  14.153  0.00  0.00    +0.000 A 
ATOM     22  C   UNL     1       5.091   3.824  15.438  0.00  0.00    +0.000 A 
ATOM     23  C   UNL     1       5.721   4.415  16.562  0.00  0.00    +0.000 A 
ENDBRANCH  12  14
ENDBRANCH   1  12
BRANCH   6  24
ATOM     24  N   UNL     1       0.906   9.846  19.745  0.00  0.00    +0.000 N 
ATOM     25  H   UNL     1       1.573  10.606  19.648  0.00  0.00    +0.000 HD
BRANCH  24  26
ATOM     26  C   UNL     1      -0.386  10.196  20.340  0.00  0.00    +0.000 C 
ATOM     27  C   UNL     1      -1.171  11.131  19.417  0.00  0.00    +0.000 C 
ATOM     28  C   UNL     1      -0.547  12.523  19.359  0.00  0.00    +0.000 C 
ATOM     29  C   UNL     1      -0.352  13.149  20.737  0.00  0.00    +0.000 C 
ATOM     30  N   UNL     1       0.212  12.285  21.770  0.00  0.00    +0.000 NA
ATOM     31  C   UNL     1      -0.212  10.881  21.726  0.00  0.00    +0.000 C 
ATOM     32  H   UNL     1       1.224  12.369  21.799  0.00  0.00    +0.000 HD
ENDBRANCH  24  26
ENDBRANCH   6  24
TORSDOF 4
ENDMDL
MODEL 8
REMARK VINA RESULT:      -9.0      3.697      8.683
REMARK  Name = 
REMARK  4 active torsions:
REMARK  status: ('A' for Active; 'I' for Inactive)
REMARK    1  A    between atoms: S_2  and  C_4
REMARK    2  A    between atoms: S_2  and  C_14
REMARK    3  A    between atoms: C_19  and  N_20
REMARK    4  A    between atoms: N_20  and  C_21
REMARK                            x       y       z     vdW  Elec       q    Type
REMARK                         _______ _______ _______ _____ _____    ______ ____
ROOT
ATOM      1  C   UNL     1       0.715  10.117  20.671  0.00  0.00    +0.000 A 
ATOM      2  N   UNL     1       0.421   9.710  21.920  0.00  0.00    +0.000 NA
ATOM      3  N   UNL     1       0.863   8.432  21.941  0.00  0.00    +0.000 N 
ATOM      4  C   UNL     1       1.458   8.011  20.775  0.00  0.00    +0.000 A 
ATOM      5  C   UNL     1       2.103   6.809  20.401  0.00  0.00    +0.000 A 
ATOM      6  C   UNL     1       2.583   6.680  19.084  0.00  0.00    +0.000 A 
ATOM      7  C   UNL     1       2.393   7.751  18.200  0.00  0.00    +0.000 A 
ATOM      8  C   UNL     1       1.786   8.951  18.586  0.00  0.00    +0.000 A 
ATOM      9  C   UNL     1       1.322   9.084  19.904  0.00  0.00    +0.000 A 
ATOM     10  H   UNL     1       0.728   7.888  22.789  0.00  0.00    +0.000 HD
ENDROOT
BRANCH   1  12
ATOM     11  O   UNL     1       1.179  11.658  18.747  0.00  0.00    +0.000 OA
ATOM     12  S   UNL     1       0.456  11.706  20.005  0.00  0.00    +0.000 S 
ATOM     13  O   UNL     1       0.882  12.626  21.046  0.00  0.00    +0.000 OA
BRANCH  12  14
ATOM     14  C   UNL     1      -1.260  11.997  19.655  0.00  0.00    +0.000 A 
ATOM     15  C   UNL     1      -1.950  12.819  20.570  0.00  0.00    +0.000 A 
ATOM     16  C   UNL     1      -3.323  12.989  20.465  0.00  0.00    +0.000 A 
ATOM     17  C   UNL     1      -4.021  12.343  19.453  0.00  0.00    +0.000 A 
ATOM     18  C   UNL     1      -3.361  11.507  18.534  0.00  0.00    +0.000 A 
ATOM     19  C   UNL     1      -4.117  10.856  17.549  0.00  0.00    +0.000 A 
ATOM     20  C   UNL     1      -3.515  10.006  16.633  0.00  0.00    +0.000 A 
ATOM     21  C   UNL     1      -2.142   9.796  16.693  0.00  0.00    +0.000 A 
ATOM     22  C   UNL     1      -1.374  10.438  17.668  0.00  0.00    +0.000 A 
ATOM     23  C   UNL     1      -1.955  11.315  18.617  0.00  0.00    +0.000 A 
ENDBRANCH  12  14
ENDBRANCH   1  12
BRANCH   6  24
ATOM     24  N   UNL     1       3.325   5.602  18.604  0.00  0.00    +0.000 N 
ATOM     25  H   UNL     1       4.321   5.677  18.782  0.00  0.00    +0.000 HD
BRANCH  24  26
ATOM     26  C   UNL     1       2.932   4.716  17.506  0.00  0.00    +0.000 C 
ATOM     27  C   UNL     1       1.607   4.017  17.823  0.00  0.00    +0.000 C 
ATOM     28  C   UNL     1       1.769   2.976  18.928  0.00  0.00    +0.000 C 
ATOM     29  C   UNL     1       2.869   1.960  18.636  0.00  0.00    +0.000 C 
ATOM     30  N   UNL     1       4.131   2.495  18.132  0.00  0.00    +0.000 NA
ATOM     31  C   UNL     1       4.017   3.639  17.221  0.00  0.00    +0.000 C 
ATOM     32  H   UNL     1       4.774   2.687  18.895  0.00  0.00    +0.000 HD
ENDBRANCH  24  26
ENDBRANCH   6  24
TORSDOF 4
ENDMDL
MODEL 9
REMARK VINA RESULT:      -9.0      0.971      1.291
REMARK  Name = 
REMARK  4 active torsions:
REMARK  status: ('A' for Active; 'I' for Inactive)
REMARK    1  A    between atoms: S_2  and  C_4
REMARK    2  A    between atoms: S_2  and  C_14
REMARK    3  A    between atoms: C_19  and  N_20
REMARK    4  A    between atoms: N_20  and  C_21
REMARK                            x       y       z     vdW  Elec       q    Type
REMARK                         _______ _______ _______ _____ _____    ______ ____
ROOT
ATOM      1  C   UNL     1       2.912   4.573  19.610  0.00  0.00    +0.000 A 
ATOM      2  N   UNL     1       2.513   4.096  20.804  0.00  0.00    +0.000 NA
ATOM      3  N   UNL     1       1.914   5.165  21.379  0.00  0.00    +0.000 N 
ATOM      4  C   UNL     1       1.880   6.293  20.596  0.00  0.00    +0.000 A 
ATOM      5  C   UNL     1       1.303   7.573  20.773  0.00  0.00    +0.000 A 
ATOM      6  C   UNL     1       1.485   8.543  19.769  0.00  0.00    +0.000 A 
ATOM      7  C   UNL     1       2.238   8.196  18.640  0.00  0.00    +0.000 A 
ATOM      8  C   UNL     1       2.776   6.917  18.454  0.00  0.00    +0.000 A 
ATOM      9  C   UNL     1       2.580   5.946  19.447  0.00  0.00    +0.000 A 
ATOM     10  H   UNL     1       1.545   5.062  22.321  0.00  0.00    +0.000 HD
ENDROOT
BRANCH   1  12
ATOM     11  O   UNL     1       2.809   3.841  17.213  0.00  0.00    +0.000 OA
ATOM     12  S   UNL     1       3.705   3.677  18.343  0.00  0.00    +0.000 S 
ATOM     13  O   UNL     1       3.929   2.354  18.900  0.00  0.00    +0.000 OA
BRANCH  12  14
ATOM     14  C   UNL     1       5.275   4.392  17.922  0.00  0.00    +0.000 A 
ATOM     15  C   UNL     1       5.951   5.061  18.963  0.00  0.00    +0.000 A 
ATOM     16  C   UNL     1       7.113   5.775  18.700  0.00  0.00    +0.000 A 
ATOM     17  C   UNL     1       7.608   5.830  17.404  0.00  0.00    +0.000 A 
ATOM     18  C   UNL     1       6.948   5.182  16.344  0.00  0.00    +0.000 A 
ATOM     19  C   UNL     1       7.476   5.292  15.050  0.00  0.00    +0.000 A 
ATOM     20  C   UNL     1       6.849   4.688  13.970  0.00  0.00    +0.000 A 
ATOM     21  C   UNL     1       5.680   3.964  14.173  0.00  0.00    +0.000 A 
ATOM     22  C   UNL     1       5.142   3.843  15.457  0.00  0.00    +0.000 A 
ATOM     23  C   UNL     1       5.756   4.444  16.584  0.00  0.00    +0.000 A 
ENDBRANCH  12  14
ENDBRANCH   1  12
BRANCH   6  24
ATOM     24  N   UNL     1       0.895   9.805  19.759  0.00  0.00    +0.000 N 
ATOM     25  H   UNL     1       0.338  10.005  20.584  0.00  0.00    +0.000 HD
BRANCH  24  26
ATOM     26  C   UNL     1       0.580  10.591  18.564  0.00  0.00    +0.000 C 
ATOM     27  C   UNL     1       0.552  12.086  18.893  0.00  0.00    +0.000 C 
ATOM     28  C   UNL     1      -0.656  12.454  19.750  0.00  0.00    +0.000 C 
ATOM     29  C   UNL     1      -1.981  12.001  19.140  0.00  0.00    +0.000 C 
ATOM     30  N   UNL     1      -2.020  10.644  18.606  0.00  0.00    +0.000 NA
ATOM     31  C   UNL     1      -0.790  10.182  17.952  0.00  0.00    +0.000 C 
ATOM     32  H   UNL     1      -2.338   9.985  19.311  0.00  0.00    +0.000 HD
ENDBRANCH  24  26
ENDBRANCH   6  24
TORSDOF 4
ENDMDL
