MODEL 1
REMARK VINA RESULT:      -6.5      0.000      0.000
REMARK  Name = 
REMARK  13 active torsions:
REMARK  status: ('A' for Active; 'I' for Inactive)
REMARK    1  A    between atoms: C_1  and  C_2
REMARK    2  A    between atoms: C_2  and  N_3
REMARK    3  A    between atoms: N_3  and  C_4
REMARK    4  A    between atoms: C_4  and  C_5
REMARK    5  A    between atoms: C_6  and  C_8
REMARK    6  A    between atoms: C_8  and  N_9
REMARK    7  A    between atoms: N_9  and  C_10
REMARK    8  A    between atoms: N_9  and  C_11
REMARK    9  A    between atoms: C_11  and  C_12
REMARK   10  A    between atoms: C_12  and  O_13
REMARK   11  A    between atoms: C_12  and  C_14
REMARK   12  A    between atoms: C_14  and  N_15
REMARK   13  A    between atoms: N_24  and  C_25
REMARK                            x       y       z     vdW  Elec       q    Type
REMARK                         _______ _______ _______ _____ _____    ______ ____
ROOT
ATOM      1  C   UNL     1       2.988   5.325  19.968  0.00  0.00    +0.000 C 
ENDROOT
BRANCH   1   2
ATOM      2  O   UNL     1       2.326   5.073  21.183  0.00  0.00    +0.000 OA
ATOM      3  H   UNL     1       2.637   4.193  21.520  0.00  0.00    +0.000 HD
ENDBRANCH   1   2
BRANCH   1   4
ATOM      4  C   UNL     1       2.012   5.794  18.861  0.00  0.00    +0.000 C 
BRANCH   4   5
ATOM      5  N   UNL     1       2.184   7.211  18.458  0.00  0.00    +0.000 NA
ATOM      6  C   UNL     1       3.468   7.472  17.774  0.00  0.00    +0.000 C 
BRANCH   5   7
ATOM      7  C   UNL     1       2.021   8.070  19.650  0.00  0.00    +0.000 C 
BRANCH   7   9
ATOM      8  N   UNL     1       0.139   9.716  20.140  0.00  0.00    +0.000 N 
ATOM      9  C   UNL     1       1.210   9.320  19.363  0.00  0.00    +0.000 C 
ATOM     10  O   UNL     1       1.560   9.992  18.402  0.00  0.00    +0.000 OA
BRANCH   8  12
ATOM     11  C   UNL     1      -1.741  10.711  18.814  0.00  0.00    +0.000 C 
ATOM     12  C   UNL     1      -0.572  10.956  19.785  0.00  0.00    +0.000 C 
ENDBRANCH   8  12
BRANCH   8  13
ATOM     13  C   UNL     1      -0.217   8.901  21.318  0.00  0.00    +0.000 C 
ATOM     14  C   UNL     1       0.232   9.409  22.688  0.00  0.00    +0.000 C 
ENDBRANCH   8  13
ENDBRANCH   7   9
ENDBRANCH   5   7
ENDBRANCH   4   5
ENDBRANCH   1   4
BRANCH   1  15
ATOM     15  C   UNL     1       3.728   4.040  19.542  0.00  0.00    +0.000 C 
BRANCH  15  16
ATOM     16  N   UNL     1       4.698   4.338  18.464  0.00  0.00    +0.000 N 
ATOM     17  C   UNL     1       4.448   3.914  17.179  0.00  0.00    +0.000 A 
ATOM     18  O   UNL     1       3.442   3.264  16.936  0.00  0.00    +0.000 OA
ATOM     19  C   UNL     1       5.348   4.208  16.146  0.00  0.00    +0.000 A 
ATOM     20  C   UNL     1       5.089   3.767  14.831  0.00  0.00    +0.000 A 
ATOM     21  C   UNL     1       5.982   4.046  13.804  0.00  0.00    +0.000 A 
ATOM     22  C   UNL     1       7.139   4.764  14.069  0.00  0.00    +0.000 A 
ATOM     23  C   UNL     1       7.412   5.218  15.361  0.00  0.00    +0.000 A 
ATOM     24  C   UNL     1       6.520   4.955  16.435  0.00  0.00    +0.000 A 
ATOM     25  N   UNL     1       6.749   5.382  17.731  0.00  0.00    +0.000 N 
ATOM     26  C   UNL     1       7.916   6.201  18.136  0.00  0.00    +0.000 C 
ATOM     27  C   UNL     1       5.849   5.062  18.734  0.00  0.00    +0.000 A 
ATOM     28  O   UNL     1       6.062   5.442  19.880  0.00  0.00    +0.000 OA
ENDBRANCH  15  16
ENDBRANCH   1  15
TORSDOF 9
ENDMDL
MODEL 2
REMARK VINA RESULT:      -6.5      2.997      5.531
REMARK  Name = 
REMARK  13 active torsions:
REMARK  status: ('A' for Active; 'I' for Inactive)
REMARK    1  A    between atoms: C_1  and  C_2
REMARK    2  A    between atoms: C_2  and  N_3
REMARK    3  A    between atoms: N_3  and  C_4
REMARK    4  A    between atoms: C_4  and  C_5
REMARK    5  A    between atoms: C_6  and  C_8
REMARK    6  A    between atoms: C_8  and  N_9
REMARK    7  A    between atoms: N_9  and  C_10
REMARK    8  A    between atoms: N_9  and  C_11
REMARK    9  A    between atoms: C_11  and  C_12
REMARK   10  A    between atoms: C_12  and  O_13
REMARK   11  A    between atoms: C_12  and  C_14
REMARK   12  A    between atoms: C_14  and  N_15
REMARK   13  A    between atoms: N_24  and  C_25
REMARK                            x       y       z     vdW  Elec       q    Type
REMARK                         _______ _______ _______ _____ _____    ______ ____
ROOT
ATOM      1  C   UNL     1       1.162   9.188  18.361  0.00  0.00    +0.000 C 
ENDROOT
BRANCH   1   2
ATOM      2  O   UNL     1       1.824   9.823  17.296  0.00  0.00    +0.000 OA
ATOM      3  H   UNL     1       2.790   9.863  17.521  0.00  0.00    +0.000 HD
ENDBRANCH   1   2
BRANCH   1   4
ATOM      4  C   UNL     1       0.142  10.125  19.053  0.00  0.00    +0.000 C 
BRANCH   4   5
ATOM      5  N   UNL     1       0.751  11.300  19.724  0.00  0.00    +0.000 NA
ATOM      6  C   UNL     1       0.347  11.440  21.138  0.00  0.00    +0.000 C 
BRANCH   5   7
ATOM      7  C   UNL     1       0.429  12.515  18.945  0.00  0.00    +0.000 C 
BRANCH   7   9
ATOM      8  N   UNL     1       1.843  14.619  18.691  0.00  0.00    +0.000 N 
ATOM      9  C   UNL     1       1.668  13.264  18.491  0.00  0.00    +0.000 C 
ATOM     10  O   UNL     1       2.539  12.601  17.942  0.00  0.00    +0.000 OA
BRANCH   8  12
ATOM     11  C   UNL     1       3.447  16.517  19.020  0.00  0.00    +0.000 C 
ATOM     12  C   UNL     1       3.091  15.247  18.226  0.00  0.00    +0.000 C 
ENDBRANCH   8  12
BRANCH   8  13
ATOM     13  C   UNL     1       0.788  15.368  19.400  0.00  0.00    +0.000 C 
ATOM     14  C   UNL     1      -0.214  16.151  18.550  0.00  0.00    +0.000 C 
ENDBRANCH   8  13
ENDBRANCH   7   9
ENDBRANCH   5   7
ENDBRANCH   4   5
ENDBRANCH   1   4
BRANCH   1  15
ATOM     15  C   UNL     1       2.222   8.692  19.366  0.00  0.00    +0.000 C 
BRANCH  15  16
ATOM     16  N   UNL     1       2.435   7.235  19.213  0.00  0.00    +0.000 N 
ATOM     17  C   UNL     1       1.801   6.357  20.062  0.00  0.00    +0.000 A 
ATOM     18  O   UNL     1       1.090   6.782  20.961  0.00  0.00    +0.000 OA
ATOM     19  C   UNL     1       1.977   4.974  19.915  0.00  0.00    +0.000 A 
ATOM     20  C   UNL     1       1.328   4.078  20.791  0.00  0.00    +0.000 A 
ATOM     21  C   UNL     1       1.506   2.706  20.657  0.00  0.00    +0.000 A 
ATOM     22  C   UNL     1       2.328   2.210  19.655  0.00  0.00    +0.000 A 
ATOM     23  C   UNL     1       2.974   3.078  18.771  0.00  0.00    +0.000 A 
ATOM     24  C   UNL     1       2.811   4.485  18.875  0.00  0.00    +0.000 A 
ATOM     25  N   UNL     1       3.431   5.383  18.025  0.00  0.00    +0.000 N 
ATOM     26  C   UNL     1       4.289   4.983  16.885  0.00  0.00    +0.000 C 
ATOM     27  C   UNL     1       3.250   6.744  18.206  0.00  0.00    +0.000 A 
ATOM     28  O   UNL     1       3.807   7.533  17.450  0.00  0.00    +0.000 OA
ENDBRANCH  15  16
ENDBRANCH   1  15
TORSDOF 9
ENDMDL
MODEL 3
REMARK VINA RESULT:      -6.5      2.942      9.124
REMARK  Name = 
REMARK  13 active torsions:
REMARK  status: ('A' for Active; 'I' for Inactive)
REMARK    1  A    between atoms: C_1  and  C_2
REMARK    2  A    between atoms: C_2  and  N_3
REMARK    3  A    between atoms: N_3  and  C_4
REMARK    4  A    between atoms: C_4  and  C_5
REMARK    5  A    between atoms: C_6  and  C_8
REMARK    6  A    between atoms: C_8  and  N_9
REMARK    7  A    between atoms: N_9  and  C_10
REMARK    8  A    between atoms: N_9  and  C_11
REMARK    9  A    between atoms: C_11  and  C_12
REMARK   10  A    between atoms: C_12  and  O_13
REMARK   11  A    between atoms: C_12  and  C_14
REMARK   12  A    between atoms: C_14  and  N_15
REMARK   13  A    between atoms: N_24  and  C_25
REMARK                            x       y       z     vdW  Elec       q    Type
REMARK                         _______ _______ _______ _____ _____    ______ ____
ROOT
ATOM      1  C   UNL     1       1.347   8.829  18.809  0.00  0.00    +0.000 C 
ENDROOT
BRANCH   1   2
ATOM      2  O   UNL     1       1.777   8.537  20.115  0.00  0.00    +0.000 OA
ATOM      3  H   UNL     1       1.585   9.329  20.681  0.00  0.00    +0.000 HD
ENDBRANCH   1   2
BRANCH   1   4
ATOM      4  C   UNL     1       2.240   8.155  17.738  0.00  0.00    +0.000 C 
BRANCH   4   5
ATOM      5  N   UNL     1       3.081   7.048  18.256  0.00  0.00    +0.000 NA
ATOM      6  C   UNL     1       4.415   6.984  17.624  0.00  0.00    +0.000 C 
BRANCH   5   7
ATOM      7  C   UNL     1       2.345   5.776  18.099  0.00  0.00    +0.000 C 
BRANCH   7   9
ATOM      8  N   UNL     1       1.493   3.856  19.542  0.00  0.00    +0.000 N 
ATOM      9  C   UNL     1       1.985   5.141  19.430  0.00  0.00    +0.000 C 
ATOM     10  O   UNL     1       2.168   5.823  20.430  0.00  0.00    +0.000 OA
BRANCH   8  12
ATOM     11  C   UNL     1       2.412   2.673  21.551  0.00  0.00    +0.000 C 
ATOM     12  C   UNL     1       1.191   3.328  20.883  0.00  0.00    +0.000 C 
ENDBRANCH   8  12
BRANCH   8  13
ATOM     13  C   UNL     1       1.335   3.053  18.313  0.00  0.00    +0.000 C 
ATOM     14  C   UNL     1       2.528   2.209  17.864  0.00  0.00    +0.000 C 
ENDBRANCH   8  13
ENDBRANCH   7   9
ENDBRANCH   5   7
ENDBRANCH   4   5
ENDBRANCH   1   4
BRANCH   1  15
ATOM     15  C   UNL     1       1.336  10.361  18.631  0.00  0.00    +0.000 C 
BRANCH  15  16
ATOM     16  N   UNL     1       0.162  10.951  19.312  0.00  0.00    +0.000 N 
ATOM     17  C   UNL     1       0.294  11.472  20.579  0.00  0.00    +0.000 A 
ATOM     18  O   UNL     1       1.371  11.416  21.152  0.00  0.00    +0.000 OA
ATOM     19  C   UNL     1      -0.805  12.053  21.226  0.00  0.00    +0.000 A 
ATOM     20  C   UNL     1      -0.666  12.581  22.527  0.00  0.00    +0.000 A 
ATOM     21  C   UNL     1      -1.754  13.149  23.179  0.00  0.00    +0.000 A 
ATOM     22  C   UNL     1      -2.990  13.199  22.548  0.00  0.00    +0.000 A 
ATOM     23  C   UNL     1      -3.149  12.690  21.257  0.00  0.00    +0.000 A 
ATOM     24  C   UNL     1      -2.058  12.107  20.559  0.00  0.00    +0.000 A 
ATOM     25  N   UNL     1      -2.168  11.588  19.281  0.00  0.00    +0.000 N 
ATOM     26  C   UNL     1      -3.413  11.627  18.479  0.00  0.00    +0.000 C 
ATOM     27  C   UNL     1      -1.067  11.006  18.674  0.00  0.00    +0.000 A 
ATOM     28  O   UNL     1      -1.176  10.546  17.543  0.00  0.00    +0.000 OA
ENDBRANCH  15  16
ENDBRANCH   1  15
TORSDOF 9
ENDMDL
MODEL 4
REMARK VINA RESULT:      -6.3      1.533      8.009
REMARK  Name = 
REMARK  13 active torsions:
REMARK  status: ('A' for Active; 'I' for Inactive)
REMARK    1  A    between atoms: C_1  and  C_2
REMARK    2  A    between atoms: C_2  and  N_3
REMARK    3  A    between atoms: N_3  and  C_4
REMARK    4  A    between atoms: C_4  and  C_5
REMARK    5  A    between atoms: C_6  and  C_8
REMARK    6  A    between atoms: C_8  and  N_9
REMARK    7  A    between atoms: N_9  and  C_10
REMARK    8  A    between atoms: N_9  and  C_11
REMARK    9  A    between atoms: C_11  and  C_12
REMARK   10  A    between atoms: C_12  and  O_13
REMARK   11  A    between atoms: C_12  and  C_14
REMARK   12  A    between atoms: C_14  and  N_15
REMARK   13  A    between atoms: N_24  and  C_25
REMARK                            x       y       z     vdW  Elec       q    Type
REMARK                         _______ _______ _______ _____ _____    ______ ____
ROOT
ATOM      1  C   UNL     1       3.710   7.126  18.606  0.00  0.00    +0.000 C 
ENDROOT
BRANCH   1   2
ATOM      2  O   UNL     1       4.293   7.041  17.329  0.00  0.00    +0.000 OA
ATOM      3  H   UNL     1       4.168   7.918  16.881  0.00  0.00    +0.000 HD
ENDBRANCH   1   2
BRANCH   1   4
ATOM      4  C   UNL     1       4.154   5.964  19.526  0.00  0.00    +0.000 C 
BRANCH   4   5
ATOM      5  N   UNL     1       3.598   4.641  19.150  0.00  0.00    +0.000 NA
ATOM      6  C   UNL     1       2.726   4.056  20.190  0.00  0.00    +0.000 C 
BRANCH   5   7
ATOM      7  C   UNL     1       4.714   3.735  18.805  0.00  0.00    +0.000 C 
BRANCH   7   9
ATOM      8  N   UNL     1       6.285   4.273  16.873  0.00  0.00    +0.000 N 
ATOM      9  C   UNL     1       5.076   3.789  17.332  0.00  0.00    +0.000 C 
ATOM     10  O   UNL     1       4.243   3.359  16.546  0.00  0.00    +0.000 OA
BRANCH   8  12
ATOM     11  C   UNL     1       5.815   5.403  14.686  0.00  0.00    +0.000 C 
ATOM     12  C   UNL     1       6.545   4.266  15.423  0.00  0.00    +0.000 C 
ENDBRANCH   8  12
BRANCH   8  13
ATOM     13  C   UNL     1       7.280   4.735  17.861  0.00  0.00    +0.000 C 
ATOM     14  C   UNL     1       7.591   6.232  17.900  0.00  0.00    +0.000 C 
ENDBRANCH   8  13
ENDBRANCH   7   9
ENDBRANCH   5   7
ENDBRANCH   4   5
ENDBRANCH   1   4
BRANCH   1  15
ATOM     15  C   UNL     1       2.176   7.140  18.440  0.00  0.00    +0.000 C 
BRANCH  15  16
ATOM     16  N   UNL     1       1.589   8.287  19.170  0.00  0.00    +0.000 N 
ATOM     17  C   UNL     1       1.087   8.107  20.438  0.00  0.00    +0.000 A 
ATOM     18  O   UNL     1       1.097   6.996  20.947  0.00  0.00    +0.000 OA
ATOM     19  C   UNL     1       0.548   9.188  21.149  0.00  0.00    +0.000 A 
ATOM     20  C   UNL     1       0.031   8.998  22.448  0.00  0.00    +0.000 A 
ATOM     21  C   UNL     1      -0.514  10.063  23.154  0.00  0.00    +0.000 A 
ATOM     22  C   UNL     1      -0.552  11.326  22.581  0.00  0.00    +0.000 A 
ATOM     23  C   UNL     1      -0.038  11.540  21.300  0.00  0.00    +0.000 A 
ATOM     24  C   UNL     1       0.531  10.476  20.551  0.00  0.00    +0.000 A 
ATOM     25  N   UNL     1       1.050  10.639  19.279  0.00  0.00    +0.000 N 
ATOM     26  C   UNL     1       1.120  11.941  18.577  0.00  0.00    +0.000 C 
ATOM     27  C   UNL     1       1.561   9.547  18.595  0.00  0.00    +0.000 A 
ATOM     28  O   UNL     1       2.016   9.701  17.467  0.00  0.00    +0.000 OA
ENDBRANCH  15  16
ENDBRANCH   1  15
TORSDOF 9
ENDMDL
MODEL 5
REMARK VINA RESULT:      -6.3      2.558      5.122
REMARK  Name = 
REMARK  13 active torsions:
REMARK  status: ('A' for Active; 'I' for Inactive)
REMARK    1  A    between atoms: C_1  and  C_2
REMARK    2  A    between atoms: C_2  and  N_3
REMARK    3  A    between atoms: N_3  and  C_4
REMARK    4  A    between atoms: C_4  and  C_5
REMARK    5  A    between atoms: C_6  and  C_8
REMARK    6  A    between atoms: C_8  and  N_9
REMARK    7  A    between atoms: N_9  and  C_10
REMARK    8  A    between atoms: N_9  and  C_11
REMARK    9  A    between atoms: C_11  and  C_12
REMARK   10  A    between atoms: C_12  and  O_13
REMARK   11  A    between atoms: C_12  and  C_14
REMARK   12  A    between atoms: C_14  and  N_15
REMARK   13  A    between atoms: N_24  and  C_25
REMARK                            x       y       z     vdW  Elec       q    Type
REMARK                         _______ _______ _______ _____ _____    ______ ____
ROOT
ATOM      1  C   UNL     1       0.475   9.519  18.815  0.00  0.00    +0.000 C 
ENDROOT
BRANCH   1   2
ATOM      2  O   UNL     1       0.911  10.568  17.987  0.00  0.00    +0.000 OA
ATOM      3  H   UNL     1       1.825  10.823  18.278  0.00  0.00    +0.000 HD
ENDBRANCH   1   2
BRANCH   1   4
ATOM      4  C   UNL     1      -0.790   9.902  19.621  0.00  0.00    +0.000 C 
BRANCH   4   5
ATOM      5  N   UNL     1      -0.927  11.355  19.886  0.00  0.00    +0.000 NA
ATOM      6  C   UNL     1      -0.741  11.710  21.308  0.00  0.00    +0.000 C 
BRANCH   5   7
ATOM      7  C   UNL     1      -2.240  11.811  19.381  0.00  0.00    +0.000 C 
BRANCH   7   9
ATOM      8  N   UNL     1      -3.410  11.149  17.217  0.00  0.00    +0.000 N 
ATOM      9  C   UNL     1      -2.343  11.734  17.869  0.00  0.00    +0.000 C 
ATOM     10  O   UNL     1      -1.429  12.238  17.231  0.00  0.00    +0.000 OA
BRANCH   8  12
ATOM     11  C   UNL     1      -2.943   9.802  15.155  0.00  0.00    +0.000 C 
ATOM     12  C   UNL     1      -3.421  11.141  15.744  0.00  0.00    +0.000 C 
ENDBRANCH   8  12
BRANCH   8  13
ATOM     13  C   UNL     1      -4.513  10.596  18.027  0.00  0.00    +0.000 C 
ATOM     14  C   UNL     1      -5.831  11.372  18.046  0.00  0.00    +0.000 C 
ENDBRANCH   8  13
ENDBRANCH   7   9
ENDBRANCH   5   7
ENDBRANCH   4   5
ENDBRANCH   1   4
BRANCH   1  15
ATOM     15  C   UNL     1       1.632   9.131  19.759  0.00  0.00    +0.000 C 
BRANCH  15  16
ATOM     16  N   UNL     1       2.129   7.775  19.435  0.00  0.00    +0.000 N 
ATOM     17  C   UNL     1       2.938   7.585  18.338  0.00  0.00    +0.000 A 
ATOM     18  O   UNL     1       3.217   8.530  17.615  0.00  0.00    +0.000 OA
ATOM     19  C   UNL     1       3.433   6.310  18.033  0.00  0.00    +0.000 A 
ATOM     20  C   UNL     1       4.259   6.120  16.904  0.00  0.00    +0.000 A 
ATOM     21  C   UNL     1       4.744   4.856  16.590  0.00  0.00    +0.000 A 
ATOM     22  C   UNL     1       4.418   3.770  17.390  0.00  0.00    +0.000 A 
ATOM     23  C   UNL     1       3.609   3.937  18.516  0.00  0.00    +0.000 A 
ATOM     24  C   UNL     1       3.099   5.214  18.871  0.00  0.00    +0.000 A 
ATOM     25  N   UNL     1       2.293   5.427  19.976  0.00  0.00    +0.000 N 
ATOM     26  C   UNL     1       1.915   4.365  20.938  0.00  0.00    +0.000 C 
ATOM     27  C   UNL     1       1.806   6.696  20.242  0.00  0.00    +0.000 A 
ATOM     28  O   UNL     1       1.090   6.874  21.222  0.00  0.00    +0.000 OA
ENDBRANCH  15  16
ENDBRANCH   1  15
TORSDOF 9
ENDMDL
MODEL 6
REMARK VINA RESULT:      -6.3      3.489      8.870
REMARK  Name = 
REMARK  13 active torsions:
REMARK  status: ('A' for Active; 'I' for Inactive)
REMARK    1  A    between atoms: C_1  and  C_2
REMARK    2  A    between atoms: C_2  and  N_3
REMARK    3  A    between atoms: N_3  and  C_4
REMARK    4  A    between atoms: C_4  and  C_5
REMARK    5  A    between atoms: C_6  and  C_8
REMARK    6  A    between atoms: C_8  and  N_9
REMARK    7  A    between atoms: N_9  and  C_10
REMARK    8  A    between atoms: N_9  and  C_11
REMARK    9  A    between atoms: C_11  and  C_12
REMARK   10  A    between atoms: C_12  and  O_13
REMARK   11  A    between atoms: C_12  and  C_14
REMARK   12  A    between atoms: C_14  and  N_15
REMARK   13  A    between atoms: N_24  and  C_25
REMARK                            x       y       z     vdW  Elec       q    Type
REMARK                         _______ _______ _______ _____ _____    ______ ____
ROOT
ATOM      1  C   UNL     1      -0.278  10.723  21.987  0.00  0.00    +0.000 C 
ENDROOT
BRANCH   1   2
ATOM      2  O   UNL     1      -0.384  11.392  23.219  0.00  0.00    +0.000 OA
ATOM      3  H   UNL     1       0.537  11.587  23.537  0.00  0.00    +0.000 HD
ENDBRANCH   1   2
BRANCH   1   4
ATOM      4  C   UNL     1       0.897   9.715  21.972  0.00  0.00    +0.000 C 
BRANCH   4   5
ATOM      5  N   UNL     1       0.733   8.602  21.005  0.00  0.00    +0.000 NA
ATOM      6  C   UNL     1      -0.562   7.902  21.133  0.00  0.00    +0.000 C 
BRANCH   5   7
ATOM      7  C   UNL     1       1.870   7.669  21.153  0.00  0.00    +0.000 C 
BRANCH   7   9
ATOM      8  N   UNL     1       2.205   5.622  19.674  0.00  0.00    +0.000 N 
ATOM      9  C   UNL     1       2.245   6.991  19.848  0.00  0.00    +0.000 C 
ATOM     10  O   UNL     1       2.575   7.723  18.925  0.00  0.00    +0.000 OA
BRANCH   8  12
ATOM     11  C   UNL     1       1.421   4.280  17.707  0.00  0.00    +0.000 C 
ATOM     12  C   UNL     1       2.572   5.065  18.361  0.00  0.00    +0.000 C 
ENDBRANCH   8  12
BRANCH   8  13
ATOM     13  C   UNL     1       1.754   4.781  20.801  0.00  0.00    +0.000 C 
ATOM     14  C   UNL     1       2.478   3.453  21.023  0.00  0.00    +0.000 C 
ENDBRANCH   8  13
ENDBRANCH   7   9
ENDBRANCH   5   7
ENDBRANCH   4   5
ENDBRANCH   1   4
BRANCH   1  15
ATOM     15  C   UNL     1      -0.113  11.777  20.873  0.00  0.00    +0.000 C 
BRANCH  15  16
ATOM     16  N   UNL     1      -1.249  11.709  19.926  0.00  0.00    +0.000 N 
ATOM     17  C   UNL     1      -1.108  11.038  18.733  0.00  0.00    +0.000 A 
ATOM     18  O   UNL     1      -0.036  10.528  18.443  0.00  0.00    +0.000 OA
ATOM     19  C   UNL     1      -2.182  10.948  17.837  0.00  0.00    +0.000 A 
ATOM     20  C   UNL     1      -2.031  10.262  16.613  0.00  0.00    +0.000 A 
ATOM     21  C   UNL     1      -3.089  10.178  15.716  0.00  0.00    +0.000 A 
ATOM     22  C   UNL     1      -4.305  10.772  16.023  0.00  0.00    +0.000 A 
ATOM     23  C   UNL     1      -4.480  11.448  17.232  0.00  0.00    +0.000 A 
ATOM     24  C   UNL     1      -3.423  11.550  18.175  0.00  0.00    +0.000 A 
ATOM     25  N   UNL     1      -3.548  12.212  19.384  0.00  0.00    +0.000 N 
ATOM     26  C   UNL     1      -4.805  12.840  19.854  0.00  0.00    +0.000 C 
ATOM     27  C   UNL     1      -2.463  12.297  20.241  0.00  0.00    +0.000 A 
ATOM     28  O   UNL     1      -2.583  12.889  21.309  0.00  0.00    +0.000 OA
ENDBRANCH  15  16
ENDBRANCH   1  15
TORSDOF 9
ENDMDL
MODEL 7
REMARK VINA RESULT:      -6.2      1.843      8.052
REMARK  Name = 
REMARK  13 active torsions:
REMARK  status: ('A' for Active; 'I' for Inactive)
REMARK    1  A    between atoms: C_1  and  C_2
REMARK    2  A    between atoms: C_2  and  N_3
REMARK    3  A    between atoms: N_3  and  C_4
REMARK    4  A    between atoms: C_4  and  C_5
REMARK    5  A    between atoms: C_6  and  C_8
REMARK    6  A    between atoms: C_8  and  N_9
REMARK    7  A    between atoms: N_9  and  C_10
REMARK    8  A    between atoms: N_9  and  C_11
REMARK    9  A    between atoms: C_11  and  C_12
REMARK   10  A    between atoms: C_12  and  O_13
REMARK   11  A    between atoms: C_12  and  C_14
REMARK   12  A    between atoms: C_14  and  N_15
REMARK   13  A    between atoms: N_24  and  C_25
REMARK                            x       y       z     vdW  Elec       q    Type
REMARK                         _______ _______ _______ _____ _____    ______ ____
ROOT
ATOM      1  C   UNL     1       3.321   7.221  18.559  0.00  0.00    +0.000 C 
ENDROOT
BRANCH   1   2
ATOM      2  O   UNL     1       3.887   7.428  17.289  0.00  0.00    +0.000 OA
ATOM      3  H   UNL     1       4.004   6.540  16.861  0.00  0.00    +0.000 HD
ENDBRANCH   1   2
BRANCH   1   4
ATOM      4  C   UNL     1       3.565   5.782  19.076  0.00  0.00    +0.000 C 
BRANCH   4   5
ATOM      5  N   UNL     1       2.800   4.737  18.353  0.00  0.00    +0.000 NA
ATOM      6  C   UNL     1       1.897   3.962  19.228  0.00  0.00    +0.000 C 
BRANCH   5   7
ATOM      7  C   UNL     1       3.752   3.857  17.641  0.00  0.00    +0.000 C 
BRANCH   7   9
ATOM      8  N   UNL     1       6.171   4.590  17.326  0.00  0.00    +0.000 N 
ATOM      9  C   UNL     1       5.182   4.037  18.115  0.00  0.00    +0.000 C 
ATOM     10  O   UNL     1       5.429   3.682  19.260  0.00  0.00    +0.000 OA
BRANCH   8  12
ATOM     11  C   UNL     1       7.746   6.108  18.550  0.00  0.00    +0.000 C 
ATOM     12  C   UNL     1       7.525   4.736  17.888  0.00  0.00    +0.000 C 
ENDBRANCH   8  12
BRANCH   8  13
ATOM     13  C   UNL     1       5.816   5.050  15.969  0.00  0.00    +0.000 C 
ATOM     14  C   UNL     1       6.310   4.211  14.790  0.00  0.00    +0.000 C 
ENDBRANCH   8  13
ENDBRANCH   7   9
ENDBRANCH   5   7
ENDBRANCH   4   5
ENDBRANCH   1   4
BRANCH   1  15
ATOM     15  C   UNL     1       1.811   7.526  18.474  0.00  0.00    +0.000 C 
BRANCH  15  16
ATOM     16  N   UNL     1       1.498   8.782  19.191  0.00  0.00    +0.000 N 
ATOM     17  C   UNL     1       1.595   9.989  18.536  0.00  0.00    +0.000 A 
ATOM     18  O   UNL     1       1.970  10.023  17.374  0.00  0.00    +0.000 OA
ATOM     19  C   UNL     1       1.280  11.184  19.197  0.00  0.00    +0.000 A 
ATOM     20  C   UNL     1       1.385  12.418  18.522  0.00  0.00    +0.000 A 
ATOM     21  C   UNL     1       1.085  13.608  19.175  0.00  0.00    +0.000 A 
ATOM     22  C   UNL     1       0.678  13.586  20.501  0.00  0.00    +0.000 A 
ATOM     23  C   UNL     1       0.559  12.375  21.187  0.00  0.00    +0.000 A 
ATOM     24  C   UNL     1       0.853  11.139  20.550  0.00  0.00    +0.000 A 
ATOM     25  N   UNL     1       0.751   9.916  21.189  0.00  0.00    +0.000 N 
ATOM     26  C   UNL     1       0.278   9.750  22.583  0.00  0.00    +0.000 C 
ATOM     27  C   UNL     1       1.084   8.754  20.514  0.00  0.00    +0.000 A 
ATOM     28  O   UNL     1       0.994   7.675  21.089  0.00  0.00    +0.000 OA
ENDBRANCH  15  16
ENDBRANCH   1  15
TORSDOF 9
ENDMDL
MODEL 8
REMARK VINA RESULT:      -6.1      2.651      5.416
REMARK  Name = 
REMARK  13 active torsions:
REMARK  status: ('A' for Active; 'I' for Inactive)
REMARK    1  A    between atoms: C_1  and  C_2
REMARK    2  A    between atoms: C_2  and  N_3
REMARK    3  A    between atoms: N_3  and  C_4
REMARK    4  A    between atoms: C_4  and  C_5
REMARK    5  A    between atoms: C_6  and  C_8
REMARK    6  A    between atoms: C_8  and  N_9
REMARK    7  A    between atoms: N_9  and  C_10
REMARK    8  A    between atoms: N_9  and  C_11
REMARK    9  A    between atoms: C_11  and  C_12
REMARK   10  A    between atoms: C_12  and  O_13
REMARK   11  A    between atoms: C_12  and  C_14
REMARK   12  A    between atoms: C_14  and  N_15
REMARK   13  A    between atoms: N_24  and  C_25
REMARK                            x       y       z     vdW  Elec       q    Type
REMARK                         _______ _______ _______ _____ _____    ______ ____
ROOT
ATOM      1  C   UNL     1       1.133   9.277  18.457  0.00  0.00    +0.000 C 
ENDROOT
BRANCH   1   2
ATOM      2  O   UNL     1       1.770   9.791  17.314  0.00  0.00    +0.000 OA
ATOM      3  H   UNL     1       2.327   9.067  16.926  0.00  0.00    +0.000 HD
ENDBRANCH   1   2
BRANCH   1   4
ATOM      4  C   UNL     1       0.242  10.336  19.151  0.00  0.00    +0.000 C 
BRANCH   4   5
ATOM      5  N   UNL     1      -0.844  10.873  18.296  0.00  0.00    +0.000 NA
ATOM      6  C   UNL     1      -0.840  12.348  18.203  0.00  0.00    +0.000 C 
BRANCH   5   7
ATOM      7  C   UNL     1      -2.140  10.366  18.795  0.00  0.00    +0.000 C 
BRANCH   7   9
ATOM      8  N   UNL     1      -4.261  11.744  18.494  0.00  0.00    +0.000 N 
ATOM      9  C   UNL     1      -3.318  10.874  17.984  0.00  0.00    +0.000 C 
ATOM     10  O   UNL     1      -3.394  10.489  16.826  0.00  0.00    +0.000 OA
BRANCH   8  12
ATOM     11  C   UNL     1      -6.694  11.497  17.941  0.00  0.00    +0.000 C 
ATOM     12  C   UNL     1      -5.358  12.191  17.618  0.00  0.00    +0.000 C 
ENDBRANCH   8  12
BRANCH   8  13
ATOM     13  C   UNL     1      -4.102  12.222  19.882  0.00  0.00    +0.000 C 
ATOM     14  C   UNL     1      -4.779  13.541  20.255  0.00  0.00    +0.000 C 
ENDBRANCH   8  13
ENDBRANCH   7   9
ENDBRANCH   5   7
ENDBRANCH   4   5
ENDBRANCH   1   4
BRANCH   1  15
ATOM     15  C   UNL     1       2.216   8.751  19.422  0.00  0.00    +0.000 C 
BRANCH  15  16
ATOM     16  N   UNL     1       2.406   7.295  19.240  0.00  0.00    +0.000 N 
ATOM     17  C   UNL     1       1.750   6.409  20.064  0.00  0.00    +0.000 A 
ATOM     18  O   UNL     1       1.039   6.826  20.965  0.00  0.00    +0.000 OA
ATOM     19  C   UNL     1       1.905   5.027  19.888  0.00  0.00    +0.000 A 
ATOM     20  C   UNL     1       1.234   4.123  20.738  0.00  0.00    +0.000 A 
ATOM     21  C   UNL     1       1.391   2.752  20.576  0.00  0.00    +0.000 A 
ATOM     22  C   UNL     1       2.213   2.264  19.570  0.00  0.00    +0.000 A 
ATOM     23  C   UNL     1       2.880   3.140  18.711  0.00  0.00    +0.000 A 
ATOM     24  C   UNL     1       2.740   4.547  18.845  0.00  0.00    +0.000 A 
ATOM     25  N   UNL     1       3.382   5.453  18.020  0.00  0.00    +0.000 N 
ATOM     26  C   UNL     1       4.243   5.063  16.878  0.00  0.00    +0.000 C 
ATOM     27  C   UNL     1       3.223   6.813  18.229  0.00  0.00    +0.000 A 
ATOM     28  O   UNL     1       3.799   7.608  17.495  0.00  0.00    +0.000 OA
ENDBRANCH  15  16
ENDBRANCH   1  15
TORSDOF 9
ENDMDL
MODEL 9
REMARK VINA RESULT:      -6.0      2.316      8.308
REMARK  Name = 
REMARK  13 active torsions:
REMARK  status: ('A' for Active; 'I' for Inactive)
REMARK    1  A    between atoms: C_1  and  C_2
REMARK    2  A    between atoms: C_2  and  N_3
REMARK    3  A    between atoms: N_3  and  C_4
REMARK    4  A    between atoms: C_4  and  C_5
REMARK    5  A    between atoms: C_6  and  C_8
REMARK    6  A    between atoms: C_8  and  N_9
REMARK    7  A    between atoms: N_9  and  C_10
REMARK    8  A    between atoms: N_9  and  C_11
REMARK    9  A    between atoms: C_11  and  C_12
REMARK   10  A    between atoms: C_12  and  O_13
REMARK   11  A    between atoms: C_12  and  C_14
REMARK   12  A    between atoms: C_14  and  N_15
REMARK   13  A    between atoms: N_24  and  C_25
REMARK                            x       y       z     vdW  Elec       q    Type
REMARK                         _______ _______ _______ _____ _____    ______ ____
ROOT
ATOM      1  C   UNL     1       1.830   6.742  19.531  0.00  0.00    +0.000 C 
ENDROOT
BRANCH   1   2
ATOM      2  O   UNL     1       2.232   5.923  20.601  0.00  0.00    +0.000 OA
ATOM      3  H   UNL     1       3.212   5.784  20.525  0.00  0.00    +0.000 HD
ENDBRANCH   1   2
BRANCH   1   4
ATOM      4  C   UNL     1       2.300   6.185  18.165  0.00  0.00    +0.000 C 
BRANCH   4   5
ATOM      5  N   UNL     1       3.774   6.113  18.011  0.00  0.00    +0.000 NA
ATOM      6  C   UNL     1       4.307   7.083  17.032  0.00  0.00    +0.000 C 
BRANCH   5   7
ATOM      7  C   UNL     1       4.149   4.726  17.661  0.00  0.00    +0.000 C 
BRANCH   7   9
ATOM      8  N   UNL     1       3.483   2.798  19.187  0.00  0.00    +0.000 N 
ATOM      9  C   UNL     1       4.332   3.844  18.882  0.00  0.00    +0.000 C 
ATOM     10  O   UNL     1       5.295   4.089  19.596  0.00  0.00    +0.000 OA
BRANCH   8  12
ATOM     11  C   UNL     1       2.887   2.401  21.589  0.00  0.00    +0.000 C 
ATOM     12  C   UNL     1       3.759   1.992  20.388  0.00  0.00    +0.000 C 
ENDBRANCH   8  12
BRANCH   8  13
ATOM     13  C   UNL     1       2.363   2.510  18.270  0.00  0.00    +0.000 C 
ATOM     14  C   UNL     1       0.953   2.851  18.752  0.00  0.00    +0.000 C 
ENDBRANCH   8  13
ENDBRANCH   7   9
ENDBRANCH   5   7
ENDBRANCH   4   5
ENDBRANCH   1   4
BRANCH   1  15
ATOM     15  C   UNL     1       2.388   8.161  19.768  0.00  0.00    +0.000 C 
BRANCH  15  16
ATOM     16  N   UNL     1       1.286   9.107  20.052  0.00  0.00    +0.000 N 
ATOM     17  C   UNL     1       0.879   9.316  21.351  0.00  0.00    +0.000 A 
ATOM     18  O   UNL     1       1.406   8.696  22.262  0.00  0.00    +0.000 OA
ATOM     19  C   UNL     1      -0.148  10.225  21.636  0.00  0.00    +0.000 A 
ATOM     20  C   UNL     1      -0.565  10.433  22.968  0.00  0.00    +0.000 A 
ATOM     21  C   UNL     1      -1.590  11.325  23.256  0.00  0.00    +0.000 A 
ATOM     22  C   UNL     1      -2.212  12.020  22.228  0.00  0.00    +0.000 A 
ATOM     23  C   UNL     1      -1.811  11.837  20.903  0.00  0.00    +0.000 A 
ATOM     24  C   UNL     1      -0.763  10.937  20.572  0.00  0.00    +0.000 A 
ATOM     25  N   UNL     1      -0.333  10.721  19.275  0.00  0.00    +0.000 N 
ATOM     26  C   UNL     1      -0.876  11.437  18.096  0.00  0.00    +0.000 C 
ATOM     27  C   UNL     1       0.674   9.804  19.023  0.00  0.00    +0.000 A 
ATOM     28  O   UNL     1       1.046   9.617  17.870  0.00  0.00    +0.000 OA
ENDBRANCH  15  16
ENDBRANCH   1  15
TORSDOF 9
ENDMDL
