MODEL 1
REMARK VINA RESULT:      -7.5      0.000      0.000
REMARK  Name = 
REMARK  1 active torsions:
REMARK  status: ('A' for Active; 'I' for Inactive)
REMARK    1  A    between atoms: C_1  and  N_2
REMARK                            x       y       z     vdW  Elec       q    Type
REMARK                         _______ _______ _______ _____ _____    ______ ____
ROOT
ATOM      1  C   UNL     1       7.091   5.939  16.703  0.00  0.00    +0.000 C 
ATOM      2  N   UNL     1       5.643   5.639  16.737  0.00  0.00    +0.000 NA
ATOM      3  C   UNL     1       5.508   4.178  16.644  0.00  0.00    +0.000 C 
ATOM      4  C   UNL     1       4.101   3.754  16.351  0.00  0.00    +0.000 C 
ATOM      5  C   UNL     1       3.391   3.671  17.660  0.00  0.00    +0.000 A 
ATOM      6  C   UNL     1       3.259   2.346  18.132  0.00  0.00    +0.000 A 
ATOM      7  C   UNL     1       2.706   2.058  19.346  0.00  0.00    +0.000 A 
ATOM      8  C   UNL     1       2.208   3.062  20.127  0.00  0.00    +0.000 A 
ATOM      9 CL   UNL     1       1.505   2.581  21.681  0.00  0.00    +0.000 Cl
ATOM     10  C   UNL     1       2.288   4.407  19.711  0.00  0.00    +0.000 A 
ATOM     11  C   UNL     1       2.957   4.807  18.433  0.00  0.00    +0.000 A 
ATOM     12  C   UNL     1       3.327   6.318  17.851  0.00  0.00    +0.000 C 
ATOM     13  C   UNL     1       2.665   7.807  18.332  0.00  0.00    +0.000 C 
ATOM     14  C   UNL     1       1.901   8.010  19.709  0.00  0.00    +0.000 C 
ATOM     15  C   UNL     1       1.787   6.665  20.194  0.00  0.00    +0.000 C 
ATOM     16  C   UNL     1       1.642   5.342  20.725  0.00  0.00    +0.000 C 
ATOM     17  C   UNL     1       4.914   6.431  17.795  0.00  0.00    +0.000 C 
ENDROOT
TORSDOF 0
ENDMDL
MODEL 2
REMARK VINA RESULT:      -7.0      1.783      4.172
REMARK  Name = 
REMARK  1 active torsions:
REMARK  status: ('A' for Active; 'I' for Inactive)
REMARK    1  A    between atoms: C_1  and  N_2
REMARK                            x       y       z     vdW  Elec       q    Type
REMARK                         _______ _______ _______ _____ _____    ______ ____
ROOT
ATOM      1  C   UNL     1       1.368   9.917  18.010  0.00  0.00    +0.000 C 
ATOM      2  N   UNL     1       2.167   8.826  18.608  0.00  0.00    +0.000 NA
ATOM      3  C   UNL     1       1.372   8.275  19.716  0.00  0.00    +0.000 C 
ATOM      4  C   UNL     1       2.181   7.381  20.606  0.00  0.00    +0.000 C 
ATOM      5  C   UNL     1       2.151   6.020  19.996  0.00  0.00    +0.000 A 
ATOM      6  C   UNL     1       1.241   5.150  20.633  0.00  0.00    +0.000 A 
ATOM      7  C   UNL     1       1.008   3.883  20.182  0.00  0.00    +0.000 A 
ATOM      8  C   UNL     1       1.707   3.398  19.113  0.00  0.00    +0.000 A 
ATOM      9 CL   UNL     1       1.335   1.739  18.612  0.00  0.00    +0.000 Cl
ATOM     10  C   UNL     1       2.647   4.204  18.440  0.00  0.00    +0.000 A 
ATOM     11  C   UNL     1       2.892   5.631  18.823  0.00  0.00    +0.000 A 
ATOM     12  C   UNL     1       3.796   6.798  18.062  0.00  0.00    +0.000 C 
ATOM     13  C   UNL     1       5.019   6.574  16.905  0.00  0.00    +0.000 C 
ATOM     14  C   UNL     1       5.184   5.235  16.067  0.00  0.00    +0.000 C 
ATOM     15  C   UNL     1       4.243   4.361  16.705  0.00  0.00    +0.000 C 
ATOM     16  C   UNL     1       3.320   3.443  17.306  0.00  0.00    +0.000 C 
ATOM     17  C   UNL     1       2.792   7.930  17.566  0.00  0.00    +0.000 C 
ENDROOT
TORSDOF 0
ENDMDL
MODEL 3
REMARK VINA RESULT:      -6.8      2.604      4.977
REMARK  Name = 
REMARK  1 active torsions:
REMARK  status: ('A' for Active; 'I' for Inactive)
REMARK    1  A    between atoms: C_1  and  N_2
REMARK                            x       y       z     vdW  Elec       q    Type
REMARK                         _______ _______ _______ _____ _____    ______ ____
ROOT
ATOM      1  C   UNL     1       1.162   8.785  21.534  0.00  0.00    +0.000 C 
ATOM      2  N   UNL     1       1.313   7.818  20.425  0.00  0.00    +0.000 NA
ATOM      3  C   UNL     1       2.009   8.523  19.338  0.00  0.00    +0.000 C 
ATOM      4  C   UNL     1       1.952   7.769  18.044  0.00  0.00    +0.000 C 
ATOM      5  C   UNL     1       3.085   6.800  18.054  0.00  0.00    +0.000 A 
ATOM      6  C   UNL     1       4.186   7.232  17.283  0.00  0.00    +0.000 A 
ATOM      7  C   UNL     1       5.352   6.526  17.222  0.00  0.00    +0.000 A 
ATOM      8  C   UNL     1       5.465   5.331  17.874  0.00  0.00    +0.000 A 
ATOM      9 CL   UNL     1       7.017   4.490  17.724  0.00  0.00    +0.000 Cl
ATOM     10  C   UNL     1       4.398   4.828  18.648  0.00  0.00    +0.000 A 
ATOM     11  C   UNL     1       3.121   5.588  18.833  0.00  0.00    +0.000 A 
ATOM     12  C   UNL     1       1.833   5.280  19.834  0.00  0.00    +0.000 C 
ATOM     13  C   UNL     1       1.429   3.809  20.584  0.00  0.00    +0.000 C 
ATOM     14  C   UNL     1       2.466   2.622  20.776  0.00  0.00    +0.000 C 
ATOM     15  C   UNL     1       3.590   3.074  20.008  0.00  0.00    +0.000 C 
ATOM     16  C   UNL     1       4.741   3.474  19.253  0.00  0.00    +0.000 C 
ATOM     17  C   UNL     1       1.766   6.459  20.901  0.00  0.00    +0.000 C 
ENDROOT
TORSDOF 0
ENDMDL
MODEL 4
REMARK VINA RESULT:      -6.3      2.342      4.430
REMARK  Name = 
REMARK  1 active torsions:
REMARK  status: ('A' for Active; 'I' for Inactive)
REMARK    1  A    between atoms: C_1  and  N_2
REMARK                            x       y       z     vdW  Elec       q    Type
REMARK                         _______ _______ _______ _____ _____    ______ ____
ROOT
ATOM      1  C   UNL     1       5.109   1.545  20.829  0.00  0.00    +0.000 C 
ATOM      2  N   UNL     1       4.119   2.236  19.975  0.00  0.00    +0.000 NA
ATOM      3  C   UNL     1       2.993   2.609  20.845  0.00  0.00    +0.000 C 
ATOM      4  C   UNL     1       1.787   3.032  20.062  0.00  0.00    +0.000 C 
ATOM      5  C   UNL     1       1.950   4.484  19.763  0.00  0.00    +0.000 A 
ATOM      6  C   UNL     1       1.185   5.311  20.612  0.00  0.00    +0.000 A 
ATOM      7  C   UNL     1       1.251   6.673  20.553  0.00  0.00    +0.000 A 
ATOM      8  C   UNL     1       2.033   7.281  19.612  0.00  0.00    +0.000 A 
ATOM      9 CL   UNL     1       2.042   9.053  19.614  0.00  0.00    +0.000 Cl
ATOM     10  C   UNL     1       2.810   6.516  18.717  0.00  0.00    +0.000 A 
ATOM     11  C   UNL     1       2.857   5.021  18.780  0.00  0.00    +0.000 A 
ATOM     12  C   UNL     1       3.830   3.950  17.965  0.00  0.00    +0.000 C 
ATOM     13  C   UNL     1       4.716   4.228  16.542  0.00  0.00    +0.000 C 
ATOM     14  C   UNL     1       5.080   5.683  16.019  0.00  0.00    +0.000 C 
ATOM     15  C   UNL     1       4.317   6.520  16.897  0.00  0.00    +0.000 C 
ATOM     16  C   UNL     1       3.573   7.405  17.745  0.00  0.00    +0.000 C 
ATOM     17  C   UNL     1       4.758   3.236  19.042  0.00  0.00    +0.000 C 
ENDROOT
TORSDOF 0
ENDMDL
MODEL 5
REMARK VINA RESULT:      -6.1      7.881     10.529
REMARK  Name = 
REMARK  1 active torsions:
REMARK  status: ('A' for Active; 'I' for Inactive)
REMARK    1  A    between atoms: C_1  and  N_2
REMARK                            x       y       z     vdW  Elec       q    Type
REMARK                         _______ _______ _______ _____ _____    ______ ____
ROOT
ATOM      1  C   UNL     1      -7.406  11.199  20.229  0.00  0.00    +0.000 C 
ATOM      2  N   UNL     1      -6.195  11.845  19.676  0.00  0.00    +0.000 NA
ATOM      3  C   UNL     1      -5.447  12.394  20.817  0.00  0.00    +0.000 C 
ATOM      4  C   UNL     1      -4.369  13.341  20.387  0.00  0.00    +0.000 C 
ATOM      5  C   UNL     1      -3.165  12.518  20.077  0.00  0.00    +0.000 A 
ATOM      6  C   UNL     1      -2.204  12.537  21.111  0.00  0.00    +0.000 A 
ATOM      7  C   UNL     1      -1.063  11.789  21.058  0.00  0.00    +0.000 A 
ATOM      8  C   UNL     1      -0.792  11.031  19.955  0.00  0.00    +0.000 A 
ATOM      9 CL   UNL     1       0.718  10.105  19.983  0.00  0.00    +0.000 Cl
ATOM     10  C   UNL     1      -1.698  10.979  18.875  0.00  0.00    +0.000 A 
ATOM     11  C   UNL     1      -3.009  11.703  18.900  0.00  0.00    +0.000 A 
ATOM     12  C   UNL     1      -4.286  11.630  17.840  0.00  0.00    +0.000 C 
ATOM     13  C   UNL     1      -4.276  11.062  16.239  0.00  0.00    +0.000 C 
ATOM     14  C   UNL     1      -3.135  10.120  15.662  0.00  0.00    +0.000 C 
ATOM     15  C   UNL     1      -2.171  10.126  16.724  0.00  0.00    +0.000 C 
ATOM     16  C   UNL     1      -1.171  10.098  17.751  0.00  0.00    +0.000 C 
ATOM     17  C   UNL     1      -5.519  10.999  18.624  0.00  0.00    +0.000 C 
ENDROOT
TORSDOF 0
ENDMDL
MODEL 6
REMARK VINA RESULT:      -6.1      4.903      7.978
REMARK  Name = 
REMARK  1 active torsions:
REMARK  status: ('A' for Active; 'I' for Inactive)
REMARK    1  A    between atoms: C_1  and  N_2
REMARK                            x       y       z     vdW  Elec       q    Type
REMARK                         _______ _______ _______ _____ _____    ______ ____
ROOT
ATOM      1  C   UNL     1      -3.328  10.622  16.633  0.00  0.00    +0.000 C 
ATOM      2  N   UNL     1      -2.135  11.032  17.405  0.00  0.00    +0.000 NA
ATOM      3  C   UNL     1      -2.611  11.889  18.501  0.00  0.00    +0.000 C 
ATOM      4  C   UNL     1      -1.492  12.627  19.172  0.00  0.00    +0.000 C 
ATOM      5  C   UNL     1      -0.934  11.716  20.214  0.00  0.00    +0.000 A 
ATOM      6  C   UNL     1      -1.379  12.031  21.516  0.00  0.00    +0.000 A 
ATOM      7  C   UNL     1      -1.044  11.274  22.601  0.00  0.00    +0.000 A 
ATOM      8  C   UNL     1      -0.208  10.203  22.458  0.00  0.00    +0.000 A 
ATOM      9 CL   UNL     1       0.170   9.292  23.930  0.00  0.00    +0.000 Cl
ATOM     10  C   UNL     1       0.290   9.842  21.190  0.00  0.00    +0.000 A 
ATOM     11  C   UNL     1      -0.102  10.572  19.942  0.00  0.00    +0.000 A 
ATOM     12  C   UNL     1       0.208  10.207  18.352  0.00  0.00    +0.000 C 
ATOM     13  C   UNL     1       1.404   9.168  17.739  0.00  0.00    +0.000 C 
ATOM     14  C   UNL     1       2.128   8.064  18.622  0.00  0.00    +0.000 C 
ATOM     15  C   UNL     1       1.657   8.374  19.940  0.00  0.00    +0.000 C 
ATOM     16  C   UNL     1       1.222   8.641  21.280  0.00  0.00    +0.000 C 
ATOM     17  C   UNL     1      -1.187   9.884  17.657  0.00  0.00    +0.000 C 
ENDROOT
TORSDOF 0
ENDMDL
MODEL 7
REMARK VINA RESULT:      -5.9      2.707      4.394
REMARK  Name = 
REMARK  1 active torsions:
REMARK  status: ('A' for Active; 'I' for Inactive)
REMARK    1  A    between atoms: C_1  and  N_2
REMARK                            x       y       z     vdW  Elec       q    Type
REMARK                         _______ _______ _______ _____ _____    ______ ____
ROOT
ATOM      1  C   UNL     1       0.727   1.806  19.667  0.00  0.00    +0.000 C 
ATOM      2  N   UNL     1       1.859   2.746  19.817  0.00  0.00    +0.000 NA
ATOM      3  C   UNL     1       2.991   2.171  19.073  0.00  0.00    +0.000 C 
ATOM      4  C   UNL     1       4.286   2.852  19.394  0.00  0.00    +0.000 C 
ATOM      5  C   UNL     1       4.387   4.041  18.499  0.00  0.00    +0.000 A 
ATOM      6  C   UNL     1       5.242   3.829  17.396  0.00  0.00    +0.000 A 
ATOM      7  C   UNL     1       5.412   4.765  16.418  0.00  0.00    +0.000 A 
ATOM      8  C   UNL     1       4.789   5.978  16.514  0.00  0.00    +0.000 A 
ATOM      9 CL   UNL     1       5.084   7.125  15.196  0.00  0.00    +0.000 Cl
ATOM     10  C   UNL     1       3.936   6.266  17.599  0.00  0.00    +0.000 A 
ATOM     11  C   UNL     1       3.633   5.257  18.664  0.00  0.00    +0.000 A 
ATOM     12  C   UNL     1       2.530   5.316  19.904  0.00  0.00    +0.000 C 
ATOM     13  C   UNL     1       1.771   6.690  20.555  0.00  0.00    +0.000 C 
ATOM     14  C   UNL     1       1.686   8.078  19.786  0.00  0.00    +0.000 C 
ATOM     15  C   UNL     1       2.539   7.851  18.656  0.00  0.00    +0.000 C 
ATOM     16  C   UNL     1       3.383   7.681  17.510  0.00  0.00    +0.000 C 
ATOM     17  C   UNL     1       1.444   4.185  19.630  0.00  0.00    +0.000 C 
ENDROOT
TORSDOF 0
ENDMDL
MODEL 8
REMARK VINA RESULT:      -5.7      1.559      1.821
REMARK  Name = 
REMARK  1 active torsions:
REMARK  status: ('A' for Active; 'I' for Inactive)
REMARK    1  A    between atoms: C_1  and  N_2
REMARK                            x       y       z     vdW  Elec       q    Type
REMARK                         _______ _______ _______ _____ _____    ______ ____
ROOT
ATOM      1  C   UNL     1       8.136   6.289  18.602  0.00  0.00    +0.000 C 
ATOM      2  N   UNL     1       6.981   5.988  17.729  0.00  0.00    +0.000 NA
ATOM      3  C   UNL     1       7.020   4.543  17.455  0.00  0.00    +0.000 C 
ATOM      4  C   UNL     1       6.101   4.152  16.338  0.00  0.00    +0.000 C 
ATOM      5  C   UNL     1       4.753   3.936  16.939  0.00  0.00    +0.000 A 
ATOM      6  C   UNL     1       4.446   2.571  17.126  0.00  0.00    +0.000 A 
ATOM      7  C   UNL     1       3.293   2.161  17.731  0.00  0.00    +0.000 A 
ATOM      8  C   UNL     1       2.364   3.080  18.129  0.00  0.00    +0.000 A 
ATOM      9 CL   UNL     1       0.899   2.443  18.896  0.00  0.00    +0.000 Cl
ATOM     10  C   UNL     1       2.596   4.460  17.956  0.00  0.00    +0.000 A 
ATOM     11  C   UNL     1       3.874   4.988  17.381  0.00  0.00    +0.000 A 
ATOM     12  C   UNL     1       4.425   6.550  17.266  0.00  0.00    +0.000 C 
ATOM     13  C   UNL     1       3.517   7.982  17.367  0.00  0.00    +0.000 C 
ATOM     14  C   UNL     1       2.067   8.044  18.013  0.00  0.00    +0.000 C 
ATOM     15  C   UNL     1       1.768   6.657  18.219  0.00  0.00    +0.000 C 
ATOM     16  C   UNL     1       1.414   5.287  18.445  0.00  0.00    +0.000 C 
ATOM     17  C   UNL     1       5.715   6.669  18.190  0.00  0.00    +0.000 C 
ENDROOT
TORSDOF 0
ENDMDL
MODEL 9
REMARK VINA RESULT:      -5.6     10.159     12.379
REMARK  Name = 
REMARK  1 active torsions:
REMARK  status: ('A' for Active; 'I' for Inactive)
REMARK    1  A    between atoms: C_1  and  N_2
REMARK                            x       y       z     vdW  Elec       q    Type
REMARK                         _______ _______ _______ _____ _____    ______ ____
ROOT
ATOM      1  C   UNL     1      10.049  17.610  17.762  0.00  0.00    +0.000 C 
ATOM      2  N   UNL     1      10.691  16.748  18.778  0.00  0.00    +0.000 NA
ATOM      3  C   UNL     1      10.177  17.178  20.087  0.00  0.00    +0.000 C 
ATOM      4  C   UNL     1      10.971  16.609  21.224  0.00  0.00    +0.000 C 
ATOM      5  C   UNL     1      10.405  15.261  21.517  0.00  0.00    +0.000 A 
ATOM      6  C   UNL     1       9.554  15.254  22.644  0.00  0.00    +0.000 A 
ATOM      7  C   UNL     1       8.877  14.136  23.036  0.00  0.00    +0.000 A 
ATOM      8  C   UNL     1       9.053  12.958  22.367  0.00  0.00    +0.000 A 
ATOM      9 CL   UNL     1       8.133  11.565  22.962  0.00  0.00    +0.000 Cl
ATOM     10  C   UNL     1       9.903  12.887  21.245  0.00  0.00    +0.000 A 
ATOM     11  C   UNL     1      10.611  14.090  20.703  0.00  0.00    +0.000 A 
ATOM     12  C   UNL     1      11.492  14.270  19.307  0.00  0.00    +0.000 C 
ATOM     13  C   UNL     1      12.186  13.048  18.353  0.00  0.00    +0.000 C 
ATOM     14  C   UNL     1      11.731  11.528  18.426  0.00  0.00    +0.000 C 
ATOM     15  C   UNL     1      10.852  11.530  19.559  0.00  0.00    +0.000 C 
ATOM     16  C   UNL     1       9.966  11.472  20.684  0.00  0.00    +0.000 C 
ATOM     17  C   UNL     1      10.705  15.293  18.376  0.00  0.00    +0.000 C 
ENDROOT
TORSDOF 0
ENDMDL
