MODEL 1
REMARK VINA RESULT:      -7.2      0.000      0.000
REMARK  Name = 
REMARK  4 active torsions:
REMARK  status: ('A' for Active; 'I' for Inactive)
REMARK    1  A    between atoms: C_1  and  C_2
REMARK    2  A    between atoms: C_2  and  C_3
REMARK    3  A    between atoms: C_5  and  C_6
REMARK    4  A    between atoms: C_6  and  C_7
REMARK                            x       y       z     vdW  Elec       q    Type
REMARK                         _______ _______ _______ _____ _____    ______ ____
ROOT
ATOM      1  C   UNL     1       4.849   4.587  16.647  0.00  0.00    +0.000 A 
ATOM      2  N   UNL     1       3.916   5.307  17.226  0.00  0.00    +0.000 NA
ATOM      3  C   UNL     1       3.046   4.349  17.682  0.00  0.00    +0.000 A 
ATOM      4  N   UNL     1       3.398   3.090  17.389  0.00  0.00    +0.000 NA
ATOM      5  O   UNL     1       4.611   3.246  16.712  0.00  0.00    +0.000 OA
ENDROOT
BRANCH   1   7
ATOM      6  C   UNL     1       6.057   4.543  14.501  0.00  0.00    +0.000 C 
ATOM      7  C   UNL     1       6.093   5.065  15.950  0.00  0.00    +0.000 C 
ATOM      8  C   UNL     1       6.213   6.607  15.930  0.00  0.00    +0.000 C 
ATOM      9  C   UNL     1       6.414   7.229  17.308  0.00  0.00    +0.000 C 
ATOM     10  C   UNL     1       7.535   6.548  18.060  0.00  0.00    +0.000 C 
ATOM     11  O   UNL     1       8.347   7.191  18.723  0.00  0.00    +0.000 OA
ATOM     12  C   UNL     1       7.522   5.038  18.080  0.00  0.00    +0.000 C 
ATOM     13  C   UNL     1       7.344   4.490  16.665  0.00  0.00    +0.000 C 
ENDBRANCH   1   7
BRANCH   3  14
ATOM     14  C   UNL     1       1.826   4.702  18.456  0.00  0.00    +0.000 C 
BRANCH  14  15
ATOM     15  C   UNL     1       1.796   4.019  19.787  0.00  0.00    +0.000 A 
ATOM     16  C   UNL     1       2.368   4.412  20.982  0.00  0.00    +0.000 A 
ATOM     17  N   UNL     1       2.186   3.553  22.048  0.00  0.00    +0.000 NA
ATOM     18  C   UNL     1       1.479   2.519  21.651  0.00  0.00    +0.000 A 
ATOM     19  S   UNL     1       0.980   2.526  20.011  0.00  0.00    +0.000 S 
ENDBRANCH  14  15
ENDBRANCH   3  14
TORSDOF 3
ENDMDL
MODEL 2
REMARK VINA RESULT:      -7.2      1.080      1.235
REMARK  Name = 
REMARK  4 active torsions:
REMARK  status: ('A' for Active; 'I' for Inactive)
REMARK    1  A    between atoms: C_1  and  C_2
REMARK    2  A    between atoms: C_2  and  C_3
REMARK    3  A    between atoms: C_5  and  C_6
REMARK    4  A    between atoms: C_6  and  C_7
REMARK                            x       y       z     vdW  Elec       q    Type
REMARK                         _______ _______ _______ _____ _____    ______ ____
ROOT
ATOM      1  C   UNL     1       4.884   4.573  16.660  0.00  0.00    +0.000 A 
ATOM      2  N   UNL     1       4.601   3.351  17.052  0.00  0.00    +0.000 NA
ATOM      3  C   UNL     1       3.362   3.504  17.620  0.00  0.00    +0.000 A 
ATOM      4  N   UNL     1       2.893   4.759  17.607  0.00  0.00    +0.000 NA
ATOM      5  O   UNL     1       3.901   5.472  16.952  0.00  0.00    +0.000 OA
ENDROOT
BRANCH   1   7
ATOM      6  C   UNL     1       6.086   4.530  14.512  0.00  0.00    +0.000 C 
ATOM      7  C   UNL     1       6.121   5.061  15.958  0.00  0.00    +0.000 C 
ATOM      8  C   UNL     1       6.224   6.604  15.929  0.00  0.00    +0.000 C 
ATOM      9  C   UNL     1       6.423   7.236  17.304  0.00  0.00    +0.000 C 
ATOM     10  C   UNL     1       7.553   6.570  18.056  0.00  0.00    +0.000 C 
ATOM     11  O   UNL     1       8.359   7.225  18.713  0.00  0.00    +0.000 OA
ATOM     12  C   UNL     1       7.555   5.061  18.084  0.00  0.00    +0.000 C 
ATOM     13  C   UNL     1       7.380   4.502  16.673  0.00  0.00    +0.000 C 
ENDBRANCH   1   7
BRANCH   3  14
ATOM     14  C   UNL     1       2.608   2.351  18.179  0.00  0.00    +0.000 C 
BRANCH  14  15
ATOM     15  C   UNL     1       2.332   2.523  19.640  0.00  0.00    +0.000 A 
ATOM     16  C   UNL     1       3.193   2.383  20.713  0.00  0.00    +0.000 A 
ATOM     17  N   UNL     1       2.637   2.587  21.960  0.00  0.00    +0.000 NA
ATOM     18  C   UNL     1       1.364   2.879  21.822  0.00  0.00    +0.000 A 
ATOM     19  S   UNL     1       0.772   2.948  20.215  0.00  0.00    +0.000 S 
ENDBRANCH  14  15
ENDBRANCH   3  14
TORSDOF 3
ENDMDL
MODEL 3
REMARK VINA RESULT:      -7.0      3.649      5.613
REMARK  Name = 
REMARK  4 active torsions:
REMARK  status: ('A' for Active; 'I' for Inactive)
REMARK    1  A    between atoms: C_1  and  C_2
REMARK    2  A    between atoms: C_2  and  C_3
REMARK    3  A    between atoms: C_5  and  C_6
REMARK    4  A    between atoms: C_6  and  C_7
REMARK                            x       y       z     vdW  Elec       q    Type
REMARK                         _______ _______ _______ _____ _____    ______ ____
ROOT
ATOM      1  C   UNL     1       2.977   4.412  18.373  0.00  0.00    +0.000 A 
ATOM      2  N   UNL     1       2.229   5.454  18.090  0.00  0.00    +0.000 NA
ATOM      3  C   UNL     1       3.142   6.477  18.082  0.00  0.00    +0.000 A 
ATOM      4  N   UNL     1       4.399   6.108  18.363  0.00  0.00    +0.000 NA
ATOM      5  O   UNL     1       4.294   4.725  18.542  0.00  0.00    +0.000 OA
ENDROOT
BRANCH   1   7
ATOM      6  C   UNL     1       2.734   2.284  17.159  0.00  0.00    +0.000 C 
ATOM      7  C   UNL     1       2.553   2.977  18.523  0.00  0.00    +0.000 C 
ATOM      8  C   UNL     1       3.376   2.218  19.590  0.00  0.00    +0.000 C 
ATOM      9  C   UNL     1       3.153   2.720  21.014  0.00  0.00    +0.000 C 
ATOM     10  C   UNL     1       1.679   2.810  21.340  0.00  0.00    +0.000 C 
ATOM     11  O   UNL     1       1.242   2.457  22.434  0.00  0.00    +0.000 OA
ATOM     12  C   UNL     1       0.797   3.488  20.321  0.00  0.00    +0.000 C 
ATOM     13  C   UNL     1       1.056   2.916  18.928  0.00  0.00    +0.000 C 
ENDBRANCH   1   7
BRANCH   3  14
ATOM     14  C   UNL     1       2.750   7.876  17.761  0.00  0.00    +0.000 C 
BRANCH  14  15
ATOM     15  C   UNL     1       1.916   8.481  18.846  0.00  0.00    +0.000 A 
ATOM     16  C   UNL     1       1.788   8.094  20.167  0.00  0.00    +0.000 A 
ATOM     17  N   UNL     1       0.915   8.842  20.932  0.00  0.00    +0.000 NA
ATOM     18  C   UNL     1       0.392   9.789  20.186  0.00  0.00    +0.000 A 
ATOM     19  S   UNL     1       0.923   9.850  18.557  0.00  0.00    +0.000 S 
ENDBRANCH  14  15
ENDBRANCH   3  14
TORSDOF 3
ENDMDL
MODEL 4
REMARK VINA RESULT:      -6.9      4.670      6.518
REMARK  Name = 
REMARK  4 active torsions:
REMARK  status: ('A' for Active; 'I' for Inactive)
REMARK    1  A    between atoms: C_1  and  C_2
REMARK    2  A    between atoms: C_2  and  C_3
REMARK    3  A    between atoms: C_5  and  C_6
REMARK    4  A    between atoms: C_6  and  C_7
REMARK                            x       y       z     vdW  Elec       q    Type
REMARK                         _______ _______ _______ _____ _____    ______ ____
ROOT
ATOM      1  C   UNL     1       2.746   6.385  19.118  0.00  0.00    +0.000 A 
ATOM      2  N   UNL     1       2.710   7.241  18.123  0.00  0.00    +0.000 NA
ATOM      3  C   UNL     1       2.055   8.310  18.679  0.00  0.00    +0.000 A 
ATOM      4  N   UNL     1       1.678   8.134  19.952  0.00  0.00    +0.000 NA
ATOM      5  O   UNL     1       2.153   6.854  20.253  0.00  0.00    +0.000 OA
ENDROOT
BRANCH   1   7
ATOM      6  C   UNL     1       4.867   5.150  19.311  0.00  0.00    +0.000 C 
ATOM      7  C   UNL     1       3.344   5.005  19.135  0.00  0.00    +0.000 C 
ATOM      8  C   UNL     1       2.784   4.124  20.277  0.00  0.00    +0.000 C 
ATOM      9  C   UNL     1       1.305   3.780  20.123  0.00  0.00    +0.000 C 
ATOM     10  C   UNL     1       1.008   3.239  18.743  0.00  0.00    +0.000 C 
ATOM     11  O   UNL     1       0.247   2.287  18.576  0.00  0.00    +0.000 OA
ATOM     12  C   UNL     1       1.568   4.012  17.573  0.00  0.00    +0.000 C 
ATOM     13  C   UNL     1       3.054   4.295  17.786  0.00  0.00    +0.000 C 
ENDBRANCH   1   7
BRANCH   3  14
ATOM     14  C   UNL     1       1.813   9.565  17.917  0.00  0.00    +0.000 C 
BRANCH  14  15
ATOM     15  C   UNL     1       0.650  10.331  18.463  0.00  0.00    +0.000 A 
ATOM     16  C   UNL     1      -0.699  10.171  18.205  0.00  0.00    +0.000 A 
ATOM     17  N   UNL     1      -1.544  11.053  18.848  0.00  0.00    +0.000 NA
ATOM     18  C   UNL     1      -0.830  11.872  19.587  0.00  0.00    +0.000 A 
ATOM     19  S   UNL     1       0.866  11.623  19.571  0.00  0.00    +0.000 S 
ENDBRANCH  14  15
ENDBRANCH   3  14
TORSDOF 3
ENDMDL
MODEL 5
REMARK VINA RESULT:      -6.8      2.698      6.318
REMARK  Name = 
REMARK  4 active torsions:
REMARK  status: ('A' for Active; 'I' for Inactive)
REMARK    1  A    between atoms: C_1  and  C_2
REMARK    2  A    between atoms: C_2  and  C_3
REMARK    3  A    between atoms: C_5  and  C_6
REMARK    4  A    between atoms: C_6  and  C_7
REMARK                            x       y       z     vdW  Elec       q    Type
REMARK                         _______ _______ _______ _____ _____    ______ ____
ROOT
ATOM      1  C   UNL     1       3.931   5.137  19.007  0.00  0.00    +0.000 A 
ATOM      2  N   UNL     1       4.771   5.660  18.143  0.00  0.00    +0.000 NA
ATOM      3  C   UNL     1       5.915   4.941  18.373  0.00  0.00    +0.000 A 
ATOM      4  N   UNL     1       5.814   4.024  19.344  0.00  0.00    +0.000 NA
ATOM      5  O   UNL     1       4.483   4.142  19.758  0.00  0.00    +0.000 OA
ENDROOT
BRANCH   1   7
ATOM      6  C   UNL     1       2.436   7.001  19.601  0.00  0.00    +0.000 C 
ATOM      7  C   UNL     1       2.492   5.503  19.243  0.00  0.00    +0.000 C 
ATOM      8  C   UNL     1       1.597   5.245  18.007  0.00  0.00    +0.000 C 
ATOM      9  C   UNL     1       1.449   3.769  17.650  0.00  0.00    +0.000 C 
ATOM     10  C   UNL     1       1.059   2.949  18.858  0.00  0.00    +0.000 C 
ATOM     11  O   UNL     1       0.222   2.050  18.781  0.00  0.00    +0.000 OA
ATOM     12  C   UNL     1       1.849   3.182  20.123  0.00  0.00    +0.000 C 
ATOM     13  C   UNL     1       1.931   4.676  20.430  0.00  0.00    +0.000 C 
ENDBRANCH   1   7
BRANCH   3  14
ATOM     14  C   UNL     1       7.154   5.164  17.581  0.00  0.00    +0.000 C 
BRANCH  14  15
ATOM     15  C   UNL     1       6.944   4.871  16.128  0.00  0.00    +0.000 A 
ATOM     16  C   UNL     1       7.524   5.470  15.025  0.00  0.00    +0.000 A 
ATOM     17  N   UNL     1       7.110   4.995  13.796  0.00  0.00    +0.000 NA
ATOM     18  C   UNL     1       6.224   4.043  13.978  0.00  0.00    +0.000 A 
ATOM     19  S   UNL     1       5.856   3.652  15.607  0.00  0.00    +0.000 S 
ENDBRANCH  14  15
ENDBRANCH   3  14
TORSDOF 3
ENDMDL
MODEL 6
REMARK VINA RESULT:      -6.7      1.643      2.073
REMARK  Name = 
REMARK  4 active torsions:
REMARK  status: ('A' for Active; 'I' for Inactive)
REMARK    1  A    between atoms: C_1  and  C_2
REMARK    2  A    between atoms: C_2  and  C_3
REMARK    3  A    between atoms: C_5  and  C_6
REMARK    4  A    between atoms: C_6  and  C_7
REMARK                            x       y       z     vdW  Elec       q    Type
REMARK                         _______ _______ _______ _____ _____    ______ ____
ROOT
ATOM      1  C   UNL     1       4.158   5.914  17.077  0.00  0.00    +0.000 A 
ATOM      2  N   UNL     1       3.521   4.769  17.173  0.00  0.00    +0.000 NA
ATOM      3  C   UNL     1       2.508   5.069  18.047  0.00  0.00    +0.000 A 
ATOM      4  N   UNL     1       2.514   6.330  18.497  0.00  0.00    +0.000 NA
ATOM      5  O   UNL     1       3.606   6.901  17.838  0.00  0.00    +0.000 OA
ENDROOT
BRANCH   1   7
ATOM      6  C   UNL     1       4.951   7.195  15.130  0.00  0.00    +0.000 C 
ATOM      7  C   UNL     1       5.377   6.233  16.255  0.00  0.00    +0.000 C 
ATOM      8  C   UNL     1       6.503   6.892  17.085  0.00  0.00    +0.000 C 
ATOM      9  C   UNL     1       7.116   5.971  18.136  0.00  0.00    +0.000 C 
ATOM     10  C   UNL     1       7.508   4.639  17.537  0.00  0.00    +0.000 C 
ATOM     11  O   UNL     1       8.562   4.084  17.842  0.00  0.00    +0.000 OA
ATOM     12  C   UNL     1       6.482   3.956  16.666  0.00  0.00    +0.000 C 
ATOM     13  C   UNL     1       5.936   4.930  15.624  0.00  0.00    +0.000 C 
ENDBRANCH   1   7
BRANCH   3  14
ATOM     14  C   UNL     1       1.483   4.063  18.434  0.00  0.00    +0.000 C 
BRANCH  14  15
ATOM     15  C   UNL     1       1.809   3.411  19.740  0.00  0.00    +0.000 A 
ATOM     16  C   UNL     1       1.013   3.255  20.860  0.00  0.00    +0.000 A 
ATOM     17  N   UNL     1       1.605   2.624  21.936  0.00  0.00    +0.000 NA
ATOM     18  C   UNL     1       2.842   2.308  21.623  0.00  0.00    +0.000 A 
ATOM     19  S   UNL     1       3.352   2.722  20.039  0.00  0.00    +0.000 S 
ENDBRANCH  14  15
ENDBRANCH   3  14
TORSDOF 3
ENDMDL
MODEL 7
REMARK VINA RESULT:      -6.7      2.831      5.908
REMARK  Name = 
REMARK  4 active torsions:
REMARK  status: ('A' for Active; 'I' for Inactive)
REMARK    1  A    between atoms: C_1  and  C_2
REMARK    2  A    between atoms: C_2  and  C_3
REMARK    3  A    between atoms: C_5  and  C_6
REMARK    4  A    between atoms: C_6  and  C_7
REMARK                            x       y       z     vdW  Elec       q    Type
REMARK                         _______ _______ _______ _____ _____    ______ ____
ROOT
ATOM      1  C   UNL     1       2.554   5.160  18.952  0.00  0.00    +0.000 A 
ATOM      2  N   UNL     1       3.434   5.189  17.977  0.00  0.00    +0.000 NA
ATOM      3  C   UNL     1       3.640   6.534  17.808  0.00  0.00    +0.000 A 
ATOM      4  N   UNL     1       2.915   7.317  18.617  0.00  0.00    +0.000 NA
ATOM      5  O   UNL     1       2.200   6.400  19.394  0.00  0.00    +0.000 OA
ENDROOT
BRANCH   1   7
ATOM      6  C   UNL     1       0.759   4.448  20.480  0.00  0.00    +0.000 C 
ATOM      7  C   UNL     1       1.924   3.957  19.600  0.00  0.00    +0.000 C 
ATOM      8  C   UNL     1       1.386   2.936  18.570  0.00  0.00    +0.000 C 
ATOM      9  C   UNL     1       2.475   2.262  17.741  0.00  0.00    +0.000 C 
ATOM     10  C   UNL     1       3.572   1.708  18.623  0.00  0.00    +0.000 C 
ATOM     11  O   UNL     1       4.081   0.611  18.401  0.00  0.00    +0.000 OA
ATOM     12  C   UNL     1       4.114   2.626  19.692  0.00  0.00    +0.000 C 
ATOM     13  C   UNL     1       2.969   3.241  20.495  0.00  0.00    +0.000 C 
ENDBRANCH   1   7
BRANCH   3  14
ATOM     14  C   UNL     1       4.612   7.059  16.812  0.00  0.00    +0.000 C 
BRANCH  14  15
ATOM     15  C   UNL     1       5.669   6.052  16.483  0.00  0.00    +0.000 A 
ATOM     16  C   UNL     1       6.809   5.721  17.191  0.00  0.00    +0.000 A 
ATOM     17  N   UNL     1       7.615   4.757  16.618  0.00  0.00    +0.000 NA
ATOM     18  C   UNL     1       7.078   4.366  15.484  0.00  0.00    +0.000 A 
ATOM     19  S   UNL     1       5.591   5.103  15.056  0.00  0.00    +0.000 S 
ENDBRANCH  14  15
ENDBRANCH   3  14
TORSDOF 3
ENDMDL
MODEL 8
REMARK VINA RESULT:      -6.7      1.088      1.316
REMARK  Name = 
REMARK  4 active torsions:
REMARK  status: ('A' for Active; 'I' for Inactive)
REMARK    1  A    between atoms: C_1  and  C_2
REMARK    2  A    between atoms: C_2  and  C_3
REMARK    3  A    between atoms: C_5  and  C_6
REMARK    4  A    between atoms: C_6  and  C_7
REMARK                            x       y       z     vdW  Elec       q    Type
REMARK                         _______ _______ _______ _____ _____    ______ ____
ROOT
ATOM      1  C   UNL     1       4.907   5.314  17.178  0.00  0.00    +0.000 A 
ATOM      2  N   UNL     1       4.040   4.388  17.519  0.00  0.00    +0.000 NA
ATOM      3  C   UNL     1       2.936   5.129  17.856  0.00  0.00    +0.000 A 
ATOM      4  N   UNL     1       3.100   6.454  17.754  0.00  0.00    +0.000 NA
ATOM      5  O   UNL     1       4.411   6.580  17.286  0.00  0.00    +0.000 OA
ENDROOT
BRANCH   1   7
ATOM      6  C   UNL     1       6.317   4.075  15.586  0.00  0.00    +0.000 C 
ATOM      7  C   UNL     1       6.323   5.132  16.706  0.00  0.00    +0.000 C 
ATOM      8  C   UNL     1       6.946   6.441  16.163  0.00  0.00    +0.000 C 
ATOM      9  C   UNL     1       7.148   7.515  17.227  0.00  0.00    +0.000 C 
ATOM     10  C   UNL     1       7.866   6.962  18.437  0.00  0.00    +0.000 C 
ATOM     11  O   UNL     1       8.745   7.603  19.011  0.00  0.00    +0.000 OA
ATOM     12  C   UNL     1       7.354   5.656  18.995  0.00  0.00    +0.000 C 
ATOM     13  C   UNL     1       7.203   4.624  17.878  0.00  0.00    +0.000 C 
ENDBRANCH   1   7
BRANCH   3  14
ATOM     14  C   UNL     1       1.661   4.489  18.278  0.00  0.00    +0.000 C 
BRANCH  14  15
ATOM     15  C   UNL     1       1.765   3.893  19.646  0.00  0.00    +0.000 A 
ATOM     16  C   UNL     1       2.191   4.479  20.824  0.00  0.00    +0.000 A 
ATOM     17  N   UNL     1       2.198   3.661  21.936  0.00  0.00    +0.000 NA
ATOM     18  C   UNL     1       1.779   2.464  21.593  0.00  0.00    +0.000 A 
ATOM     19  S   UNL     1       1.337   2.259  19.949  0.00  0.00    +0.000 S 
ENDBRANCH  14  15
ENDBRANCH   3  14
TORSDOF 3
ENDMDL
MODEL 9
REMARK VINA RESULT:      -6.6      4.726      6.634
REMARK  Name = 
REMARK  4 active torsions:
REMARK  status: ('A' for Active; 'I' for Inactive)
REMARK    1  A    between atoms: C_1  and  C_2
REMARK    2  A    between atoms: C_2  and  C_3
REMARK    3  A    between atoms: C_5  and  C_6
REMARK    4  A    between atoms: C_6  and  C_7
REMARK                            x       y       z     vdW  Elec       q    Type
REMARK                         _______ _______ _______ _____ _____    ______ ____
ROOT
ATOM      1  C   UNL     1       2.627   6.490  19.317  0.00  0.00    +0.000 A 
ATOM      2  N   UNL     1       2.005   7.018  20.346  0.00  0.00    +0.000 NA
ATOM      3  C   UNL     1       1.618   8.240  19.860  0.00  0.00    +0.000 A 
ATOM      4  N   UNL     1       1.992   8.483  18.597  0.00  0.00    +0.000 NA
ATOM      5  O   UNL     1       2.652   7.308  18.226  0.00  0.00    +0.000 OA
ENDROOT
BRANCH   1   7
ATOM      6  C   UNL     1       4.809   5.349  19.304  0.00  0.00    +0.000 C 
ATOM      7  C   UNL     1       3.285   5.141  19.221  0.00  0.00    +0.000 C 
ATOM      8  C   UNL     1       2.843   4.178  20.348  0.00  0.00    +0.000 C 
ATOM      9  C   UNL     1       1.374   3.772  20.273  0.00  0.00    +0.000 C 
ATOM     10  C   UNL     1       1.008   3.288  18.888  0.00  0.00    +0.000 C 
ATOM     11  O   UNL     1       0.281   2.310  18.722  0.00  0.00    +0.000 OA
ATOM     12  C   UNL     1       1.453   4.145  17.728  0.00  0.00    +0.000 C 
ATOM     13  C   UNL     1       2.936   4.487  17.858  0.00  0.00    +0.000 C 
ENDBRANCH   1   7
BRANCH   3  14
ATOM     14  C   UNL     1       0.827   9.196  20.681  0.00  0.00    +0.000 C 
BRANCH  14  15
ATOM     15  C   UNL     1       0.247  10.295  19.848  0.00  0.00    +0.000 A 
ATOM     16  C   UNL     1      -0.914  10.301  19.096  0.00  0.00    +0.000 A 
ATOM     17  N   UNL     1      -1.180  11.468  18.409  0.00  0.00    +0.000 NA
ATOM     18  C   UNL     1      -0.221  12.335  18.644  0.00  0.00    +0.000 A 
ATOM     19  S   UNL     1       1.024  11.819  19.704  0.00  0.00    +0.000 S 
ENDBRANCH  14  15
ENDBRANCH   3  14
TORSDOF 3
ENDMDL
