MODEL 1
REMARK VINA RESULT:      -8.0      0.000      0.000
REMARK  Name = 
REMARK  5 active torsions:
REMARK  status: ('A' for Active; 'I' for Inactive)
REMARK    1  A    between atoms: C_1  and  C_2
REMARK    2  A    between atoms: C_8  and  C_9
REMARK    3  A    between atoms: C_12  and  C_13
REMARK    4  A    between atoms: C_20  and  C_21
REMARK    5  A    between atoms: N_26  and  C_27
REMARK                            x       y       z     vdW  Elec       q    Type
REMARK                         _______ _______ _______ _____ _____    ______ ____
ROOT
ATOM      1  C   UNL     1       4.679   4.536  18.663  0.00  0.00    +0.000 A 
ATOM      2  C   UNL     1       4.878   3.248  19.211  0.00  0.00    +0.000 A 
ATOM      3  C   UNL     1       3.969   2.621  20.052  0.00  0.00    +0.000 A 
ATOM      4  C   UNL     1       2.840   3.297  20.498  0.00  0.00    +0.000 A 
ATOM      5  C   UNL     1       2.674   4.627  20.077  0.00  0.00    +0.000 A 
ATOM      6  N   UNL     1       1.738   5.554  20.488  0.00  0.00    +0.000 N 
ATOM      7  C   UNL     1       1.898   6.745  19.821  0.00  0.00    +0.000 A 
ATOM      8  C   UNL     1       1.196   7.961  19.960  0.00  0.00    +0.000 A 
ATOM      9  C   UNL     1       1.602   9.041  19.152  0.00  0.00    +0.000 A 
ATOM     10  C   UNL     1       2.661   8.893  18.269  0.00  0.00    +0.000 A 
ATOM     11  C   UNL     1       3.230   7.641  18.056  0.00  0.00    +0.000 A 
ATOM     12  C   UNL     1       2.926   6.560  18.909  0.00  0.00    +0.000 A 
ATOM     13  C   UNL     1       3.512   5.248  19.130  0.00  0.00    +0.000 A 
ATOM     14  H   UNL     1       1.058   5.372  21.221  0.00  0.00    +0.000 HD
ENDROOT
BRANCH   9  15
ATOM     15  C   UNL     1       0.921  10.349  19.267  0.00  0.00    +0.000 C 
ATOM     16  O   UNL     1       1.375  11.168  20.063  0.00  0.00    +0.000 OA
ATOM     17  N   UNL     1      -0.190  10.614  18.442  0.00  0.00    +0.000 N 
ATOM     18  C   UNL     1      -0.775  11.948  18.581  0.00  0.00    +0.000 C 
ATOM     19  C   UNL     1      -1.709  12.318  17.408  0.00  0.00    +0.000 C 
ATOM     20  N   UNL     1      -2.720  11.295  17.064  0.00  0.00    +0.000 NA
ATOM     21  C   UNL     1      -3.755  11.191  18.092  0.00  0.00    +0.000 C 
ATOM     22  C   UNL     1      -2.039  10.005  16.861  0.00  0.00    +0.000 C 
ATOM     23  C   UNL     1      -1.144   9.569  18.036  0.00  0.00    +0.000 C 
ENDBRANCH   9  15
BRANCH   1  31
ATOM     24  C   UNL     1       5.054   3.586  15.746  0.00  0.00    +0.000 C 
ATOM     25  C   UNL     1       5.821   4.747  16.337  0.00  0.00    +0.000 A 
ATOM     26  C   UNL     1       6.740   5.449  15.513  0.00  0.00    +0.000 A 
ATOM     27 CL   UNL     1       7.060   5.002  13.869  0.00  0.00    +0.000 Cl
ATOM     28  C   UNL     1       7.454   6.545  15.991  0.00  0.00    +0.000 A 
ATOM     29  C   UNL     1       7.366   6.885  17.327  0.00  0.00    +0.000 A 
ATOM     30  C   UNL     1       6.560   6.126  18.176  0.00  0.00    +0.000 A 
ATOM     31  C   UNL     1       5.678   5.127  17.709  0.00  0.00    +0.000 A 
ENDBRANCH   1  31
BRANCH   4  32
ATOM     32  C   UNL     1       1.908   2.658  21.452  0.00  0.00    +0.000 C 
ATOM     33  N   UNL     1       0.574   2.676  21.125  0.00  0.00    +0.000 N 
ATOM     34  O   UNL     1       2.304   2.160  22.500  0.00  0.00    +0.000 OA
ATOM     35  H   UNL     1       0.193   3.243  20.374  0.00  0.00    +0.000 HD
ATOM     36  H   UNL     1      -0.076   2.240  21.762  0.00  0.00    +0.000 HD
ENDBRANCH   4  32
TORSDOF 3
ENDMDL
MODEL 2
REMARK VINA RESULT:      -7.7      7.902     10.305
REMARK  Name = 
REMARK  5 active torsions:
REMARK  status: ('A' for Active; 'I' for Inactive)
REMARK    1  A    between atoms: C_1  and  C_2
REMARK    2  A    between atoms: C_8  and  C_9
REMARK    3  A    between atoms: C_12  and  C_13
REMARK    4  A    between atoms: C_20  and  C_21
REMARK    5  A    between atoms: N_26  and  C_27
REMARK                            x       y       z     vdW  Elec       q    Type
REMARK                         _______ _______ _______ _____ _____    ______ ____
ROOT
ATOM      1  C   UNL     1       9.576  14.307  20.995  0.00  0.00    +0.000 A 
ATOM      2  C   UNL     1      10.906  14.007  20.622  0.00  0.00    +0.000 A 
ATOM      3  C   UNL     1      11.369  14.059  19.315  0.00  0.00    +0.000 A 
ATOM      4  C   UNL     1      10.491  14.304  18.266  0.00  0.00    +0.000 A 
ATOM      5  C   UNL     1       9.134  14.478  18.586  0.00  0.00    +0.000 A 
ATOM      6  N   UNL     1       8.051  14.582  17.736  0.00  0.00    +0.000 N 
ATOM      7  C   UNL     1       6.886  14.764  18.442  0.00  0.00    +0.000 A 
ATOM      8  C   UNL     1       5.557  14.873  17.981  0.00  0.00    +0.000 A 
ATOM      9  C   UNL     1       4.545  15.027  18.950  0.00  0.00    +0.000 A 
ATOM     10  C   UNL     1       4.868  15.059  20.298  0.00  0.00    +0.000 A 
ATOM     11  C   UNL     1       6.199  15.096  20.703  0.00  0.00    +0.000 A 
ATOM     12  C   UNL     1       7.237  14.843  19.782  0.00  0.00    +0.000 A 
ATOM     13  C   UNL     1       8.656  14.553  19.909  0.00  0.00    +0.000 A 
ATOM     14  H   UNL     1       8.125  14.488  16.727  0.00  0.00    +0.000 HD
ENDROOT
BRANCH   9  15
ATOM     15  C   UNL     1       3.130  15.124  18.532  0.00  0.00    +0.000 C 
ATOM     16  O   UNL     1       2.803  16.066  17.815  0.00  0.00    +0.000 OA
ATOM     17  N   UNL     1       2.228  14.121  18.940  0.00  0.00    +0.000 N 
ATOM     18  C   UNL     1       0.860  14.261  18.444  0.00  0.00    +0.000 C 
ATOM     19  C   UNL     1       0.033  12.964  18.585  0.00  0.00    +0.000 C 
ATOM     20  N   UNL     1       0.083  12.332  19.920  0.00  0.00    +0.000 NA
ATOM     21  C   UNL     1      -0.643  13.117  20.918  0.00  0.00    +0.000 C 
ATOM     22  C   UNL     1       1.492  12.151  20.308  0.00  0.00    +0.000 C 
ATOM     23  C   UNL     1       2.339  13.436  20.239  0.00  0.00    +0.000 C 
ENDBRANCH   9  15
BRANCH   1  31
ATOM     24  C   UNL     1       8.251  11.885  22.386  0.00  0.00    +0.000 C 
ATOM     25  C   UNL     1       8.608  13.159  23.118  0.00  0.00    +0.000 A 
ATOM     26  C   UNL     1       8.345  13.244  24.511  0.00  0.00    +0.000 A 
ATOM     27 CL   UNL     1       7.584  11.967  25.403  0.00  0.00    +0.000 Cl
ATOM     28  C   UNL     1       8.678  14.380  25.245  0.00  0.00    +0.000 A 
ATOM     29  C   UNL     1       9.159  15.497  24.592  0.00  0.00    +0.000 A 
ATOM     30  C   UNL     1       9.306  15.469  23.204  0.00  0.00    +0.000 A 
ATOM     31  C   UNL     1       9.161  14.292  22.439  0.00  0.00    +0.000 A 
ENDBRANCH   1  31
BRANCH   4  32
ATOM     32  C   UNL     1      10.967  14.286  16.866  0.00  0.00    +0.000 C 
ATOM     33  N   UNL     1      10.998  15.490  16.205  0.00  0.00    +0.000 N 
ATOM     34  O   UNL     1      11.293  13.242  16.312  0.00  0.00    +0.000 OA
ATOM     35  H   UNL     1      10.557  16.332  16.561  0.00  0.00    +0.000 HD
ATOM     36  H   UNL     1      11.325  15.498  15.250  0.00  0.00    +0.000 HD
ENDBRANCH   4  32
TORSDOF 3
ENDMDL
MODEL 3
REMARK VINA RESULT:      -7.5      7.988     10.452
REMARK  Name = 
REMARK  5 active torsions:
REMARK  status: ('A' for Active; 'I' for Inactive)
REMARK    1  A    between atoms: C_1  and  C_2
REMARK    2  A    between atoms: C_8  and  C_9
REMARK    3  A    between atoms: C_12  and  C_13
REMARK    4  A    between atoms: C_20  and  C_21
REMARK    5  A    between atoms: N_26  and  C_27
REMARK                            x       y       z     vdW  Elec       q    Type
REMARK                         _______ _______ _______ _____ _____    ______ ____
ROOT
ATOM      1  C   UNL     1       9.493  13.947  20.910  0.00  0.00    +0.000 A 
ATOM      2  C   UNL     1      10.811  13.722  20.451  0.00  0.00    +0.000 A 
ATOM      3  C   UNL     1      11.261  14.090  19.191  0.00  0.00    +0.000 A 
ATOM      4  C   UNL     1      10.377  14.608  18.252  0.00  0.00    +0.000 A 
ATOM      5  C   UNL     1       9.029  14.727  18.629  0.00  0.00    +0.000 A 
ATOM      6  N   UNL     1       7.939  15.064  17.851  0.00  0.00    +0.000 N 
ATOM      7  C   UNL     1       6.788  15.087  18.600  0.00  0.00    +0.000 A 
ATOM      8  C   UNL     1       5.456  15.337  18.204  0.00  0.00    +0.000 A 
ATOM      9  C   UNL     1       4.460  15.266  19.198  0.00  0.00    +0.000 A 
ATOM     10  C   UNL     1       4.799  14.951  20.505  0.00  0.00    +0.000 A 
ATOM     11  C   UNL     1       6.135  14.857  20.884  0.00  0.00    +0.000 A 
ATOM     12  C   UNL     1       7.155  14.821  19.911  0.00  0.00    +0.000 A 
ATOM     13  C   UNL     1       8.568  14.478  19.936  0.00  0.00    +0.000 A 
ATOM     14  H   UNL     1       7.999  15.224  16.849  0.00  0.00    +0.000 HD
ENDROOT
BRANCH   9  15
ATOM     15  C   UNL     1       3.042  15.495  18.842  0.00  0.00    +0.000 C 
ATOM     16  O   UNL     1       2.729  16.597  18.401  0.00  0.00    +0.000 OA
ATOM     17  N   UNL     1       2.123  14.437  18.990  0.00  0.00    +0.000 N 
ATOM     18  C   UNL     1       0.753  14.728  18.569  0.00  0.00    +0.000 C 
ATOM     19  C   UNL     1      -0.101  13.455  18.381  0.00  0.00    +0.000 C 
ATOM     20  N   UNL     1      -0.051  12.496  19.504  0.00  0.00    +0.000 NA
ATOM     21  C   UNL     1      -0.749  13.007  20.683  0.00  0.00    +0.000 C 
ATOM     22  C   UNL     1       1.357  12.193  19.809  0.00  0.00    +0.000 C 
ATOM     23  C   UNL     1       2.232  13.436  20.064  0.00  0.00    +0.000 C 
ENDBRANCH   9  15
BRANCH   1  31
ATOM     24  C   UNL     1       9.459  15.937  23.275  0.00  0.00    +0.000 C 
ATOM     25  C   UNL     1       9.008  14.499  23.404  0.00  0.00    +0.000 A 
ATOM     26  C   UNL     1       8.526  14.043  24.660  0.00  0.00    +0.000 A 
ATOM     27 CL   UNL     1       8.479  15.050  26.070  0.00  0.00    +0.000 Cl
ATOM     28  C   UNL     1       8.070  12.739  24.833  0.00  0.00    +0.000 A 
ATOM     29  C   UNL     1       8.201  11.829  23.802  0.00  0.00    +0.000 A 
ATOM     30  C   UNL     1       8.787  12.232  22.602  0.00  0.00    +0.000 A 
ATOM     31  C   UNL     1       9.095  13.579  22.312  0.00  0.00    +0.000 A 
ENDBRANCH   1  31
BRANCH   4  32
ATOM     32  C   UNL     1      10.837  14.932  16.884  0.00  0.00    +0.000 C 
ATOM     33  N   UNL     1      11.268  13.883  16.109  0.00  0.00    +0.000 N 
ATOM     34  O   UNL     1      10.857  16.085  16.470  0.00  0.00    +0.000 OA
ATOM     35  H   UNL     1      11.448  12.955  16.479  0.00  0.00    +0.000 HD
ATOM     36  H   UNL     1      11.581  14.084  15.170  0.00  0.00    +0.000 HD
ENDBRANCH   4  32
TORSDOF 3
ENDMDL
MODEL 4
REMARK VINA RESULT:      -7.5      6.711     10.021
REMARK  Name = 
REMARK  5 active torsions:
REMARK  status: ('A' for Active; 'I' for Inactive)
REMARK    1  A    between atoms: C_1  and  C_2
REMARK    2  A    between atoms: C_8  and  C_9
REMARK    3  A    between atoms: C_12  and  C_13
REMARK    4  A    between atoms: C_20  and  C_21
REMARK    5  A    between atoms: N_26  and  C_27
REMARK                            x       y       z     vdW  Elec       q    Type
REMARK                         _______ _______ _______ _____ _____    ______ ____
ROOT
ATOM      1  C   UNL     1      -0.882  12.214  21.160  0.00  0.00    +0.000 A 
ATOM      2  C   UNL     1      -1.732  11.911  22.248  0.00  0.00    +0.000 A 
ATOM      3  C   UNL     1      -1.964  12.777  23.307  0.00  0.00    +0.000 A 
ATOM      4  C   UNL     1      -1.260  13.972  23.408  0.00  0.00    +0.000 A 
ATOM      5  C   UNL     1      -0.310  14.247  22.411  0.00  0.00    +0.000 A 
ATOM      6  N   UNL     1       0.614  15.272  22.355  0.00  0.00    +0.000 N 
ATOM      7  C   UNL     1       1.356  15.205  21.200  0.00  0.00    +0.000 A 
ATOM      8  C   UNL     1       2.424  16.017  20.764  0.00  0.00    +0.000 A 
ATOM      9  C   UNL     1       3.024  15.692  19.531  0.00  0.00    +0.000 A 
ATOM     10  C   UNL     1       2.569  14.606  18.798  0.00  0.00    +0.000 A 
ATOM     11  C   UNL     1       1.422  13.922  19.190  0.00  0.00    +0.000 A 
ATOM     12  C   UNL     1       0.852  14.146  20.460  0.00  0.00    +0.000 A 
ATOM     13  C   UNL     1      -0.141  13.449  21.263  0.00  0.00    +0.000 A 
ATOM     14  H   UNL     1       0.742  15.947  23.104  0.00  0.00    +0.000 HD
ENDROOT
BRANCH   9  15
ATOM     15  C   UNL     1       4.163  16.490  19.029  0.00  0.00    +0.000 C 
ATOM     16  O   UNL     1       3.966  17.243  18.079  0.00  0.00    +0.000 OA
ATOM     17  N   UNL     1       5.410  16.381  19.677  0.00  0.00    +0.000 N 
ATOM     18  C   UNL     1       6.471  17.240  19.152  0.00  0.00    +0.000 C 
ATOM     19  C   UNL     1       7.668  17.375  20.119  0.00  0.00    +0.000 C 
ATOM     20  N   UNL     1       8.191  16.098  20.650  0.00  0.00    +0.000 NA
ATOM     21  C   UNL     1       8.880  15.325  19.617  0.00  0.00    +0.000 C 
ATOM     22  C   UNL     1       7.075  15.333  21.232  0.00  0.00    +0.000 C 
ATOM     23  C   UNL     1       5.884  15.123  20.278  0.00  0.00    +0.000 C 
ENDBRANCH   9  15
BRANCH   1  31
ATOM     24  C   UNL     1      -2.966  11.863  18.905  0.00  0.00    +0.000 C 
ATOM     25  C   UNL     1      -1.648  11.123  18.928  0.00  0.00    +0.000 A 
ATOM     26  C   UNL     1      -1.340  10.242  17.857  0.00  0.00    +0.000 A 
ATOM     27 CL   UNL     1      -2.433   9.939  16.547  0.00  0.00    +0.000 Cl
ATOM     28  C   UNL     1      -0.130   9.555  17.807  0.00  0.00    +0.000 A 
ATOM     29  C   UNL     1       0.740   9.629  18.877  0.00  0.00    +0.000 A 
ATOM     30  C   UNL     1       0.394  10.394  19.992  0.00  0.00    +0.000 A 
ATOM     31  C   UNL     1      -0.727  11.252  20.016  0.00  0.00    +0.000 A 
ENDBRANCH   1  31
BRANCH   4  32
ATOM     32  C   UNL     1      -1.450  14.862  24.573  0.00  0.00    +0.000 C 
ATOM     33  N   UNL     1      -2.708  14.906  25.124  0.00  0.00    +0.000 N 
ATOM     34  O   UNL     1      -0.535  15.550  25.011  0.00  0.00    +0.000 OA
ATOM     35  H   UNL     1      -3.526  14.507  24.674  0.00  0.00    +0.000 HD
ATOM     36  H   UNL     1      -2.855  15.504  25.923  0.00  0.00    +0.000 HD
ENDBRANCH   4  32
TORSDOF 3
ENDMDL
MODEL 5
REMARK VINA RESULT:      -7.5      1.443      1.952
REMARK  Name = 
REMARK  5 active torsions:
REMARK  status: ('A' for Active; 'I' for Inactive)
REMARK    1  A    between atoms: C_1  and  C_2
REMARK    2  A    between atoms: C_8  and  C_9
REMARK    3  A    between atoms: C_12  and  C_13
REMARK    4  A    between atoms: C_20  and  C_21
REMARK    5  A    between atoms: N_26  and  C_27
REMARK                            x       y       z     vdW  Elec       q    Type
REMARK                         _______ _______ _______ _____ _____    ______ ____
ROOT
ATOM      1  C   UNL     1       4.679   4.701  18.679  0.00  0.00    +0.000 A 
ATOM      2  C   UNL     1       4.846   3.444  19.304  0.00  0.00    +0.000 A 
ATOM      3  C   UNL     1       3.903   2.875  20.148  0.00  0.00    +0.000 A 
ATOM      4  C   UNL     1       2.769   3.587  20.520  0.00  0.00    +0.000 A 
ATOM      5  C   UNL     1       2.633   4.892  20.020  0.00  0.00    +0.000 A 
ATOM      6  N   UNL     1       1.695   5.851  20.348  0.00  0.00    +0.000 N 
ATOM      7  C   UNL     1       1.891   7.001  19.622  0.00  0.00    +0.000 A 
ATOM      8  C   UNL     1       1.200   8.230  19.670  0.00  0.00    +0.000 A 
ATOM      9  C   UNL     1       1.645   9.259  18.816  0.00  0.00    +0.000 A 
ATOM     10  C   UNL     1       2.729   9.050  17.977  0.00  0.00    +0.000 A 
ATOM     11  C   UNL     1       3.289   7.782  17.853  0.00  0.00    +0.000 A 
ATOM     12  C   UNL     1       2.945   6.754  18.755  0.00  0.00    +0.000 A 
ATOM     13  C   UNL     1       3.507   5.450  19.067  0.00  0.00    +0.000 A 
ATOM     14  H   UNL     1       0.991   5.717  21.068  0.00  0.00    +0.000 HD
ENDROOT
BRANCH   9  15
ATOM     15  C   UNL     1       0.976  10.579  18.836  0.00  0.00    +0.000 C 
ATOM     16  O   UNL     1       1.205  11.355  17.912  0.00  0.00    +0.000 OA
ATOM     17  N   UNL     1       0.085  10.876  19.887  0.00  0.00    +0.000 N 
ATOM     18  C   UNL     1      -0.573  12.179  19.806  0.00  0.00    +0.000 C 
ATOM     19  C   UNL     1      -1.801  12.290  20.736  0.00  0.00    +0.000 C 
ATOM     20  N   UNL     1      -1.571  11.863  22.132  0.00  0.00    +0.000 NA
ATOM     21  C   UNL     1      -0.716  12.807  22.852  0.00  0.00    +0.000 C 
ATOM     22  C   UNL     1      -0.986  10.512  22.125  0.00  0.00    +0.000 C 
ATOM     23  C   UNL     1       0.279  10.374  21.257  0.00  0.00    +0.000 C 
ENDBRANCH   9  15
BRANCH   1  31
ATOM     24  C   UNL     1       5.030   3.691  15.778  0.00  0.00    +0.000 C 
ATOM     25  C   UNL     1       5.850   4.820  16.360  0.00  0.00    +0.000 A 
ATOM     26  C   UNL     1       6.811   5.463  15.535  0.00  0.00    +0.000 A 
ATOM     27 CL   UNL     1       7.121   4.977  13.900  0.00  0.00    +0.000 Cl
ATOM     28  C   UNL     1       7.576   6.528  16.004  0.00  0.00    +0.000 A 
ATOM     29  C   UNL     1       7.494   6.891  17.334  0.00  0.00    +0.000 A 
ATOM     30  C   UNL     1       6.644   6.186  18.187  0.00  0.00    +0.000 A 
ATOM     31  C   UNL     1       5.716   5.227  17.725  0.00  0.00    +0.000 A 
ENDBRANCH   1  31
BRANCH   4  32
ATOM     32  C   UNL     1       1.800   3.012  21.478  0.00  0.00    +0.000 C 
ATOM     33  N   UNL     1       0.552   2.706  20.992  0.00  0.00    +0.000 N 
ATOM     34  O   UNL     1       2.087   2.843  22.658  0.00  0.00    +0.000 OA
ATOM     35  H   UNL     1       0.220   3.010  20.082  0.00  0.00    +0.000 HD
ATOM     36  H   UNL     1      -0.121   2.308  21.630  0.00  0.00    +0.000 HD
ENDBRANCH   4  32
TORSDOF 3
ENDMDL
MODEL 6
REMARK VINA RESULT:      -7.4      8.615     10.768
REMARK  Name = 
REMARK  5 active torsions:
REMARK  status: ('A' for Active; 'I' for Inactive)
REMARK    1  A    between atoms: C_1  and  C_2
REMARK    2  A    between atoms: C_8  and  C_9
REMARK    3  A    between atoms: C_12  and  C_13
REMARK    4  A    between atoms: C_20  and  C_21
REMARK    5  A    between atoms: N_26  and  C_27
REMARK                            x       y       z     vdW  Elec       q    Type
REMARK                         _______ _______ _______ _____ _____    ______ ____
ROOT
ATOM      1  C   UNL     1       9.459  14.671  21.060  0.00  0.00    +0.000 A 
ATOM      2  C   UNL     1      10.817  14.606  20.672  0.00  0.00    +0.000 A 
ATOM      3  C   UNL     1      11.260  14.849  19.380  0.00  0.00    +0.000 A 
ATOM      4  C   UNL     1      10.349  15.061  18.351  0.00  0.00    +0.000 A 
ATOM      5  C   UNL     1       8.984  15.004  18.675  0.00  0.00    +0.000 A 
ATOM      6  N   UNL     1       7.892  15.029  17.830  0.00  0.00    +0.000 N 
ATOM      7  C   UNL     1       6.717  14.970  18.541  0.00  0.00    +0.000 A 
ATOM      8  C   UNL     1       5.384  14.926  18.082  0.00  0.00    +0.000 A 
ATOM      9  C   UNL     1       4.366  14.839  19.052  0.00  0.00    +0.000 A 
ATOM     10  C   UNL     1       4.689  14.789  20.400  0.00  0.00    +0.000 A 
ATOM     11  C   UNL     1       6.002  14.981  20.817  0.00  0.00    +0.000 A 
ATOM     12  C   UNL     1       7.060  14.972  19.885  0.00  0.00    +0.000 A 
ATOM     13  C   UNL     1       8.507  14.882  19.995  0.00  0.00    +0.000 A 
ATOM     14  H   UNL     1       7.972  15.043  16.817  0.00  0.00    +0.000 HD
ENDROOT
BRANCH   9  15
ATOM     15  C   UNL     1       2.949  14.766  18.634  0.00  0.00    +0.000 C 
ATOM     16  O   UNL     1       2.576  13.765  18.028  0.00  0.00    +0.000 OA
ATOM     17  N   UNL     1       2.082  15.824  18.975  0.00  0.00    +0.000 N 
ATOM     18  C   UNL     1       0.687  15.653  18.570  0.00  0.00    +0.000 C 
ATOM     19  C   UNL     1      -0.272  16.622  19.295  0.00  0.00    +0.000 C 
ATOM     20  N   UNL     1       0.145  18.040  19.285  0.00  0.00    +0.000 NA
ATOM     21  C   UNL     1       0.023  18.630  17.952  0.00  0.00    +0.000 C 
ATOM     22  C   UNL     1       1.528  18.132  19.783  0.00  0.00    +0.000 C 
ATOM     23  C   UNL     1       2.530  17.225  19.045  0.00  0.00    +0.000 C 
ENDBRANCH   9  15
BRANCH   1  31
ATOM     24  C   UNL     1       8.396  11.992  22.177  0.00  0.00    +0.000 C 
ATOM     25  C   UNL     1       8.628  13.209  23.044  0.00  0.00    +0.000 A 
ATOM     26  C   UNL     1       8.369  13.115  24.437  0.00  0.00    +0.000 A 
ATOM     27 CL   UNL     1       7.748  11.680  25.183  0.00  0.00    +0.000 Cl
ATOM     28  C   UNL     1       8.593  14.193  25.291  0.00  0.00    +0.000 A 
ATOM     29  C   UNL     1       8.954  15.417  24.764  0.00  0.00    +0.000 A 
ATOM     30  C   UNL     1       9.092  15.554  23.382  0.00  0.00    +0.000 A 
ATOM     31  C   UNL     1       9.059  14.457  22.494  0.00  0.00    +0.000 A 
ENDBRANCH   1  31
BRANCH   4  32
ATOM     32  C   UNL     1      10.815  15.246  16.960  0.00  0.00    +0.000 C 
ATOM     33  N   UNL     1      11.378  14.156  16.343  0.00  0.00    +0.000 N 
ATOM     34  O   UNL     1      10.726  16.329  16.393  0.00  0.00    +0.000 OA
ATOM     35  H   UNL     1      11.643  13.311  16.839  0.00  0.00    +0.000 HD
ATOM     36  H   UNL     1      11.697  14.262  15.391  0.00  0.00    +0.000 HD
ENDBRANCH   4  32
TORSDOF 3
ENDMDL
MODEL 7
REMARK VINA RESULT:      -7.4      7.059     10.101
REMARK  Name = 
REMARK  5 active torsions:
REMARK  status: ('A' for Active; 'I' for Inactive)
REMARK    1  A    between atoms: C_1  and  C_2
REMARK    2  A    between atoms: C_8  and  C_9
REMARK    3  A    between atoms: C_12  and  C_13
REMARK    4  A    between atoms: C_20  and  C_21
REMARK    5  A    between atoms: N_26  and  C_27
REMARK                            x       y       z     vdW  Elec       q    Type
REMARK                         _______ _______ _______ _____ _____    ______ ____
ROOT
ATOM      1  C   UNL     1      -1.370  12.575  20.997  0.00  0.00    +0.000 A 
ATOM      2  C   UNL     1      -2.187  12.235  22.099  0.00  0.00    +0.000 A 
ATOM      3  C   UNL     1      -2.277  12.999  23.254  0.00  0.00    +0.000 A 
ATOM      4  C   UNL     1      -1.455  14.106  23.433  0.00  0.00    +0.000 A 
ATOM      5  C   UNL     1      -0.536  14.400  22.411  0.00  0.00    +0.000 A 
ATOM      6  N   UNL     1       0.480  15.335  22.404  0.00  0.00    +0.000 N 
ATOM      7  C   UNL     1       1.149  15.326  21.204  0.00  0.00    +0.000 A 
ATOM      8  C   UNL     1       2.267  16.079  20.786  0.00  0.00    +0.000 A 
ATOM      9  C   UNL     1       2.766  15.836  19.491  0.00  0.00    +0.000 A 
ATOM     10  C   UNL     1       2.168  14.883  18.680  0.00  0.00    +0.000 A 
ATOM     11  C   UNL     1       0.982  14.269  19.071  0.00  0.00    +0.000 A 
ATOM     12  C   UNL     1       0.505  14.405  20.391  0.00  0.00    +0.000 A 
ATOM     13  C   UNL     1      -0.507  13.719  21.179  0.00  0.00    +0.000 A 
ATOM     14  H   UNL     1       0.712  15.911  23.208  0.00  0.00    +0.000 HD
ENDROOT
BRANCH   9  15
ATOM     15  C   UNL     1       3.950  16.576  19.003  0.00  0.00    +0.000 C 
ATOM     16  O   UNL     1       3.800  17.347  18.059  0.00  0.00    +0.000 OA
ATOM     17  N   UNL     1       5.185  16.395  19.658  0.00  0.00    +0.000 N 
ATOM     18  C   UNL     1       6.294  17.200  19.148  0.00  0.00    +0.000 C 
ATOM     19  C   UNL     1       7.490  17.262  20.123  0.00  0.00    +0.000 C 
ATOM     20  N   UNL     1       7.940  15.955  20.646  0.00  0.00    +0.000 NA
ATOM     21  C   UNL     1       8.593  15.155  19.611  0.00  0.00    +0.000 C 
ATOM     22  C   UNL     1       6.781  15.246  21.214  0.00  0.00    +0.000 C 
ATOM     23  C   UNL     1       5.587  15.109  20.251  0.00  0.00    +0.000 C 
ENDBRANCH   9  15
BRANCH   1  31
ATOM     24  C   UNL     1       0.960  10.724  20.160  0.00  0.00    +0.000 C 
ATOM     25  C   UNL     1      -0.333  10.821  19.382  0.00  0.00    +0.000 A 
ATOM     26  C   UNL     1      -0.498  10.011  18.227  0.00  0.00    +0.000 A 
ATOM     27 CL   UNL     1       0.741   8.951  17.638  0.00  0.00    +0.000 Cl
ATOM     28  C   UNL     1      -1.677  10.034  17.486  0.00  0.00    +0.000 A 
ATOM     29  C   UNL     1      -2.661  10.950  17.801  0.00  0.00    +0.000 A 
ATOM     30  C   UNL     1      -2.460  11.837  18.859  0.00  0.00    +0.000 A 
ATOM     31  C   UNL     1      -1.371  11.733  19.752  0.00  0.00    +0.000 A 
ENDBRANCH   1  31
BRANCH   4  32
ATOM     32  C   UNL     1      -1.495  14.878  24.693  0.00  0.00    +0.000 C 
ATOM     33  N   UNL     1      -2.718  15.007  25.304  0.00  0.00    +0.000 N 
ATOM     34  O   UNL     1      -0.488  15.402  25.157  0.00  0.00    +0.000 OA
ATOM     35  H   UNL     1      -3.594  14.759  24.855  0.00  0.00    +0.000 HD
ATOM     36  H   UNL     1      -2.764  15.527  26.168  0.00  0.00    +0.000 HD
ENDBRANCH   4  32
TORSDOF 3
ENDMDL
MODEL 8
REMARK VINA RESULT:      -7.3      7.632     10.445
REMARK  Name = 
REMARK  5 active torsions:
REMARK  status: ('A' for Active; 'I' for Inactive)
REMARK    1  A    between atoms: C_1  and  C_2
REMARK    2  A    between atoms: C_8  and  C_9
REMARK    3  A    between atoms: C_12  and  C_13
REMARK    4  A    between atoms: C_20  and  C_21
REMARK    5  A    between atoms: N_26  and  C_27
REMARK                            x       y       z     vdW  Elec       q    Type
REMARK                         _______ _______ _______ _____ _____    ______ ____
ROOT
ATOM      1  C   UNL     1      -1.946  12.649  21.180  0.00  0.00    +0.000 A 
ATOM      2  C   UNL     1      -2.704  12.301  22.322  0.00  0.00    +0.000 A 
ATOM      3  C   UNL     1      -2.706  13.038  23.498  0.00  0.00    +0.000 A 
ATOM      4  C   UNL     1      -1.848  14.121  23.652  0.00  0.00    +0.000 A 
ATOM      5  C   UNL     1      -0.985  14.418  22.584  0.00  0.00    +0.000 A 
ATOM      6  N   UNL     1       0.051  15.330  22.537  0.00  0.00    +0.000 N 
ATOM      7  C   UNL     1       0.647  15.335  21.299  0.00  0.00    +0.000 A 
ATOM      8  C   UNL     1       1.757  16.072  20.833  0.00  0.00    +0.000 A 
ATOM      9  C   UNL     1       2.171  15.850  19.504  0.00  0.00    +0.000 A 
ATOM     10  C   UNL     1       1.503  14.931  18.709  0.00  0.00    +0.000 A 
ATOM     11  C   UNL     1       0.328  14.335  19.156  0.00  0.00    +0.000 A 
ATOM     12  C   UNL     1      -0.066  14.449  20.506  0.00  0.00    +0.000 A 
ATOM     13  C   UNL     1      -1.046  13.768  21.336  0.00  0.00    +0.000 A 
ATOM     14  H   UNL     1       0.345  15.880  23.340  0.00  0.00    +0.000 HD
ENDROOT
BRANCH   9  15
ATOM     15  C   UNL     1       3.342  16.574  18.963  0.00  0.00    +0.000 C 
ATOM     16  O   UNL     1       3.148  17.405  18.080  0.00  0.00    +0.000 OA
ATOM     17  N   UNL     1       4.616  16.310  19.503  0.00  0.00    +0.000 N 
ATOM     18  C   UNL     1       5.713  17.104  18.950  0.00  0.00    +0.000 C 
ATOM     19  C   UNL     1       6.985  17.064  19.826  0.00  0.00    +0.000 C 
ATOM     20  N   UNL     1       7.421  15.712  20.235  0.00  0.00    +0.000 NA
ATOM     21  C   UNL     1       7.957  14.952  19.106  0.00  0.00    +0.000 C 
ATOM     22  C   UNL     1       6.283  15.013  20.856  0.00  0.00    +0.000 C 
ATOM     23  C   UNL     1       5.011  14.977  19.987  0.00  0.00    +0.000 C 
ENDBRANCH   9  15
BRANCH   1  31
ATOM     24  C   UNL     1      -4.427  12.611  19.337  0.00  0.00    +0.000 C 
ATOM     25  C   UNL     1      -3.155  11.859  19.018  0.00  0.00    +0.000 A 
ATOM     26  C   UNL     1      -3.083  11.118  17.808  0.00  0.00    +0.000 A 
ATOM     27 CL   UNL     1      -4.412  10.995  16.702  0.00  0.00    +0.000 Cl
ATOM     28  C   UNL     1      -1.928  10.428  17.446  0.00  0.00    +0.000 A 
ATOM     29  C   UNL     1      -0.872  10.356  18.332  0.00  0.00    +0.000 A 
ATOM     30  C   UNL     1      -0.977  10.977  19.577  0.00  0.00    +0.000 A 
ATOM     31  C   UNL     1      -2.043  11.838  19.918  0.00  0.00    +0.000 A 
ENDBRANCH   1  31
BRANCH   4  32
ATOM     32  C   UNL     1      -1.793  14.862  24.930  0.00  0.00    +0.000 C 
ATOM     33  N   UNL     1      -2.952  14.917  25.666  0.00  0.00    +0.000 N 
ATOM     34  O   UNL     1      -0.770  15.424  25.302  0.00  0.00    +0.000 OA
ATOM     35  H   UNL     1      -3.856  14.636  25.302  0.00  0.00    +0.000 HD
ATOM     36  H   UNL     1      -2.932  15.415  26.544  0.00  0.00    +0.000 HD
ENDBRANCH   4  32
TORSDOF 3
ENDMDL
MODEL 9
REMARK VINA RESULT:      -7.3      1.072      1.587
REMARK  Name = 
REMARK  5 active torsions:
REMARK  status: ('A' for Active; 'I' for Inactive)
REMARK    1  A    between atoms: C_1  and  C_2
REMARK    2  A    between atoms: C_8  and  C_9
REMARK    3  A    between atoms: C_12  and  C_13
REMARK    4  A    between atoms: C_20  and  C_21
REMARK    5  A    between atoms: N_26  and  C_27
REMARK                            x       y       z     vdW  Elec       q    Type
REMARK                         _______ _______ _______ _____ _____    ______ ____
ROOT
ATOM      1  C   UNL     1       4.153   4.084  18.569  0.00  0.00    +0.000 A 
ATOM      2  C   UNL     1       4.410   2.787  19.069  0.00  0.00    +0.000 A 
ATOM      3  C   UNL     1       3.673   2.195  20.085  0.00  0.00    +0.000 A 
ATOM      4  C   UNL     1       2.692   2.915  20.756  0.00  0.00    +0.000 A 
ATOM      5  C   UNL     1       2.497   4.253  20.373  0.00  0.00    +0.000 A 
ATOM      6  N   UNL     1       1.708   5.217  20.968  0.00  0.00    +0.000 N 
ATOM      7  C   UNL     1       1.773   6.403  20.277  0.00  0.00    +0.000 A 
ATOM      8  C   UNL     1       1.167   7.646  20.555  0.00  0.00    +0.000 A 
ATOM      9  C   UNL     1       1.439   8.712  19.675  0.00  0.00    +0.000 A 
ATOM     10  C   UNL     1       2.280   8.523  18.589  0.00  0.00    +0.000 A 
ATOM     11  C   UNL     1       2.740   7.250  18.267  0.00  0.00    +0.000 A 
ATOM     12  C   UNL     1       2.577   6.179  19.169  0.00  0.00    +0.000 A 
ATOM     13  C   UNL     1       3.141   4.842  19.268  0.00  0.00    +0.000 A 
ATOM     14  H   UNL     1       1.191   5.059  21.829  0.00  0.00    +0.000 HD
ENDROOT
BRANCH   9  15
ATOM     15  C   UNL     1       0.852  10.047  19.925  0.00  0.00    +0.000 C 
ATOM     16  O   UNL     1       1.259  10.683  20.893  0.00  0.00    +0.000 OA
ATOM     17  N   UNL     1      -0.116  10.545  19.030  0.00  0.00    +0.000 N 
ATOM     18  C   UNL     1      -0.609  11.891  19.318  0.00  0.00    +0.000 C 
ATOM     19  C   UNL     1      -1.348  12.529  18.121  0.00  0.00    +0.000 C 
ATOM     20  N   UNL     1      -2.380  11.676  17.496  0.00  0.00    +0.000 NA
ATOM     21  C   UNL     1      -3.547  11.516  18.362  0.00  0.00    +0.000 C 
ATOM     22  C   UNL     1      -1.781  10.373  17.162  0.00  0.00    +0.000 C 
ATOM     23  C   UNL     1      -1.086   9.674  18.346  0.00  0.00    +0.000 C 
ENDBRANCH   9  15
BRANCH   1  31
ATOM     24  C   UNL     1       6.383   6.202  18.881  0.00  0.00    +0.000 C 
ATOM     25  C   UNL     1       6.032   5.567  17.554  0.00  0.00    +0.000 A 
ATOM     26  C   UNL     1       6.772   5.941  16.401  0.00  0.00    +0.000 A 
ATOM     27 CL   UNL     1       8.029   7.134  16.437  0.00  0.00    +0.000 Cl
ATOM     28  C   UNL     1       6.515   5.370  15.156  0.00  0.00    +0.000 A 
ATOM     29  C   UNL     1       5.441   4.515  15.008  0.00  0.00    +0.000 A 
ATOM     30  C   UNL     1       4.630   4.235  16.108  0.00  0.00    +0.000 A 
ATOM     31  C   UNL     1       4.953   4.638  17.423  0.00  0.00    +0.000 A 
ENDBRANCH   1  31
BRANCH   4  32
ATOM     32  C   UNL     1       1.957   2.312  21.888  0.00  0.00    +0.000 C 
ATOM     33  N   UNL     1       2.489   1.171  22.437  0.00  0.00    +0.000 N 
ATOM     34  O   UNL     1       0.907   2.792  22.300  0.00  0.00    +0.000 OA
ATOM     35  H   UNL     1       3.238   0.641  22.003  0.00  0.00    +0.000 HD
ATOM     36  H   UNL     1       2.003   0.747  23.214  0.00  0.00    +0.000 HD
ENDBRANCH   4  32
TORSDOF 3
ENDMDL
