MODEL 1
REMARK VINA RESULT:      -6.0      0.000      0.000
REMARK  Name = 
REMARK  5 active torsions:
REMARK  status: ('A' for Active; 'I' for Inactive)
REMARK    1  A    between atoms: C_1  and  N_2
REMARK    2  A    between atoms: N_2  and  C_3
REMARK    3  A    between atoms: N_2  and  C_10
REMARK    4  A    between atoms: C_3  and  C_4
REMARK    5  A    between atoms: C_10  and  C_11
REMARK                            x       y       z     vdW  Elec       q    Type
REMARK                         _______ _______ _______ _____ _____    ______ ____
ROOT
ATOM      1  C   UNL     1       3.781   6.629  17.762  0.00  0.00    +0.000 C 
ATOM      2  N   UNL     1       3.753   5.193  18.063  0.00  0.00    +0.000 NA
ENDROOT
BRANCH   2   3
ATOM      3  C   UNL     1       5.126   4.626  18.022  0.00  0.00    +0.000 C 
BRANCH   3   4
ATOM      4  C   UNL     1       5.776   4.655  16.659  0.00  0.00    +0.000 A 
ATOM      5  C   UNL     1       5.201   4.026  15.553  0.00  0.00    +0.000 A 
ATOM      6  C   UNL     1       5.819   4.112  14.308  0.00  0.00    +0.000 A 
ATOM      7  C   UNL     1       7.002   4.826  14.210  0.00  0.00    +0.000 A 
ATOM      8  N   UNL     1       7.600   5.435  15.255  0.00  0.00    +0.000 NA
ATOM      9  C   UNL     1       6.976   5.336  16.452  0.00  0.00    +0.000 A 
ENDBRANCH   3   4
ENDBRANCH   2   3
BRANCH   2  10
ATOM     10  C   UNL     1       3.156   4.924  19.395  0.00  0.00    +0.000 C 
BRANCH  10  11
ATOM     11  C   UNL     1       2.087   3.805  19.451  0.00  0.00    +0.000 C 
ATOM     12  C   UNL     1       2.672   2.484  19.947  0.00  0.00    +0.000 C 
ATOM     13  C   UNL     1       3.052   1.742  18.685  0.00  0.00    +0.000 C 
ATOM     14  N   UNL     1       2.067   2.139  17.680  0.00  0.00    +0.000 NA
ATOM     15  C   UNL     1       1.499   3.434  18.090  0.00  0.00    +0.000 C 
ATOM     16  H   UNL     1       1.318   1.448  17.647  0.00  0.00    +0.000 HD
ENDBRANCH  10  11
ENDBRANCH   2  10
TORSDOF 4
ENDMDL
MODEL 2
REMARK VINA RESULT:      -5.8      1.611      5.857
REMARK  Name = 
REMARK  5 active torsions:
REMARK  status: ('A' for Active; 'I' for Inactive)
REMARK    1  A    between atoms: C_1  and  N_2
REMARK    2  A    between atoms: N_2  and  C_3
REMARK    3  A    between atoms: N_2  and  C_10
REMARK    4  A    between atoms: C_3  and  C_4
REMARK    5  A    between atoms: C_10  and  C_11
REMARK                            x       y       z     vdW  Elec       q    Type
REMARK                         _______ _______ _______ _____ _____    ______ ____
ROOT
ATOM      1  C   UNL     1       3.506   5.448  17.656  0.00  0.00    +0.000 C 
ATOM      2  N   UNL     1       4.254   4.190  17.561  0.00  0.00    +0.000 NA
ENDROOT
BRANCH   2   3
ATOM      3  C   UNL     1       3.355   3.029  17.790  0.00  0.00    +0.000 C 
BRANCH   3   4
ATOM      4  C   UNL     1       2.755   2.965  19.175  0.00  0.00    +0.000 A 
ATOM      5  C   UNL     1       1.404   3.226  19.408  0.00  0.00    +0.000 A 
ATOM      6  C   UNL     1       0.889   3.117  20.698  0.00  0.00    +0.000 A 
ATOM      7  C   UNL     1       1.750   2.752  21.719  0.00  0.00    +0.000 A 
ATOM      8  N   UNL     1       3.064   2.506  21.542  0.00  0.00    +0.000 NA
ATOM      9  C   UNL     1       3.536   2.618  20.278  0.00  0.00    +0.000 A 
ENDBRANCH   3   4
ENDBRANCH   2   3
BRANCH   2  10
ATOM     10  C   UNL     1       4.910   4.041  16.237  0.00  0.00    +0.000 C 
BRANCH  10  11
ATOM     11  C   UNL     1       6.458   4.075  16.234  0.00  0.00    +0.000 C 
ATOM     12  C   UNL     1       7.019   4.529  17.581  0.00  0.00    +0.000 C 
ATOM     13  C   UNL     1       7.214   6.021  17.424  0.00  0.00    +0.000 C 
ATOM     14  N   UNL     1       7.563   6.230  16.020  0.00  0.00    +0.000 NA
ATOM     15  C   UNL     1       7.058   5.080  15.252  0.00  0.00    +0.000 C 
ATOM     16  H   UNL     1       8.578   6.269  15.924  0.00  0.00    +0.000 HD
ENDBRANCH  10  11
ENDBRANCH   2  10
TORSDOF 4
ENDMDL
MODEL 3
REMARK VINA RESULT:      -5.8      1.222      1.666
REMARK  Name = 
REMARK  5 active torsions:
REMARK  status: ('A' for Active; 'I' for Inactive)
REMARK    1  A    between atoms: C_1  and  N_2
REMARK    2  A    between atoms: N_2  and  C_3
REMARK    3  A    between atoms: N_2  and  C_10
REMARK    4  A    between atoms: C_3  and  C_4
REMARK    5  A    between atoms: C_10  and  C_11
REMARK                            x       y       z     vdW  Elec       q    Type
REMARK                         _______ _______ _______ _____ _____    ______ ____
ROOT
ATOM      1  C   UNL     1       3.198   6.072  19.827  0.00  0.00    +0.000 C 
ATOM      2  N   UNL     1       3.844   5.398  18.696  0.00  0.00    +0.000 NA
ENDROOT
BRANCH   2   3
ATOM      3  C   UNL     1       5.147   6.039  18.383  0.00  0.00    +0.000 C 
BRANCH   3   4
ATOM      4  C   UNL     1       5.793   5.555  17.105  0.00  0.00    +0.000 A 
ATOM      5  C   UNL     1       5.149   5.651  15.870  0.00  0.00    +0.000 A 
ATOM      6  C   UNL     1       5.800   5.226  14.715  0.00  0.00    +0.000 A 
ATOM      7  C   UNL     1       7.080   4.712  14.834  0.00  0.00    +0.000 A 
ATOM      8  N   UNL     1       7.733   4.588  16.007  0.00  0.00    +0.000 NA
ATOM      9  C   UNL     1       7.077   5.010  17.113  0.00  0.00    +0.000 A 
ENDBRANCH   3   4
ENDBRANCH   2   3
BRANCH   2  10
ATOM     10  C   UNL     1       4.067   3.956  18.972  0.00  0.00    +0.000 C 
BRANCH  10  11
ATOM     11  C   UNL     1       3.403   2.962  17.988  0.00  0.00    +0.000 C 
ATOM     12  C   UNL     1       1.999   3.412  17.586  0.00  0.00    +0.000 C 
ATOM     13  C   UNL     1       1.084   2.704  18.561  0.00  0.00    +0.000 C 
ATOM     14  N   UNL     1       1.729   1.426  18.854  0.00  0.00    +0.000 NA
ATOM     15  C   UNL     1       3.167   1.569  18.571  0.00  0.00    +0.000 C 
ATOM     16  H   UNL     1       1.346   0.703  18.246  0.00  0.00    +0.000 HD
ENDBRANCH  10  11
ENDBRANCH   2  10
TORSDOF 4
ENDMDL
MODEL 4
REMARK VINA RESULT:      -5.7      1.951      5.342
REMARK  Name = 
REMARK  5 active torsions:
REMARK  status: ('A' for Active; 'I' for Inactive)
REMARK    1  A    between atoms: C_1  and  N_2
REMARK    2  A    between atoms: N_2  and  C_3
REMARK    3  A    between atoms: N_2  and  C_10
REMARK    4  A    between atoms: C_3  and  C_4
REMARK    5  A    between atoms: C_10  and  C_11
REMARK                            x       y       z     vdW  Elec       q    Type
REMARK                         _______ _______ _______ _____ _____    ______ ____
ROOT
ATOM      1  C   UNL     1       2.772   7.207  18.322  0.00  0.00    +0.000 C 
ATOM      2  N   UNL     1       3.857   6.248  18.088  0.00  0.00    +0.000 NA
ENDROOT
BRANCH   2   3
ATOM      3  C   UNL     1       3.314   4.958  17.589  0.00  0.00    +0.000 C 
BRANCH   3   4
ATOM      4  C   UNL     1       2.690   4.087  18.654  0.00  0.00    +0.000 A 
ATOM      5  C   UNL     1       1.364   3.657  18.573  0.00  0.00    +0.000 A 
ATOM      6  C   UNL     1       0.844   2.824  19.560  0.00  0.00    +0.000 A 
ATOM      7  C   UNL     1       1.671   2.449  20.606  0.00  0.00    +0.000 A 
ATOM      8  N   UNL     1       2.952   2.853  20.731  0.00  0.00    +0.000 NA
ATOM      9  C   UNL     1       3.431   3.661  19.756  0.00  0.00    +0.000 A 
ENDBRANCH   3   4
ENDBRANCH   2   3
BRANCH   2  10
ATOM     10  C   UNL     1       4.847   6.768  17.111  0.00  0.00    +0.000 C 
BRANCH  10  11
ATOM     11  C   UNL     1       6.337   6.549  17.467  0.00  0.00    +0.000 C 
ATOM     12  C   UNL     1       7.069   5.757  16.384  0.00  0.00    +0.000 C 
ATOM     13  C   UNL     1       6.984   4.319  16.847  0.00  0.00    +0.000 C 
ATOM     14  N   UNL     1       7.015   4.370  18.308  0.00  0.00    +0.000 NA
ATOM     15  C   UNL     1       6.564   5.709  18.723  0.00  0.00    +0.000 C 
ATOM     16  H   UNL     1       7.971   4.231  18.633  0.00  0.00    +0.000 HD
ENDBRANCH  10  11
ENDBRANCH   2  10
TORSDOF 4
ENDMDL
MODEL 5
REMARK VINA RESULT:      -5.7      2.005      2.966
REMARK  Name = 
REMARK  5 active torsions:
REMARK  status: ('A' for Active; 'I' for Inactive)
REMARK    1  A    between atoms: C_1  and  N_2
REMARK    2  A    between atoms: N_2  and  C_3
REMARK    3  A    between atoms: N_2  and  C_10
REMARK    4  A    between atoms: C_3  and  C_4
REMARK    5  A    between atoms: C_10  and  C_11
REMARK                            x       y       z     vdW  Elec       q    Type
REMARK                         _______ _______ _______ _____ _____    ______ ____
ROOT
ATOM      1  C   UNL     1       3.752   3.547  16.726  0.00  0.00    +0.000 C 
ATOM      2  N   UNL     1       3.201   4.231  17.901  0.00  0.00    +0.000 NA
ENDROOT
BRANCH   2   3
ATOM      3  C   UNL     1       3.537   5.678  17.866  0.00  0.00    +0.000 C 
BRANCH   3   4
ATOM      4  C   UNL     1       5.011   5.983  18.003  0.00  0.00    +0.000 A 
ATOM      5  C   UNL     1       5.786   5.436  19.027  0.00  0.00    +0.000 A 
ATOM      6  C   UNL     1       7.149   5.716  19.090  0.00  0.00    +0.000 A 
ATOM      7  C   UNL     1       7.694   6.543  18.121  0.00  0.00    +0.000 A 
ATOM      8  N   UNL     1       6.980   7.104  17.124  0.00  0.00    +0.000 NA
ATOM      9  C   UNL     1       5.659   6.813  17.087  0.00  0.00    +0.000 A 
ENDBRANCH   3   4
ENDBRANCH   2   3
BRANCH   2  10
ATOM     10  C   UNL     1       1.727   4.078  17.984  0.00  0.00    +0.000 C 
BRANCH  10  11
ATOM     11  C   UNL     1       1.190   3.294  19.206  0.00  0.00    +0.000 C 
ATOM     12  C   UNL     1       0.964   4.205  20.411  0.00  0.00    +0.000 C 
ATOM     13  C   UNL     1       2.249   4.108  21.204  0.00  0.00    +0.000 C 
ATOM     14  N   UNL     1       2.739   2.746  20.998  0.00  0.00    +0.000 NA
ATOM     15  C   UNL     1       2.155   2.239  19.746  0.00  0.00    +0.000 C 
ATOM     16  H   UNL     1       2.430   2.154  21.769  0.00  0.00    +0.000 HD
ENDBRANCH  10  11
ENDBRANCH   2  10
TORSDOF 4
ENDMDL
MODEL 6
REMARK VINA RESULT:      -5.7      1.454      2.026
REMARK  Name = 
REMARK  5 active torsions:
REMARK  status: ('A' for Active; 'I' for Inactive)
REMARK    1  A    between atoms: C_1  and  N_2
REMARK    2  A    between atoms: N_2  and  C_3
REMARK    3  A    between atoms: N_2  and  C_10
REMARK    4  A    between atoms: C_3  and  C_4
REMARK    5  A    between atoms: C_10  and  C_11
REMARK                            x       y       z     vdW  Elec       q    Type
REMARK                         _______ _______ _______ _____ _____    ______ ____
ROOT
ATOM      1  C   UNL     1       2.609   6.994  18.843  0.00  0.00    +0.000 C 
ATOM      2  N   UNL     1       2.783   5.566  19.128  0.00  0.00    +0.000 NA
ENDROOT
BRANCH   2   3
ATOM      3  C   UNL     1       4.186   5.282  19.528  0.00  0.00    +0.000 C 
BRANCH   3   4
ATOM      4  C   UNL     1       5.115   4.971  18.378  0.00  0.00    +0.000 A 
ATOM      5  C   UNL     1       6.491   5.192  18.459  0.00  0.00    +0.000 A 
ATOM      6  C   UNL     1       7.312   4.854  17.386  0.00  0.00    +0.000 A 
ATOM      7  C   UNL     1       6.724   4.306  16.257  0.00  0.00    +0.000 A 
ATOM      8  N   UNL     1       5.399   4.089  16.131  0.00  0.00    +0.000 NA
ATOM      9  C   UNL     1       4.626   4.426  17.190  0.00  0.00    +0.000 A 
ENDBRANCH   3   4
ENDBRANCH   2   3
BRANCH   2  10
ATOM     10  C   UNL     1       1.870   5.106  20.204  0.00  0.00    +0.000 C 
BRANCH  10  11
ATOM     11  C   UNL     1       1.066   3.815  19.913  0.00  0.00    +0.000 C 
ATOM     12  C   UNL     1       1.649   2.606  20.643  0.00  0.00    +0.000 C 
ATOM     13  C   UNL     1       2.587   1.975  19.637  0.00  0.00    +0.000 C 
ATOM     14  N   UNL     1       1.985   2.217  18.327  0.00  0.00    +0.000 NA
ATOM     15  C   UNL     1       1.091   3.381  18.448  0.00  0.00    +0.000 C 
ATOM     16  H   UNL     1       1.432   1.405  18.052  0.00  0.00    +0.000 HD
ENDBRANCH  10  11
ENDBRANCH   2  10
TORSDOF 4
ENDMDL
MODEL 7
REMARK VINA RESULT:      -5.7      1.131      1.325
REMARK  Name = 
REMARK  5 active torsions:
REMARK  status: ('A' for Active; 'I' for Inactive)
REMARK    1  A    between atoms: C_1  and  N_2
REMARK    2  A    between atoms: N_2  and  C_3
REMARK    3  A    between atoms: N_2  and  C_10
REMARK    4  A    between atoms: C_3  and  C_4
REMARK    5  A    between atoms: C_10  and  C_11
REMARK                            x       y       z     vdW  Elec       q    Type
REMARK                         _______ _______ _______ _____ _____    ______ ____
ROOT
ATOM      1  C   UNL     1       2.895   6.993  18.399  0.00  0.00    +0.000 C 
ATOM      2  N   UNL     1       3.529   5.731  18.006  0.00  0.00    +0.000 NA
ENDROOT
BRANCH   2   3
ATOM      3  C   UNL     1       5.008   5.879  17.972  0.00  0.00    +0.000 C 
BRANCH   3   4
ATOM      4  C   UNL     1       5.653   5.426  16.683  0.00  0.00    +0.000 A 
ATOM      5  C   UNL     1       4.957   4.682  15.730  0.00  0.00    +0.000 A 
ATOM      6  C   UNL     1       5.583   4.320  14.540  0.00  0.00    +0.000 A 
ATOM      7  C   UNL     1       6.897   4.713  14.343  0.00  0.00    +0.000 A 
ATOM      8  N   UNL     1       7.612   5.419  15.243  0.00  0.00    +0.000 NA
ATOM      9  C   UNL     1       6.977   5.758  16.390  0.00  0.00    +0.000 A 
ENDBRANCH   3   4
ENDBRANCH   2   3
BRANCH   2  10
ATOM     10  C   UNL     1       3.174   4.626  18.931  0.00  0.00    +0.000 C 
BRANCH  10  11
ATOM     11  C   UNL     1       1.663   4.330  19.092  0.00  0.00    +0.000 C 
ATOM     12  C   UNL     1       1.246   4.285  20.561  0.00  0.00    +0.000 C 
ATOM     13  C   UNL     1       1.339   2.821  20.935  0.00  0.00    +0.000 C 
ATOM     14  N   UNL     1       0.989   2.080  19.724  0.00  0.00    +0.000 NA
ATOM     15  C   UNL     1       1.235   2.959  18.569  0.00  0.00    +0.000 C 
ATOM     16  H   UNL     1      -0.001   1.839  19.748  0.00  0.00    +0.000 HD
ENDBRANCH  10  11
ENDBRANCH   2  10
TORSDOF 4
ENDMDL
MODEL 8
REMARK VINA RESULT:      -5.6      1.749      5.433
REMARK  Name = 
REMARK  5 active torsions:
REMARK  status: ('A' for Active; 'I' for Inactive)
REMARK    1  A    between atoms: C_1  and  N_2
REMARK    2  A    between atoms: N_2  and  C_3
REMARK    3  A    between atoms: N_2  and  C_10
REMARK    4  A    between atoms: C_3  and  C_4
REMARK    5  A    between atoms: C_10  and  C_11
REMARK                            x       y       z     vdW  Elec       q    Type
REMARK                         _______ _______ _______ _____ _____    ______ ____
ROOT
ATOM      1  C   UNL     1       2.690   7.950  17.994  0.00  0.00    +0.000 C 
ATOM      2  N   UNL     1       3.212   6.647  18.422  0.00  0.00    +0.000 NA
ENDROOT
BRANCH   2   3
ATOM      3  C   UNL     1       2.320   5.552  17.962  0.00  0.00    +0.000 C 
BRANCH   3   4
ATOM      4  C   UNL     1       1.982   4.530  19.022  0.00  0.00    +0.000 A 
ATOM      5  C   UNL     1       1.479   3.269  18.700  0.00  0.00    +0.000 A 
ATOM      6  C   UNL     1       1.219   2.347  19.711  0.00  0.00    +0.000 A 
ATOM      7  C   UNL     1       1.468   2.722  21.021  0.00  0.00    +0.000 A 
ATOM      8  N   UNL     1       1.939   3.934  21.378  0.00  0.00    +0.000 NA
ATOM      9  C   UNL     1       2.184   4.809  20.375  0.00  0.00    +0.000 A 
ENDBRANCH   3   4
ENDBRANCH   2   3
BRANCH   2  10
ATOM     10  C   UNL     1       4.582   6.408  17.904  0.00  0.00    +0.000 C 
BRANCH  10  11
ATOM     11  C   UNL     1       4.701   5.418  16.720  0.00  0.00    +0.000 C 
ATOM     12  C   UNL     1       5.629   4.249  17.048  0.00  0.00    +0.000 C 
ATOM     13  C   UNL     1       6.981   4.683  16.522  0.00  0.00    +0.000 C 
ATOM     14  N   UNL     1       6.703   5.501  15.343  0.00  0.00    +0.000 NA
ATOM     15  C   UNL     1       5.330   6.018  15.463  0.00  0.00    +0.000 C 
ATOM     16  H   UNL     1       6.764   4.922  14.505  0.00  0.00    +0.000 HD
ENDBRANCH  10  11
ENDBRANCH   2  10
TORSDOF 4
ENDMDL
MODEL 9
REMARK VINA RESULT:      -5.6      1.498      5.781
REMARK  Name = 
REMARK  5 active torsions:
REMARK  status: ('A' for Active; 'I' for Inactive)
REMARK    1  A    between atoms: C_1  and  N_2
REMARK    2  A    between atoms: N_2  and  C_3
REMARK    3  A    between atoms: N_2  and  C_10
REMARK    4  A    between atoms: C_3  and  C_4
REMARK    5  A    between atoms: C_10  and  C_11
REMARK                            x       y       z     vdW  Elec       q    Type
REMARK                         _______ _______ _______ _____ _____    ______ ____
ROOT
ATOM      1  C   UNL     1       2.894   7.980  17.949  0.00  0.00    +0.000 C 
ATOM      2  N   UNL     1       3.147   6.663  18.543  0.00  0.00    +0.000 NA
ENDROOT
BRANCH   2   3
ATOM      3  C   UNL     1       2.084   5.702  18.152  0.00  0.00    +0.000 C 
BRANCH   3   4
ATOM      4  C   UNL     1       1.931   4.522  19.083  0.00  0.00    +0.000 A 
ATOM      5  C   UNL     1       1.640   4.684  20.439  0.00  0.00    +0.000 A 
ATOM      6  C   UNL     1       1.471   3.565  21.251  0.00  0.00    +0.000 A 
ATOM      7  C   UNL     1       1.604   2.312  20.676  0.00  0.00    +0.000 A 
ATOM      8  N   UNL     1       1.899   2.110  19.376  0.00  0.00    +0.000 NA
ATOM      9  C   UNL     1       2.057   3.215  18.611  0.00  0.00    +0.000 A 
ENDBRANCH   3   4
ENDBRANCH   2   3
BRANCH   2  10
ATOM     10  C   UNL     1       4.466   6.121  18.133  0.00  0.00    +0.000 C 
BRANCH  10  11
ATOM     11  C   UNL     1       5.181   6.864  16.978  0.00  0.00    +0.000 C 
ATOM     12  C   UNL     1       5.233   6.020  15.705  0.00  0.00    +0.000 C 
ATOM     13  C   UNL     1       6.571   5.316  15.775  0.00  0.00    +0.000 C 
ATOM     14  N   UNL     1       7.473   6.246  16.452  0.00  0.00    +0.000 NA
ATOM     15  C   UNL     1       6.653   7.173  17.249  0.00  0.00    +0.000 C 
ATOM     16  H   UNL     1       7.993   6.782  15.757  0.00  0.00    +0.000 HD
ENDBRANCH  10  11
ENDBRANCH   2  10
TORSDOF 4
ENDMDL
