MODEL 1
REMARK VINA RESULT:      -5.8      0.000      0.000
REMARK  Name = 
REMARK  4 active torsions:
REMARK  status: ('A' for Active; 'I' for Inactive)
REMARK    1  A    between atoms: C_1  and  C_2
REMARK    2  A    between atoms: C_2  and  N_3
REMARK    3  A    between atoms: C_7  and  C_8
REMARK    4  A    between atoms: N_18  and  C_19
REMARK                            x       y       z     vdW  Elec       q    Type
REMARK                         _______ _______ _______ _____ _____    ______ ____
ROOT
ATOM      1  N   UNL     1       0.458  12.032  18.918  0.00  0.00    +0.000 NA
ATOM      2  C   UNL     1      -0.495  12.704  19.817  0.00  0.00    +0.000 C 
ATOM      3  C   UNL     1      -1.968  12.596  19.393  0.00  0.00    +0.000 C 
ATOM      4  N   UNL     1      -2.252  11.523  18.461  0.00  0.00    +0.000 N 
ATOM      5  C   UNL     1      -3.477  11.010  18.123  0.00  0.00    +0.000 A 
ATOM      6  C   UNL     1      -4.770  11.444  18.699  0.00  0.00    +0.000 C 
ATOM      7  C   UNL     1      -3.179  10.010  17.220  0.00  0.00    +0.000 A 
ATOM      8  N   UNL     1      -1.824   9.847  17.082  0.00  0.00    +0.000 NA
ATOM      9  C   UNL     1      -1.283  10.700  17.929  0.00  0.00    +0.000 A 
ATOM     10  C   UNL     1       0.074  10.603  18.646  0.00  0.00    +0.000 C 
ATOM     11  C   UNL     1      -0.300   9.741  19.893  0.00  0.00    +0.000 C 
ATOM     12  C   UNL     1       0.834   9.072  20.615  0.00  0.00    +0.000 C 
ATOM     13  N   UNL     1       1.676   8.310  19.722  0.00  0.00    +0.000 N 
ATOM     14  C   UNL     1       1.914   6.998  20.086  0.00  0.00    +0.000 C 
ATOM     15  O   UNL     1       1.434   6.491  21.101  0.00  0.00    +0.000 OA
ATOM     16  N   UNL     1       2.719   6.256  19.267  0.00  0.00    +0.000 N 
ATOM     17  C   UNL     1       2.762   4.825  19.488  0.00  0.00    +0.000 C 
ATOM     18  C   UNL     1       2.190   9.038  18.562  0.00  0.00    +0.000 C 
ATOM     19  C   UNL     1       1.088   9.784  17.776  0.00  0.00    +0.000 C 
ATOM     20  H   UNL     1       3.591   6.692  18.986  0.00  0.00    +0.000 HD
ENDROOT
BRANCH   1  22
ATOM     21  C   UNL     1       2.439  13.344  18.152  0.00  0.00    +0.000 C 
ATOM     22  C   UNL     1       1.855  12.361  19.182  0.00  0.00    +0.000 C 
ENDBRANCH   1  22
TORSDOF 1
ENDMDL
MODEL 2
REMARK VINA RESULT:      -5.8      3.323      5.586
REMARK  Name = 
REMARK  4 active torsions:
REMARK  status: ('A' for Active; 'I' for Inactive)
REMARK    1  A    between atoms: C_1  and  C_2
REMARK    2  A    between atoms: C_2  and  N_3
REMARK    3  A    between atoms: C_7  and  C_8
REMARK    4  A    between atoms: N_18  and  C_19
REMARK                            x       y       z     vdW  Elec       q    Type
REMARK                         _______ _______ _______ _____ _____    ______ ____
ROOT
ATOM      1  N   UNL     1      -0.051  11.582  21.124  0.00  0.00    +0.000 NA
ATOM      2  C   UNL     1      -0.480  12.599  22.098  0.00  0.00    +0.000 C 
ATOM      3  C   UNL     1       0.166  13.981  21.914  0.00  0.00    +0.000 C 
ATOM      4  N   UNL     1       0.739  14.211  20.603  0.00  0.00    +0.000 N 
ATOM      5  C   UNL     1       1.127  15.408  20.058  0.00  0.00    +0.000 A 
ATOM      6  C   UNL     1       0.986  16.728  20.713  0.00  0.00    +0.000 C 
ATOM      7  C   UNL     1       1.584  15.066  18.801  0.00  0.00    +0.000 A 
ATOM      8  N   UNL     1       1.394  13.731  18.546  0.00  0.00    +0.000 NA
ATOM      9  C   UNL     1       0.777  13.257  19.611  0.00  0.00    +0.000 A 
ATOM     10  C   UNL     1      -0.183  12.060  19.704  0.00  0.00    +0.000 C 
ATOM     11  C   UNL     1      -1.542  12.729  19.326  0.00  0.00    +0.000 C 
ATOM     12  C   UNL     1      -2.649  11.811  18.893  0.00  0.00    +0.000 C 
ATOM     13  N   UNL     1      -2.231  10.912  17.841  0.00  0.00    +0.000 N 
ATOM     14  C   UNL     1      -3.037  10.878  16.719  0.00  0.00    +0.000 C 
ATOM     15  O   UNL     1      -4.046  11.574  16.602  0.00  0.00    +0.000 OA
ATOM     16  N   UNL     1      -2.674  10.025  15.713  0.00  0.00    +0.000 N 
ATOM     17  C   UNL     1      -3.348  10.170  14.438  0.00  0.00    +0.000 C 
ATOM     18  C   UNL     1      -1.023  10.134  18.116  0.00  0.00    +0.000 C 
ATOM     19  C   UNL     1       0.161  11.003  18.600  0.00  0.00    +0.000 C 
ATOM     20  H   UNL     1      -2.444   9.078  15.993  0.00  0.00    +0.000 HD
ENDROOT
BRANCH   1  22
ATOM     21  C   UNL     1      -0.489   9.973  22.982  0.00  0.00    +0.000 C 
ATOM     22  C   UNL     1      -0.462  10.224  21.465  0.00  0.00    +0.000 C 
ENDBRANCH   1  22
TORSDOF 1
ENDMDL
MODEL 3
REMARK VINA RESULT:      -5.6      1.950      4.437
REMARK  Name = 
REMARK  4 active torsions:
REMARK  status: ('A' for Active; 'I' for Inactive)
REMARK    1  A    between atoms: C_1  and  C_2
REMARK    2  A    between atoms: C_2  and  N_3
REMARK    3  A    between atoms: C_7  and  C_8
REMARK    4  A    between atoms: N_18  and  C_19
REMARK                            x       y       z     vdW  Elec       q    Type
REMARK                         _______ _______ _______ _____ _____    ______ ____
ROOT
ATOM      1  N   UNL     1      -0.619  12.413  19.597  0.00  0.00    +0.000 NA
ATOM      2  C   UNL     1      -0.546  13.448  18.552  0.00  0.00    +0.000 C 
ATOM      3  C   UNL     1       0.502  14.544  18.800  0.00  0.00    +0.000 C 
ATOM      4  N   UNL     1       1.534  14.189  19.754  0.00  0.00    +0.000 N 
ATOM      5  C   UNL     1       2.728  14.827  19.971  0.00  0.00    +0.000 A 
ATOM      6  C   UNL     1       3.213  16.006  19.219  0.00  0.00    +0.000 C 
ATOM      7  C   UNL     1       3.328  14.076  20.963  0.00  0.00    +0.000 A 
ATOM      8  N   UNL     1       2.581  12.968  21.273  0.00  0.00    +0.000 NA
ATOM      9  C   UNL     1       1.553  12.998  20.447  0.00  0.00    +0.000 A 
ATOM     10  C   UNL     1       0.728  11.819  19.906  0.00  0.00    +0.000 C 
ATOM     11  C   UNL     1       1.587  11.383  18.678  0.00  0.00    +0.000 C 
ATOM     12  C   UNL     1       1.341  10.003  18.139  0.00  0.00    +0.000 C 
ATOM     13  N   UNL     1       1.407   8.994  19.172  0.00  0.00    +0.000 N 
ATOM     14  C   UNL     1       2.243   7.923  18.918  0.00  0.00    +0.000 C 
ATOM     15  O   UNL     1       2.906   7.825  17.885  0.00  0.00    +0.000 OA
ATOM     16  N   UNL     1       2.315   6.945  19.872  0.00  0.00    +0.000 N 
ATOM     17  C   UNL     1       3.372   5.963  19.744  0.00  0.00    +0.000 C 
ATOM     18  C   UNL     1       0.558   9.227  20.340  0.00  0.00    +0.000 C 
ATOM     19  C   UNL     1       0.726  10.641  20.940  0.00  0.00    +0.000 C 
ATOM     20  H   UNL     1       1.429   6.606  20.229  0.00  0.00    +0.000 HD
ENDROOT
BRANCH   1  22
ATOM     21  C   UNL     1      -2.314  11.438  18.046  0.00  0.00    +0.000 C 
ATOM     22  C   UNL     1      -1.781  11.538  19.485  0.00  0.00    +0.000 C 
ENDBRANCH   1  22
TORSDOF 1
ENDMDL
MODEL 4
REMARK VINA RESULT:      -5.5      9.535     11.602
REMARK  Name = 
REMARK  4 active torsions:
REMARK  status: ('A' for Active; 'I' for Inactive)
REMARK    1  A    between atoms: C_1  and  C_2
REMARK    2  A    between atoms: C_2  and  N_3
REMARK    3  A    between atoms: C_7  and  C_8
REMARK    4  A    between atoms: N_18  and  C_19
REMARK                            x       y       z     vdW  Elec       q    Type
REMARK                         _______ _______ _______ _____ _____    ______ ____
ROOT
ATOM      1  N   UNL     1      10.919  14.739  18.505  0.00  0.00    +0.000 NA
ATOM      2  C   UNL     1      10.909  13.753  17.413  0.00  0.00    +0.000 C 
ATOM      3  C   UNL     1      10.631  12.306  17.851  0.00  0.00    +0.000 C 
ATOM      4  N   UNL     1      10.002  12.179  19.151  0.00  0.00    +0.000 N 
ATOM      5  C   UNL     1       9.393  11.071  19.681  0.00  0.00    +0.000 A 
ATOM      6  C   UNL     1       9.224   9.776  18.983  0.00  0.00    +0.000 C 
ATOM      7  C   UNL     1       8.958  11.494  20.920  0.00  0.00    +0.000 A 
ATOM      8  N   UNL     1       9.200  12.832  21.106  0.00  0.00    +0.000 NA
ATOM      9  C   UNL     1       9.733  13.250  19.974  0.00  0.00    +0.000 A 
ATOM     10  C   UNL     1       9.681  14.657  19.358  0.00  0.00    +0.000 C 
ATOM     11  C   UNL     1       8.321  14.607  18.594  0.00  0.00    +0.000 C 
ATOM     12  C   UNL     1       7.712  15.927  18.215  0.00  0.00    +0.000 C 
ATOM     13  N   UNL     1       7.614  16.826  19.342  0.00  0.00    +0.000 N 
ATOM     14  C   UNL     1       6.368  17.384  19.564  0.00  0.00    +0.000 C 
ATOM     15  O   UNL     1       5.390  17.130  18.861  0.00  0.00    +0.000 OA
ATOM     16  N   UNL     1       6.248  18.250  20.615  0.00  0.00    +0.000 N 
ATOM     17  C   UNL     1       4.910  18.631  21.019  0.00  0.00    +0.000 C 
ATOM     18  C   UNL     1       8.854  17.050  20.083  0.00  0.00    +0.000 C 
ATOM     19  C   UNL     1       9.565  15.739  20.486  0.00  0.00    +0.000 C 
ATOM     20  H   UNL     1       6.959  18.971  20.681  0.00  0.00    +0.000 HD
ENDROOT
BRANCH   1  22
ATOM     21  C   UNL     1      11.003  16.467  16.706  0.00  0.00    +0.000 C 
ATOM     22  C   UNL     1      11.439  16.047  18.120  0.00  0.00    +0.000 C 
ENDBRANCH   1  22
TORSDOF 1
ENDMDL
MODEL 5
REMARK VINA RESULT:      -5.5      3.766      6.801
REMARK  Name = 
REMARK  4 active torsions:
REMARK  status: ('A' for Active; 'I' for Inactive)
REMARK    1  A    between atoms: C_1  and  C_2
REMARK    2  A    between atoms: C_2  and  N_3
REMARK    3  A    between atoms: C_7  and  C_8
REMARK    4  A    between atoms: N_18  and  C_19
REMARK                            x       y       z     vdW  Elec       q    Type
REMARK                         _______ _______ _______ _____ _____    ______ ____
ROOT
ATOM      1  N   UNL     1       0.036  13.406  20.961  0.00  0.00    +0.000 NA
ATOM      2  C   UNL     1       0.472  12.750  19.717  0.00  0.00    +0.000 C 
ATOM      3  C   UNL     1       1.057  11.341  19.901  0.00  0.00    +0.000 C 
ATOM      4  N   UNL     1       0.706  10.699  21.152  0.00  0.00    +0.000 N 
ATOM      5  C   UNL     1       0.838   9.374  21.478  0.00  0.00    +0.000 A 
ATOM      6  C   UNL     1       1.340   8.319  20.570  0.00  0.00    +0.000 C 
ATOM      7  C   UNL     1       0.346   9.301  22.766  0.00  0.00    +0.000 A 
ATOM      8  N   UNL     1      -0.159  10.508  23.179  0.00  0.00    +0.000 NA
ATOM      9  C   UNL     1      -0.031  11.311  22.141  0.00  0.00    +0.000 A 
ATOM     10  C   UNL     1      -0.886  12.535  21.771  0.00  0.00    +0.000 C 
ATOM     11  C   UNL     1      -2.060  11.864  20.992  0.00  0.00    +0.000 C 
ATOM     12  C   UNL     1      -3.315  12.675  20.834  0.00  0.00    +0.000 C 
ATOM     13  N   UNL     1      -3.791  13.194  22.096  0.00  0.00    +0.000 N 
ATOM     14  C   UNL     1      -5.116  12.940  22.393  0.00  0.00    +0.000 C 
ATOM     15  O   UNL     1      -5.856  12.300  21.645  0.00  0.00    +0.000 OA
ATOM     16  N   UNL     1      -5.599  13.432  23.574  0.00  0.00    +0.000 N 
ATOM     17  C   UNL     1      -6.892  12.955  24.019  0.00  0.00    +0.000 C 
ATOM     18  C   UNL     1      -2.812  13.947  22.880  0.00  0.00    +0.000 C 
ATOM     19  C   UNL     1      -1.475  13.195  23.065  0.00  0.00    +0.000 C 
ATOM     20  H   UNL     1      -5.389  14.405  23.770  0.00  0.00    +0.000 HD
ENDROOT
BRANCH   1  22
ATOM     21  C   UNL     1      -0.448  15.241  19.339  0.00  0.00    +0.000 C 
ATOM     22  C   UNL     1      -0.267  14.825  20.809  0.00  0.00    +0.000 C 
ENDBRANCH   1  22
TORSDOF 1
ENDMDL
MODEL 6
REMARK VINA RESULT:      -5.5      3.435      6.207
REMARK  Name = 
REMARK  4 active torsions:
REMARK  status: ('A' for Active; 'I' for Inactive)
REMARK    1  A    between atoms: C_1  and  C_2
REMARK    2  A    between atoms: C_2  and  N_3
REMARK    3  A    between atoms: C_7  and  C_8
REMARK    4  A    between atoms: N_18  and  C_19
REMARK                            x       y       z     vdW  Elec       q    Type
REMARK                         _______ _______ _______ _____ _____    ______ ____
ROOT
ATOM      1  N   UNL     1      -0.918  10.723  19.643  0.00  0.00    +0.000 NA
ATOM      2  C   UNL     1      -0.234  10.066  18.517  0.00  0.00    +0.000 C 
ATOM      3  C   UNL     1      -1.139   9.721  17.324  0.00  0.00    +0.000 C 
ATOM      4  N   UNL     1      -2.388  10.455  17.282  0.00  0.00    +0.000 N 
ATOM      5  C   UNL     1      -3.255  10.571  16.226  0.00  0.00    +0.000 A 
ATOM      6  C   UNL     1      -3.045   9.985  14.882  0.00  0.00    +0.000 C 
ATOM      7  C   UNL     1      -4.262  11.380  16.712  0.00  0.00    +0.000 A 
ATOM      8  N   UNL     1      -3.979  11.824  17.979  0.00  0.00    +0.000 NA
ATOM      9  C   UNL     1      -2.785  11.341  18.259  0.00  0.00    +0.000 A 
ATOM     10  C   UNL     1      -1.719  11.918  19.205  0.00  0.00    +0.000 C 
ATOM     11  C   UNL     1      -0.989  12.928  18.263  0.00  0.00    +0.000 C 
ATOM     12  C   UNL     1      -0.164  13.993  18.926  0.00  0.00    +0.000 C 
ATOM     13  N   UNL     1      -0.909  14.709  19.937  0.00  0.00    +0.000 N 
ATOM     14  C   UNL     1      -0.897  16.087  19.834  0.00  0.00    +0.000 C 
ATOM     15  O   UNL     1      -0.304  16.683  18.934  0.00  0.00    +0.000 OA
ATOM     16  N   UNL     1      -1.581  16.793  20.786  0.00  0.00    +0.000 N 
ATOM     17  C   UNL     1      -1.798  18.204  20.545  0.00  0.00    +0.000 C 
ATOM     18  C   UNL     1      -1.553  13.880  20.954  0.00  0.00    +0.000 C 
ATOM     19  C   UNL     1      -2.401  12.734  20.356  0.00  0.00    +0.000 C 
ATOM     20  H   UNL     1      -1.408  16.523  21.749  0.00  0.00    +0.000 HD
ENDROOT
BRANCH   1  22
ATOM     21  C   UNL     1       0.054   9.441  21.552  0.00  0.00    +0.000 C 
ATOM     22  C   UNL     1      -0.115  10.803  20.859  0.00  0.00    +0.000 C 
ENDBRANCH   1  22
TORSDOF 1
ENDMDL
MODEL 7
REMARK VINA RESULT:      -5.4      4.241      5.774
REMARK  Name = 
REMARK  4 active torsions:
REMARK  status: ('A' for Active; 'I' for Inactive)
REMARK    1  A    between atoms: C_1  and  C_2
REMARK    2  A    between atoms: C_2  and  N_3
REMARK    3  A    between atoms: C_7  and  C_8
REMARK    4  A    between atoms: N_18  and  C_19
REMARK                            x       y       z     vdW  Elec       q    Type
REMARK                         _______ _______ _______ _____ _____    ______ ____
ROOT
ATOM      1  N   UNL     1      -3.568  15.086  21.483  0.00  0.00    +0.000 NA
ATOM      2  C   UNL     1      -4.025  15.830  22.669  0.00  0.00    +0.000 C 
ATOM      3  C   UNL     1      -5.418  15.433  23.183  0.00  0.00    +0.000 C 
ATOM      4  N   UNL     1      -5.882  14.137  22.730  0.00  0.00    +0.000 N 
ATOM      5  C   UNL     1      -6.930  13.403  23.225  0.00  0.00    +0.000 A 
ATOM      6  C   UNL     1      -7.776  13.795  24.375  0.00  0.00    +0.000 C 
ATOM      7  C   UNL     1      -6.926  12.259  22.453  0.00  0.00    +0.000 A 
ATOM      8  N   UNL     1      -5.862  12.243  21.586  0.00  0.00    +0.000 NA
ATOM      9  C   UNL     1      -5.180  13.340  21.852  0.00  0.00    +0.000 A 
ATOM     10  C   UNL     1      -3.675  13.597  21.669  0.00  0.00    +0.000 C 
ATOM     11  C   UNL     1      -3.103  13.026  23.004  0.00  0.00    +0.000 C 
ATOM     12  C   UNL     1      -1.635  12.707  23.027  0.00  0.00    +0.000 C 
ATOM     13  N   UNL     1      -1.244  11.864  21.920  0.00  0.00    +0.000 N 
ATOM     14  C   UNL     1      -0.536  10.723  22.249  0.00  0.00    +0.000 C 
ATOM     15  O   UNL     1      -0.260  10.423  23.411  0.00  0.00    +0.000 OA
ATOM     16  N   UNL     1      -0.139   9.913  21.221  0.00  0.00    +0.000 N 
ATOM     17  C   UNL     1       0.363   8.598  21.562  0.00  0.00    +0.000 C 
ATOM     18  C   UNL     1      -1.624  12.345  20.592  0.00  0.00    +0.000 C 
ATOM     19  C   UNL     1      -3.118  12.728  20.490  0.00  0.00    +0.000 C 
ATOM     20  H   UNL     1       0.310  10.376  20.438  0.00  0.00    +0.000 HD
ENDROOT
BRANCH   1  22
ATOM     21  C   UNL     1      -2.598  17.076  20.329  0.00  0.00    +0.000 C 
ATOM     22  C   UNL     1      -2.377  15.647  20.854  0.00  0.00    +0.000 C 
ENDBRANCH   1  22
TORSDOF 1
ENDMDL
MODEL 8
REMARK VINA RESULT:      -5.4      3.041      5.335
REMARK  Name = 
REMARK  4 active torsions:
REMARK  status: ('A' for Active; 'I' for Inactive)
REMARK    1  A    between atoms: C_1  and  C_2
REMARK    2  A    between atoms: C_2  and  N_3
REMARK    3  A    between atoms: C_7  and  C_8
REMARK    4  A    between atoms: N_18  and  C_19
REMARK                            x       y       z     vdW  Elec       q    Type
REMARK                         _______ _______ _______ _____ _____    ______ ____
ROOT
ATOM      1  N   UNL     1      -0.540  10.317  19.008  0.00  0.00    +0.000 NA
ATOM      2  C   UNL     1      -1.067  10.012  17.667  0.00  0.00    +0.000 C 
ATOM      3  C   UNL     1      -2.564  10.301  17.479  0.00  0.00    +0.000 C 
ATOM      4  N   UNL     1      -3.131  11.210  18.456  0.00  0.00    +0.000 N 
ATOM      5  C   UNL     1      -4.335  11.862  18.392  0.00  0.00    +0.000 A 
ATOM      6  C   UNL     1      -5.286  11.786  17.260  0.00  0.00    +0.000 C 
ATOM      7  C   UNL     1      -4.373  12.601  19.558  0.00  0.00    +0.000 A 
ATOM      8  N   UNL     1      -3.201  12.486  20.261  0.00  0.00    +0.000 NA
ATOM      9  C   UNL     1      -2.421  11.728  19.517  0.00  0.00    +0.000 A 
ATOM     10  C   UNL     1      -0.885  11.713  19.450  0.00  0.00    +0.000 C 
ATOM     11  C   UNL     1      -0.613  12.850  18.416  0.00  0.00    +0.000 C 
ATOM     12  C   UNL     1       0.773  13.429  18.398  0.00  0.00    +0.000 C 
ATOM     13  N   UNL     1       1.209  13.841  19.713  0.00  0.00    +0.000 N 
ATOM     14  C   UNL     1       1.688  15.134  19.813  0.00  0.00    +0.000 C 
ATOM     15  O   UNL     1       1.736  15.903  18.853  0.00  0.00    +0.000 OA
ATOM     16  N   UNL     1       2.121  15.548  21.042  0.00  0.00    +0.000 N 
ATOM     17  C   UNL     1       2.374  16.963  21.221  0.00  0.00    +0.000 C 
ATOM     18  C   UNL     1       1.111  12.825  20.760  0.00  0.00    +0.000 C 
ATOM     19  C   UNL     1      -0.279  12.154  20.827  0.00  0.00    +0.000 C 
ATOM     20  H   UNL     1       2.748  14.916  21.530  0.00  0.00    +0.000 HD
ENDROOT
BRANCH   1  22
ATOM     21  C   UNL     1       1.577   9.522  17.952  0.00  0.00    +0.000 C 
ATOM     22  C   UNL     1       0.801   9.797  19.251  0.00  0.00    +0.000 C 
ENDBRANCH   1  22
TORSDOF 1
ENDMDL
MODEL 9
REMARK VINA RESULT:      -5.3      3.728      6.695
REMARK  Name = 
REMARK  4 active torsions:
REMARK  status: ('A' for Active; 'I' for Inactive)
REMARK    1  A    between atoms: C_1  and  C_2
REMARK    2  A    between atoms: C_2  and  N_3
REMARK    3  A    between atoms: C_7  and  C_8
REMARK    4  A    between atoms: N_18  and  C_19
REMARK                            x       y       z     vdW  Elec       q    Type
REMARK                         _______ _______ _______ _____ _____    ______ ____
ROOT
ATOM      1  N   UNL     1       0.028  13.281  22.034  0.00  0.00    +0.000 NA
ATOM      2  C   UNL     1       0.757  13.321  20.756  0.00  0.00    +0.000 C 
ATOM      3  C   UNL     1       1.300  11.964  20.280  0.00  0.00    +0.000 C 
ATOM      4  N   UNL     1       0.669  10.812  20.891  0.00  0.00    +0.000 N 
ATOM      5  C   UNL     1       0.737   9.505  20.482  0.00  0.00    +0.000 A 
ATOM      6  C   UNL     1       1.455   9.025  19.280  0.00  0.00    +0.000 C 
ATOM      7  C   UNL     1      -0.048   8.831  21.397  0.00  0.00    +0.000 A 
ATOM      8  N   UNL     1      -0.653   9.698  22.272  0.00  0.00    +0.000 NA
ATOM      9  C   UNL     1      -0.292  10.902  21.874  0.00  0.00    +0.000 A 
ATOM     10  C   UNL     1      -1.049  12.230  22.043  0.00  0.00    +0.000 C 
ATOM     11  C   UNL     1      -1.994  12.202  20.801  0.00  0.00    +0.000 C 
ATOM     12  C   UNL     1      -3.185  13.116  20.839  0.00  0.00    +0.000 C 
ATOM     13  N   UNL     1      -3.956  12.957  22.051  0.00  0.00    +0.000 N 
ATOM     14  C   UNL     1      -5.311  12.741  21.882  0.00  0.00    +0.000 C 
ATOM     15  O   UNL     1      -5.842  12.674  20.773  0.00  0.00    +0.000 OA
ATOM     16  N   UNL     1      -6.069  12.601  23.012  0.00  0.00    +0.000 N 
ATOM     17  C   UNL     1      -7.425  12.115  22.852  0.00  0.00    +0.000 C 
ATOM     18  C   UNL     1      -3.204  13.073  23.300  0.00  0.00    +0.000 C 
ATOM     19  C   UNL     1      -1.940  12.185  23.332  0.00  0.00    +0.000 C 
ATOM     20  H   UNL     1      -5.925  13.299  23.734  0.00  0.00    +0.000 HD
ENDROOT
BRANCH   1  22
ATOM     21  C   UNL     1      -0.525  15.661  21.525  0.00  0.00    +0.000 C 
ATOM     22  C   UNL     1      -0.249  14.596  22.600  0.00  0.00    +0.000 C 
ENDBRANCH   1  22
TORSDOF 1
ENDMDL
