MODEL 1
REMARK VINA RESULT:      -8.4      0.000      0.000
REMARK  Name = 
REMARK  5 active torsions:
REMARK  status: ('A' for Active; 'I' for Inactive)
REMARK    1  A    between atoms: C_1  and  O_2
REMARK    2  A    between atoms: O_2  and  C_3
REMARK    3  A    between atoms: C_6  and  N_7
REMARK    4  A    between atoms: C_14  and  C_15
REMARK    5  A    between atoms: C_18  and  N_19
REMARK                            x       y       z     vdW  Elec       q    Type
REMARK                         _______ _______ _______ _____ _____    ______ ____
ROOT
ATOM      1  N   UNL     1       4.135   4.369  18.951  0.00  0.00    +0.000 N 
ATOM      2  C   UNL     1       4.019   3.074  19.446  0.00  0.00    +0.000 C 
ATOM      3  O   UNL     1       4.638   2.091  19.041  0.00  0.00    +0.000 OA
ATOM      4  N   UNL     1       3.093   2.871  20.427  0.00  0.00    +0.000 N 
ATOM      5  C   UNL     1       2.179   3.756  20.904  0.00  0.00    +0.000 C 
ATOM      6  O   UNL     1       1.297   3.397  21.677  0.00  0.00    +0.000 OA
ATOM      7  C   UNL     1       2.331   5.140  20.411  0.00  0.00    +0.000 C 
ATOM      8  C   UNL     1       1.465   6.043  20.914  0.00  0.00    +0.000 C 
ATOM      9  C   UNL     1       3.395   5.459  19.418  0.00  0.00    +0.000 C 
ATOM     10  O   UNL     1       3.623   6.623  19.088  0.00  0.00    +0.000 OA
ATOM     11  H   UNL     1       2.976   1.911  20.719  0.00  0.00    +0.000 HD
ENDROOT
BRANCH   1  15
ATOM     12  C   UNL     1       6.936   5.021  15.822  0.00  0.00    +0.000 A 
ATOM     13  C   UNL     1       5.588   4.807  15.535  0.00  0.00    +0.000 A 
ATOM     14  C   UNL     1       4.663   4.628  16.566  0.00  0.00    +0.000 A 
ATOM     15  C   UNL     1       5.085   4.607  17.902  0.00  0.00    +0.000 A 
ATOM     16  C   UNL     1       6.444   4.798  18.183  0.00  0.00    +0.000 A 
ATOM     17  C   UNL     1       7.363   5.019  17.150  0.00  0.00    +0.000 A 
BRANCH  12  19
ATOM     18  C   UNL     1       7.162   4.820  13.481  0.00  0.00    +0.000 C 
ATOM     19  O   UNL     1       7.742   5.178  14.730  0.00  0.00    +0.000 OA
ENDBRANCH  12  19
ENDBRANCH   1  15
BRANCH   8  20
ATOM     20  C   UNL     1       1.375   7.466  20.585  0.00  0.00    +0.000 A 
ATOM     21  C   UNL     1       1.424   7.884  19.253  0.00  0.00    +0.000 A 
ATOM     22  C   UNL     1       1.283   9.240  18.935  0.00  0.00    +0.000 A 
ATOM     23  C   UNL     1       1.093  10.216  19.921  0.00  0.00    +0.000 A 
ATOM     24  C   UNL     1       1.076   9.775  21.254  0.00  0.00    +0.000 A 
ATOM     25  C   UNL     1       1.206   8.420  21.587  0.00  0.00    +0.000 A 
BRANCH  23  26
ATOM     26  N   UNL     1       0.887  11.549  19.620  0.00  0.00    +0.000 N 
ATOM     27  C   UNL     1       1.775  12.308  18.725  0.00  0.00    +0.000 C 
ATOM     28  C   UNL     1       2.537  13.385  19.507  0.00  0.00    +0.000 C 
ATOM     29  O   UNL     1       1.636  14.244  20.226  0.00  0.00    +0.000 OA
ATOM     30  C   UNL     1       0.865  13.476  21.165  0.00  0.00    +0.000 C 
ATOM     31  C   UNL     1       0.026  12.387  20.470  0.00  0.00    +0.000 C 
ENDBRANCH  23  26
ENDBRANCH   8  20
TORSDOF 4
ENDMDL
MODEL 2
REMARK VINA RESULT:      -8.4      2.537      9.040
REMARK  Name = 
REMARK  5 active torsions:
REMARK  status: ('A' for Active; 'I' for Inactive)
REMARK    1  A    between atoms: C_1  and  O_2
REMARK    2  A    between atoms: O_2  and  C_3
REMARK    3  A    between atoms: C_6  and  N_7
REMARK    4  A    between atoms: C_14  and  C_15
REMARK    5  A    between atoms: C_18  and  N_19
REMARK                            x       y       z     vdW  Elec       q    Type
REMARK                         _______ _______ _______ _____ _____    ______ ____
ROOT
ATOM      1  N   UNL     1       1.305  13.908  18.913  0.00  0.00    +0.000 N 
ATOM      2  C   UNL     1       0.178  14.722  18.896  0.00  0.00    +0.000 C 
ATOM      3  O   UNL     1       0.178  15.953  18.942  0.00  0.00    +0.000 OA
ATOM      4  N   UNL     1      -1.035  14.096  18.889  0.00  0.00    +0.000 N 
ATOM      5  C   UNL     1      -1.285  12.766  19.015  0.00  0.00    +0.000 C 
ATOM      6  O   UNL     1      -2.430  12.350  19.152  0.00  0.00    +0.000 OA
ATOM      7  C   UNL     1      -0.089  11.900  18.989  0.00  0.00    +0.000 C 
ATOM      8  C   UNL     1      -0.322  10.573  19.060  0.00  0.00    +0.000 C 
ATOM      9  C   UNL     1       1.266  12.511  18.888  0.00  0.00    +0.000 C 
ATOM     10  O   UNL     1       2.266  11.809  18.737  0.00  0.00    +0.000 OA
ATOM     11  H   UNL     1      -1.838  14.707  18.949  0.00  0.00    +0.000 HD
ENDROOT
BRANCH   1  15
ATOM     12  C   UNL     1       5.142  15.732  18.976  0.00  0.00    +0.000 A 
ATOM     13  C   UNL     1       4.482  15.509  17.768  0.00  0.00    +0.000 A 
ATOM     14  C   UNL     1       3.206  14.942  17.751  0.00  0.00    +0.000 A 
ATOM     15  C   UNL     1       2.593  14.539  18.945  0.00  0.00    +0.000 A 
ATOM     16  C   UNL     1       3.272  14.742  20.153  0.00  0.00    +0.000 A 
ATOM     17  C   UNL     1       4.533  15.350  20.171  0.00  0.00    +0.000 A 
BRANCH  12  19
ATOM     18  C   UNL     1       7.335  15.526  18.127  0.00  0.00    +0.000 C 
ATOM     19  O   UNL     1       6.385  16.288  18.861  0.00  0.00    +0.000 OA
ENDBRANCH  12  19
ENDBRANCH   1  15
BRANCH   8  20
ATOM     20  C   UNL     1       0.670   9.497  19.079  0.00  0.00    +0.000 A 
ATOM     21  C   UNL     1       1.000   8.866  20.280  0.00  0.00    +0.000 A 
ATOM     22  C   UNL     1       1.909   7.801  20.289  0.00  0.00    +0.000 A 
ATOM     23  C   UNL     1       2.515   7.335  19.116  0.00  0.00    +0.000 A 
ATOM     24  C   UNL     1       2.189   8.004  17.925  0.00  0.00    +0.000 A 
ATOM     25  C   UNL     1       1.274   9.065  17.899  0.00  0.00    +0.000 A 
BRANCH  23  26
ATOM     26  N   UNL     1       3.363   6.243  19.099  0.00  0.00    +0.000 N 
ATOM     27  C   UNL     1       4.311   5.991  18.002  0.00  0.00    +0.000 C 
ATOM     28  C   UNL     1       3.909   4.737  17.218  0.00  0.00    +0.000 C 
ATOM     29  O   UNL     1       3.775   3.598  18.086  0.00  0.00    +0.000 OA
ATOM     30  C   UNL     1       2.761   3.847  19.074  0.00  0.00    +0.000 C 
ATOM     31  C   UNL     1       3.095   5.071  19.948  0.00  0.00    +0.000 C 
ENDBRANCH  23  26
ENDBRANCH   8  20
TORSDOF 4
ENDMDL
MODEL 3
REMARK VINA RESULT:      -8.3      0.719      1.153
REMARK  Name = 
REMARK  5 active torsions:
REMARK  status: ('A' for Active; 'I' for Inactive)
REMARK    1  A    between atoms: C_1  and  O_2
REMARK    2  A    between atoms: O_2  and  C_3
REMARK    3  A    between atoms: C_6  and  N_7
REMARK    4  A    between atoms: C_14  and  C_15
REMARK    5  A    between atoms: C_18  and  N_19
REMARK                            x       y       z     vdW  Elec       q    Type
REMARK                         _______ _______ _______ _____ _____    ______ ____
ROOT
ATOM      1  N   UNL     1       4.016   4.561  18.985  0.00  0.00    +0.000 N 
ATOM      2  C   UNL     1       3.878   3.237  19.387  0.00  0.00    +0.000 C 
ATOM      3  O   UNL     1       4.494   2.276  18.925  0.00  0.00    +0.000 OA
ATOM      4  N   UNL     1       2.932   2.978  20.336  0.00  0.00    +0.000 N 
ATOM      5  C   UNL     1       2.020   3.839  20.858  0.00  0.00    +0.000 C 
ATOM      6  O   UNL     1       1.121   3.437  21.590  0.00  0.00    +0.000 OA
ATOM      7  C   UNL     1       2.196   5.251  20.464  0.00  0.00    +0.000 C 
ATOM      8  C   UNL     1       1.330   6.127  21.015  0.00  0.00    +0.000 C 
ATOM      9  C   UNL     1       3.280   5.625  19.513  0.00  0.00    +0.000 C 
ATOM     10  O   UNL     1       3.526   6.806  19.269  0.00  0.00    +0.000 OA
ATOM     11  H   UNL     1       2.801   2.001  20.560  0.00  0.00    +0.000 HD
ENDROOT
BRANCH   1  15
ATOM     12  C   UNL     1       6.879   5.394  15.956  0.00  0.00    +0.000 A 
ATOM     13  C   UNL     1       5.538   5.196  15.630  0.00  0.00    +0.000 A 
ATOM     14  C   UNL     1       4.592   4.957  16.630  0.00  0.00    +0.000 A 
ATOM     15  C   UNL     1       4.987   4.860  17.971  0.00  0.00    +0.000 A 
ATOM     16  C   UNL     1       6.339   5.035  18.290  0.00  0.00    +0.000 A 
ATOM     17  C   UNL     1       7.278   5.316  17.290  0.00  0.00    +0.000 A 
BRANCH  12  19
ATOM     18  C   UNL     1       7.373   4.915  13.698  0.00  0.00    +0.000 C 
ATOM     19  O   UNL     1       7.706   5.614  14.891  0.00  0.00    +0.000 OA
ENDBRANCH  12  19
ENDBRANCH   1  15
BRANCH   8  20
ATOM     20  C   UNL     1       1.261   7.571  20.783  0.00  0.00    +0.000 A 
ATOM     21  C   UNL     1       1.178   8.071  19.482  0.00  0.00    +0.000 A 
ATOM     22  C   UNL     1       1.057   9.448  19.263  0.00  0.00    +0.000 A 
ATOM     23  C   UNL     1       1.018  10.366  20.321  0.00  0.00    +0.000 A 
ATOM     24  C   UNL     1       1.132   9.841  21.619  0.00  0.00    +0.000 A 
ATOM     25  C   UNL     1       1.244   8.464  21.853  0.00  0.00    +0.000 A 
BRANCH  23  26
ATOM     26  N   UNL     1       0.833  11.721  20.125  0.00  0.00    +0.000 N 
ATOM     27  C   UNL     1      -0.497  12.320  19.929  0.00  0.00    +0.000 C 
ATOM     28  C   UNL     1      -0.640  12.863  18.503  0.00  0.00    +0.000 C 
ATOM     29  O   UNL     1       0.418  13.785  18.185  0.00  0.00    +0.000 OA
ATOM     30  C   UNL     1       1.692  13.126  18.284  0.00  0.00    +0.000 C 
ATOM     31  C   UNL     1       1.951  12.579  19.700  0.00  0.00    +0.000 C 
ENDBRANCH  23  26
ENDBRANCH   8  20
TORSDOF 4
ENDMDL
MODEL 4
REMARK VINA RESULT:      -8.2      0.514      1.048
REMARK  Name = 
REMARK  5 active torsions:
REMARK  status: ('A' for Active; 'I' for Inactive)
REMARK    1  A    between atoms: C_1  and  O_2
REMARK    2  A    between atoms: O_2  and  C_3
REMARK    3  A    between atoms: C_6  and  N_7
REMARK    4  A    between atoms: C_14  and  C_15
REMARK    5  A    between atoms: C_18  and  N_19
REMARK                            x       y       z     vdW  Elec       q    Type
REMARK                         _______ _______ _______ _____ _____    ______ ____
ROOT
ATOM      1  N   UNL     1       4.262   4.311  19.161  0.00  0.00    +0.000 N 
ATOM      2  C   UNL     1       4.225   3.032  19.706  0.00  0.00    +0.000 C 
ATOM      3  O   UNL     1       4.896   2.071  19.331  0.00  0.00    +0.000 OA
ATOM      4  N   UNL     1       3.322   2.815  20.705  0.00  0.00    +0.000 N 
ATOM      5  C   UNL     1       2.363   3.664  21.159  0.00  0.00    +0.000 C 
ATOM      6  O   UNL     1       1.511   3.285  21.956  0.00  0.00    +0.000 OA
ATOM      7  C   UNL     1       2.431   5.033  20.612  0.00  0.00    +0.000 C 
ATOM      8  C   UNL     1       1.519   5.905  21.092  0.00  0.00    +0.000 C 
ATOM      9  C   UNL     1       3.465   5.375  19.595  0.00  0.00    +0.000 C 
ATOM     10  O   UNL     1       3.623   6.536  19.219  0.00  0.00    +0.000 OA
ATOM     11  H   UNL     1       3.264   1.861  21.035  0.00  0.00    +0.000 HD
ENDROOT
BRANCH   1  15
ATOM     12  C   UNL     1       6.994   5.000  15.980  0.00  0.00    +0.000 A 
ATOM     13  C   UNL     1       5.683   4.606  15.717  0.00  0.00    +0.000 A 
ATOM     14  C   UNL     1       4.776   4.415  16.761  0.00  0.00    +0.000 A 
ATOM     15  C   UNL     1       5.186   4.563  18.093  0.00  0.00    +0.000 A 
ATOM     16  C   UNL     1       6.512   4.934  18.352  0.00  0.00    +0.000 A 
ATOM     17  C   UNL     1       7.407   5.167  17.301  0.00  0.00    +0.000 A 
BRANCH  12  19
ATOM     18  C   UNL     1       7.157   4.885  13.628  0.00  0.00    +0.000 C 
ATOM     19  O   UNL     1       7.785   5.150  14.876  0.00  0.00    +0.000 OA
ENDBRANCH  12  19
ENDBRANCH   1  15
BRANCH   8  20
ATOM     20  C   UNL     1       1.344   7.307  20.709  0.00  0.00    +0.000 A 
ATOM     21  C   UNL     1       1.135   8.281  21.687  0.00  0.00    +0.000 A 
ATOM     22  C   UNL     1       1.022   9.629  21.326  0.00  0.00    +0.000 A 
ATOM     23  C   UNL     1       1.110  10.048  19.992  0.00  0.00    +0.000 A 
ATOM     24  C   UNL     1       1.293   9.046  19.025  0.00  0.00    +0.000 A 
ATOM     25  C   UNL     1       1.417   7.695  19.373  0.00  0.00    +0.000 A 
BRANCH  23  26
ATOM     26  N   UNL     1       1.067  11.380  19.626  0.00  0.00    +0.000 N 
ATOM     27  C   UNL     1       1.420  11.843  18.275  0.00  0.00    +0.000 C 
ATOM     28  C   UNL     1       2.706  12.676  18.308  0.00  0.00    +0.000 C 
ATOM     29  O   UNL     1       2.599  13.766  19.240  0.00  0.00    +0.000 OA
ATOM     30  C   UNL     1       2.363  13.261  20.565  0.00  0.00    +0.000 C 
ATOM     31  C   UNL     1       1.063  12.440  20.647  0.00  0.00    +0.000 C 
ENDBRANCH  23  26
ENDBRANCH   8  20
TORSDOF 4
ENDMDL
MODEL 5
REMARK VINA RESULT:      -8.2      2.561      9.000
REMARK  Name = 
REMARK  5 active torsions:
REMARK  status: ('A' for Active; 'I' for Inactive)
REMARK    1  A    between atoms: C_1  and  O_2
REMARK    2  A    between atoms: O_2  and  C_3
REMARK    3  A    between atoms: C_6  and  N_7
REMARK    4  A    between atoms: C_14  and  C_15
REMARK    5  A    between atoms: C_18  and  N_19
REMARK                            x       y       z     vdW  Elec       q    Type
REMARK                         _______ _______ _______ _____ _____    ______ ____
ROOT
ATOM      1  N   UNL     1       1.501  13.916  18.978  0.00  0.00    +0.000 N 
ATOM      2  C   UNL     1       0.425  14.797  19.021  0.00  0.00    +0.000 C 
ATOM      3  O   UNL     1       0.502  16.023  19.101  0.00  0.00    +0.000 OA
ATOM      4  N   UNL     1      -0.823  14.244  19.036  0.00  0.00    +0.000 N 
ATOM      5  C   UNL     1      -1.149  12.929  19.134  0.00  0.00    +0.000 C 
ATOM      6  O   UNL     1      -2.313  12.579  19.297  0.00  0.00    +0.000 OA
ATOM      7  C   UNL     1      -0.009  11.994  19.044  0.00  0.00    +0.000 C 
ATOM      8  C   UNL     1      -0.320  10.682  19.086  0.00  0.00    +0.000 C 
ATOM      9  C   UNL     1       1.377  12.526  18.915  0.00  0.00    +0.000 C 
ATOM     10  O   UNL     1       2.327  11.770  18.711  0.00  0.00    +0.000 OA
ATOM     11  H   UNL     1      -1.585  14.901  19.140  0.00  0.00    +0.000 HD
ENDROOT
BRANCH   1  15
ATOM     12  C   UNL     1       5.403  15.598  19.030  0.00  0.00    +0.000 A 
ATOM     13  C   UNL     1       4.764  15.250  20.219  0.00  0.00    +0.000 A 
ATOM     14  C   UNL     1       3.497  14.664  20.199  0.00  0.00    +0.000 A 
ATOM     15  C   UNL     1       2.825  14.468  18.985  0.00  0.00    +0.000 A 
ATOM     16  C   UNL     1       3.461  14.844  17.795  0.00  0.00    +0.000 A 
ATOM     17  C   UNL     1       4.750  15.391  17.815  0.00  0.00    +0.000 A 
BRANCH  12  19
ATOM     18  C   UNL     1       7.601  15.815  18.196  0.00  0.00    +0.000 C 
ATOM     19  O   UNL     1       6.636  16.166  19.181  0.00  0.00    +0.000 OA
ENDBRANCH  12  19
ENDBRANCH   1  15
BRANCH   8  20
ATOM     20  C   UNL     1       0.605   9.549  19.042  0.00  0.00    +0.000 A 
ATOM     21  C   UNL     1       1.154   9.136  17.826  0.00  0.00    +0.000 A 
ATOM     22  C   UNL     1       2.081   8.088  17.791  0.00  0.00    +0.000 A 
ATOM     23  C   UNL     1       2.486   7.419  18.953  0.00  0.00    +0.000 A 
ATOM     24  C   UNL     1       1.899   7.833  20.160  0.00  0.00    +0.000 A 
ATOM     25  C   UNL     1       0.978   8.887  20.211  0.00  0.00    +0.000 A 
BRANCH  23  26
ATOM     26  N   UNL     1       3.448   6.427  18.944  0.00  0.00    +0.000 N 
ATOM     27  C   UNL     1       4.367   6.222  17.812  0.00  0.00    +0.000 C 
ATOM     28  C   UNL     1       4.072   4.892  17.110  0.00  0.00    +0.000 C 
ATOM     29  O   UNL     1       4.106   3.793  18.037  0.00  0.00    +0.000 OA
ATOM     30  C   UNL     1       3.118   3.981  19.064  0.00  0.00    +0.000 C 
ATOM     31  C   UNL     1       3.353   5.279  19.860  0.00  0.00    +0.000 C 
ENDBRANCH  23  26
ENDBRANCH   8  20
TORSDOF 4
ENDMDL
MODEL 6
REMARK VINA RESULT:      -8.2      0.544      1.361
REMARK  Name = 
REMARK  5 active torsions:
REMARK  status: ('A' for Active; 'I' for Inactive)
REMARK    1  A    between atoms: C_1  and  O_2
REMARK    2  A    between atoms: O_2  and  C_3
REMARK    3  A    between atoms: C_6  and  N_7
REMARK    4  A    between atoms: C_14  and  C_15
REMARK    5  A    between atoms: C_18  and  N_19
REMARK                            x       y       z     vdW  Elec       q    Type
REMARK                         _______ _______ _______ _____ _____    ______ ____
ROOT
ATOM      1  N   UNL     1       4.286   4.143  19.032  0.00  0.00    +0.000 N 
ATOM      2  C   UNL     1       4.284   2.928  19.708  0.00  0.00    +0.000 C 
ATOM      3  O   UNL     1       4.953   1.938  19.413  0.00  0.00    +0.000 OA
ATOM      4  N   UNL     1       3.418   2.809  20.757  0.00  0.00    +0.000 N 
ATOM      5  C   UNL     1       2.466   3.693  21.153  0.00  0.00    +0.000 C 
ATOM      6  O   UNL     1       1.646   3.392  22.015  0.00  0.00    +0.000 OA
ATOM      7  C   UNL     1       2.498   4.998  20.463  0.00  0.00    +0.000 C 
ATOM      8  C   UNL     1       1.593   5.907  20.881  0.00  0.00    +0.000 C 
ATOM      9  C   UNL     1       3.492   5.239  19.380  0.00  0.00    +0.000 C 
ATOM     10  O   UNL     1       3.623   6.355  18.878  0.00  0.00    +0.000 OA
ATOM     11  H   UNL     1       3.383   1.895  21.187  0.00  0.00    +0.000 HD
ENDROOT
BRANCH   1  15
ATOM     12  C   UNL     1       6.910   4.633  15.725  0.00  0.00    +0.000 A 
ATOM     13  C   UNL     1       7.353   4.875  17.024  0.00  0.00    +0.000 A 
ATOM     14  C   UNL     1       6.501   4.679  18.113  0.00  0.00    +0.000 A 
ATOM     15  C   UNL     1       5.170   4.288  17.911  0.00  0.00    +0.000 A 
ATOM     16  C   UNL     1       4.723   4.071  16.601  0.00  0.00    +0.000 A 
ATOM     17  C   UNL     1       5.592   4.227  15.514  0.00  0.00    +0.000 A 
BRANCH  12  19
ATOM     18  C   UNL     1       7.337   4.856  13.413  0.00  0.00    +0.000 C 
ATOM     19  O   UNL     1       7.835   4.864  14.746  0.00  0.00    +0.000 OA
ENDBRANCH  12  19
ENDBRANCH   1  15
BRANCH   8  20
ATOM     20  C   UNL     1       1.388   7.259  20.360  0.00  0.00    +0.000 A 
ATOM     21  C   UNL     1       1.119   8.316  21.233  0.00  0.00    +0.000 A 
ATOM     22  C   UNL     1       0.977   9.618  20.741  0.00  0.00    +0.000 A 
ATOM     23  C   UNL     1       1.094   9.910  19.376  0.00  0.00    +0.000 A 
ATOM     24  C   UNL     1       1.336   8.827  18.515  0.00  0.00    +0.000 A 
ATOM     25  C   UNL     1       1.490   7.520  18.995  0.00  0.00    +0.000 A 
BRANCH  23  26
ATOM     26  N   UNL     1       1.022  11.199  18.881  0.00  0.00    +0.000 N 
ATOM     27  C   UNL     1       2.216  11.976  18.516  0.00  0.00    +0.000 C 
ATOM     28  C   UNL     1       2.403  13.162  19.470  0.00  0.00    +0.000 C 
ATOM     29  O   UNL     1       1.223  13.981  19.522  0.00  0.00    +0.000 OA
ATOM     30  C   UNL     1       0.104  13.207  19.989  0.00  0.00    +0.000 C 
ATOM     31  C   UNL     1      -0.193  12.009  19.068  0.00  0.00    +0.000 C 
ENDBRANCH  23  26
ENDBRANCH   8  20
TORSDOF 4
ENDMDL
MODEL 7
REMARK VINA RESULT:      -8.1      0.638      1.236
REMARK  Name = 
REMARK  5 active torsions:
REMARK  status: ('A' for Active; 'I' for Inactive)
REMARK    1  A    between atoms: C_1  and  O_2
REMARK    2  A    between atoms: O_2  and  C_3
REMARK    3  A    between atoms: C_6  and  N_7
REMARK    4  A    between atoms: C_14  and  C_15
REMARK    5  A    between atoms: C_18  and  N_19
REMARK                            x       y       z     vdW  Elec       q    Type
REMARK                         _______ _______ _______ _____ _____    ______ ____
ROOT
ATOM      1  N   UNL     1       4.212   4.330  19.093  0.00  0.00    +0.000 N 
ATOM      2  C   UNL     1       4.175   3.049  19.635  0.00  0.00    +0.000 C 
ATOM      3  O   UNL     1       4.839   2.086  19.252  0.00  0.00    +0.000 OA
ATOM      4  N   UNL     1       3.279   2.832  20.641  0.00  0.00    +0.000 N 
ATOM      5  C   UNL     1       2.328   3.684  21.106  0.00  0.00    +0.000 C 
ATOM      6  O   UNL     1       1.481   3.306  21.909  0.00  0.00    +0.000 OA
ATOM      7  C   UNL     1       2.397   5.055  20.562  0.00  0.00    +0.000 C 
ATOM      8  C   UNL     1       1.493   5.929  21.051  0.00  0.00    +0.000 C 
ATOM      9  C   UNL     1       3.423   5.395  19.537  0.00  0.00    +0.000 C 
ATOM     10  O   UNL     1       3.583   6.556  19.162  0.00  0.00    +0.000 OA
ATOM     11  H   UNL     1       3.220   1.878  20.969  0.00  0.00    +0.000 HD
ENDROOT
BRANCH   1  15
ATOM     12  C   UNL     1       6.917   5.017  15.888  0.00  0.00    +0.000 A 
ATOM     13  C   UNL     1       5.585   4.689  15.635  0.00  0.00    +0.000 A 
ATOM     14  C   UNL     1       4.689   4.498  16.689  0.00  0.00    +0.000 A 
ATOM     15  C   UNL     1       5.128   4.580  18.018  0.00  0.00    +0.000 A 
ATOM     16  C   UNL     1       6.473   4.885  18.265  0.00  0.00    +0.000 A 
ATOM     17  C   UNL     1       7.359   5.118  17.207  0.00  0.00    +0.000 A 
BRANCH  12  19
ATOM     18  C   UNL     1       7.082   4.820  13.541  0.00  0.00    +0.000 C 
ATOM     19  O   UNL     1       7.695   5.173  14.776  0.00  0.00    +0.000 OA
ENDBRANCH  12  19
ENDBRANCH   1  15
BRANCH   8  20
ATOM     20  C   UNL     1       1.320   7.332  20.675  0.00  0.00    +0.000 A 
ATOM     21  C   UNL     1       1.089   8.300  21.654  0.00  0.00    +0.000 A 
ATOM     22  C   UNL     1       0.978   9.650  21.299  0.00  0.00    +0.000 A 
ATOM     23  C   UNL     1       1.090  10.077  19.970  0.00  0.00    +0.000 A 
ATOM     24  C   UNL     1       1.294   9.082  19.000  0.00  0.00    +0.000 A 
ATOM     25  C   UNL     1       1.416   7.729  19.342  0.00  0.00    +0.000 A 
BRANCH  23  26
ATOM     26  N   UNL     1       1.049  11.411  19.611  0.00  0.00    +0.000 N 
ATOM     27  C   UNL     1       1.727  12.463  20.385  0.00  0.00    +0.000 C 
ATOM     28  C   UNL     1       0.704  13.391  21.048  0.00  0.00    +0.000 C 
ATOM     29  O   UNL     1      -0.209  13.939  20.081  0.00  0.00    +0.000 OA
ATOM     30  C   UNL     1      -0.929  12.880  19.427  0.00  0.00    +0.000 C 
ATOM     31  C   UNL     1       0.015  11.910  18.690  0.00  0.00    +0.000 C 
ENDBRANCH  23  26
ENDBRANCH   8  20
TORSDOF 4
ENDMDL
MODEL 8
REMARK VINA RESULT:      -7.8      2.506      8.967
REMARK  Name = 
REMARK  5 active torsions:
REMARK  status: ('A' for Active; 'I' for Inactive)
REMARK    1  A    between atoms: C_1  and  O_2
REMARK    2  A    between atoms: O_2  and  C_3
REMARK    3  A    between atoms: C_6  and  N_7
REMARK    4  A    between atoms: C_14  and  C_15
REMARK    5  A    between atoms: C_18  and  N_19
REMARK                            x       y       z     vdW  Elec       q    Type
REMARK                         _______ _______ _______ _____ _____    ______ ____
ROOT
ATOM      1  N   UNL     1       1.501  13.810  19.464  0.00  0.00    +0.000 N 
ATOM      2  C   UNL     1       0.452  14.621  19.883  0.00  0.00    +0.000 C 
ATOM      3  O   UNL     1       0.510  15.839  20.058  0.00  0.00    +0.000 OA
ATOM      4  N   UNL     1      -0.726  14.001  20.181  0.00  0.00    +0.000 N 
ATOM      5  C   UNL     1      -0.972  12.666  20.234  0.00  0.00    +0.000 C 
ATOM      6  O   UNL     1      -2.036  12.238  20.672  0.00  0.00    +0.000 OA
ATOM      7  C   UNL     1       0.126  11.807  19.748  0.00  0.00    +0.000 C 
ATOM      8  C   UNL     1      -0.121  10.481  19.744  0.00  0.00    +0.000 C 
ATOM      9  C   UNL     1       1.406  12.425  19.301  0.00  0.00    +0.000 C 
ATOM     10  O   UNL     1       2.287  11.744  18.775  0.00  0.00    +0.000 OA
ATOM     11  H   UNL     1      -1.450  14.602  20.552  0.00  0.00    +0.000 HD
ENDROOT
BRANCH   1  15
ATOM     12  C   UNL     1       5.214  15.696  18.622  0.00  0.00    +0.000 A 
ATOM     13  C   UNL     1       4.941  15.205  19.898  0.00  0.00    +0.000 A 
ATOM     14  C   UNL     1       3.735  14.554  20.164  0.00  0.00    +0.000 A 
ATOM     15  C   UNL     1       2.758  14.432  19.166  0.00  0.00    +0.000 A 
ATOM     16  C   UNL     1       3.028  14.951  17.893  0.00  0.00    +0.000 A 
ATOM     17  C   UNL     1       4.256  15.565  17.617  0.00  0.00    +0.000 A 
BRANCH  12  19
ATOM     18  C   UNL     1       7.500  15.485  18.070  0.00  0.00    +0.000 C 
ATOM     19  O   UNL     1       6.424  16.317  18.489  0.00  0.00    +0.000 OA
ENDBRANCH  12  19
ENDBRANCH   1  15
BRANCH   8  20
ATOM     20  C   UNL     1       0.790   9.409  19.340  0.00  0.00    +0.000 A 
ATOM     21  C   UNL     1       1.332   8.548  20.297  0.00  0.00    +0.000 A 
ATOM     22  C   UNL     1       2.160   7.490  19.905  0.00  0.00    +0.000 A 
ATOM     23  C   UNL     1       2.476   7.257  18.560  0.00  0.00    +0.000 A 
ATOM     24  C   UNL     1       1.943   8.153  17.619  0.00  0.00    +0.000 A 
ATOM     25  C   UNL     1       1.105   9.210  17.997  0.00  0.00    +0.000 A 
BRANCH  23  26
ATOM     26  N   UNL     1       3.238   6.179  18.151  0.00  0.00    +0.000 N 
ATOM     27  C   UNL     1       2.720   4.802  18.135  0.00  0.00    +0.000 C 
ATOM     28  C   UNL     1       3.436   3.943  19.183  0.00  0.00    +0.000 C 
ATOM     29  O   UNL     1       4.863   3.983  19.007  0.00  0.00    +0.000 OA
ATOM     30  C   UNL     1       5.339   5.334  19.139  0.00  0.00    +0.000 C 
ATOM     31  C   UNL     1       4.706   6.273  18.095  0.00  0.00    +0.000 C 
ENDBRANCH  23  26
ENDBRANCH   8  20
TORSDOF 4
ENDMDL
MODEL 9
REMARK VINA RESULT:      -7.8      2.550      8.888
REMARK  Name = 
REMARK  5 active torsions:
REMARK  status: ('A' for Active; 'I' for Inactive)
REMARK    1  A    between atoms: C_1  and  O_2
REMARK    2  A    between atoms: O_2  and  C_3
REMARK    3  A    between atoms: C_6  and  N_7
REMARK    4  A    between atoms: C_14  and  C_15
REMARK    5  A    between atoms: C_18  and  N_19
REMARK                            x       y       z     vdW  Elec       q    Type
REMARK                         _______ _______ _______ _____ _____    ______ ____
ROOT
ATOM      1  N   UNL     1       1.422  13.735  19.112  0.00  0.00    +0.000 N 
ATOM      2  C   UNL     1       0.287  14.511  19.326  0.00  0.00    +0.000 C 
ATOM      3  O   UNL     1       0.270  15.731  19.490  0.00  0.00    +0.000 OA
ATOM      4  N   UNL     1      -0.903  13.849  19.419  0.00  0.00    +0.000 N 
ATOM      5  C   UNL     1      -1.107  12.506  19.447  0.00  0.00    +0.000 C 
ATOM      6  O   UNL     1      -2.216  12.043  19.694  0.00  0.00    +0.000 OA
ATOM      7  C   UNL     1       0.090  11.685  19.177  0.00  0.00    +0.000 C 
ATOM      8  C   UNL     1      -0.106  10.351  19.149  0.00  0.00    +0.000 C 
ATOM      9  C   UNL     1       1.407  12.346  18.956  0.00  0.00    +0.000 C 
ATOM     10  O   UNL     1       2.390  11.694  18.605  0.00  0.00    +0.000 OA
ATOM     11  H   UNL     1      -1.701  14.426  19.645  0.00  0.00    +0.000 HD
ENDROOT
BRANCH   1  15
ATOM     12  C   UNL     1       5.197  15.667  18.842  0.00  0.00    +0.000 A 
ATOM     13  C   UNL     1       4.401  15.504  17.709  0.00  0.00    +0.000 A 
ATOM     14  C   UNL     1       3.145  14.900  17.806  0.00  0.00    +0.000 A 
ATOM     15  C   UNL     1       2.690  14.402  19.034  0.00  0.00    +0.000 A 
ATOM     16  C   UNL     1       3.505  14.546  20.163  0.00  0.00    +0.000 A 
ATOM     17  C   UNL     1       4.745  15.190  20.072  0.00  0.00    +0.000 A 
BRANCH  12  19
ATOM     18  C   UNL     1       7.390  15.452  17.996  0.00  0.00    +0.000 C 
ATOM     19  O   UNL     1       6.404  16.267  18.618  0.00  0.00    +0.000 OA
ENDBRANCH  12  19
ENDBRANCH   1  15
BRANCH   8  20
ATOM     20  C   UNL     1       0.900   9.311  18.930  0.00  0.00    +0.000 A 
ATOM     21  C   UNL     1       1.319   8.503  19.989  0.00  0.00    +0.000 A 
ATOM     22  C   UNL     1       2.241   7.473  19.768  0.00  0.00    +0.000 A 
ATOM     23  C   UNL     1       2.774   7.216  18.499  0.00  0.00    +0.000 A 
ATOM     24  C   UNL     1       2.358   8.059  17.455  0.00  0.00    +0.000 A 
ATOM     25  C   UNL     1       1.430   9.088  17.660  0.00  0.00    +0.000 A 
BRANCH  23  26
ATOM     26  N   UNL     1       3.633   6.162  18.252  0.00  0.00    +0.000 N 
ATOM     27  C   UNL     1       4.203   5.334  19.326  0.00  0.00    +0.000 C 
ATOM     28  C   UNL     1       5.716   5.553  19.432  0.00  0.00    +0.000 C 
ATOM     29  O   UNL     1       6.368   5.323  18.171  0.00  0.00    +0.000 OA
ATOM     30  C   UNL     1       5.857   6.228  17.178  0.00  0.00    +0.000 C 
ATOM     31  C   UNL     1       4.341   6.056  16.966  0.00  0.00    +0.000 C 
ENDBRANCH  23  26
ENDBRANCH   8  20
TORSDOF 4
ENDMDL
