MODEL 1
REMARK VINA RESULT:      -7.7      0.000      0.000
REMARK  Name = 
REMARK  11 active torsions:
REMARK  status: ('A' for Active; 'I' for Inactive)
REMARK    1  A    between atoms: C_1  and  C_2
REMARK    2  A    between atoms: C_5  and  N_6
REMARK    3  A    between atoms: N_6  and  C_23
REMARK    4  A    between atoms: C_7  and  O_9
REMARK    5  A    between atoms: O_9  and  C_10
REMARK    6  A    between atoms: C_10  and  C_11
REMARK    7  A    between atoms: C_14  and  C_15
REMARK    8  A    between atoms: C_15  and  O_16
REMARK    9  A    between atoms: O_16  and  C_17
REMARK   10  A    between atoms: C_17  and  C_18
REMARK   11  A    between atoms: C_18  and  O_20
REMARK                            x       y       z     vdW  Elec       q    Type
REMARK                         _______ _______ _______ _____ _____    ______ ____
ROOT
ATOM      1  N   UNL     1       3.570   6.300  18.014  0.00  0.00    +0.000 N 
ATOM      2  C   UNL     1       2.987   7.569  17.781  0.00  0.00    +0.000 C 
ATOM      3  O   UNL     1       3.176   8.243  16.771  0.00  0.00    +0.000 OA
ENDROOT
BRANCH   1   8
ATOM      4  C   UNL     1       1.084   2.483  21.573  0.00  0.00    +0.000 C 
ATOM      5  C   UNL     1       1.736   3.474  20.648  0.00  0.00    +0.000 A 
ATOM      6  C   UNL     1       2.811   4.264  21.075  0.00  0.00    +0.000 A 
ATOM      7  C   UNL     1       3.438   5.166  20.198  0.00  0.00    +0.000 A 
ATOM      8  C   UNL     1       2.977   5.326  18.886  0.00  0.00    +0.000 A 
ATOM      9  C   UNL     1       1.873   4.559  18.475  0.00  0.00    +0.000 A 
ATOM     10  C   UNL     1       1.265   3.639  19.342  0.00  0.00    +0.000 A 
ENDBRANCH   1   8
BRANCH   1  11
ATOM     11  C   UNL     1       4.733   5.896  17.252  0.00  0.00    +0.000 A 
ATOM     12  C   UNL     1       5.999   6.445  17.542  0.00  0.00    +0.000 A 
ATOM     13  C   UNL     1       7.139   6.109  16.805  0.00  0.00    +0.000 A 
ATOM     14  C   UNL     1       7.043   5.202  15.758  0.00  0.00    +0.000 A 
ATOM     15  C   UNL     1       5.808   4.643  15.463  0.00  0.00    +0.000 A 
ATOM     16  F   UNL     1       5.711   3.777  14.446  0.00  0.00    +0.000 F 
ATOM     17  C   UNL     1       4.663   4.977  16.190  0.00  0.00    +0.000 A 
ENDBRANCH   1  11
BRANCH   2  18
ATOM     18  O   UNL     1       2.245   8.064  18.823  0.00  0.00    +0.000 OA
BRANCH  18  19
ATOM     19  C   UNL     1       1.496   9.288  18.553  0.00  0.00    +0.000 C 
BRANCH  19  20
ATOM     20  C   UNL     1       0.397   9.544  19.620  0.00  0.00    +0.000 C 
ATOM     21  C   UNL     1       0.695   8.885  20.992  0.00  0.00    +0.000 C 
ATOM     22  C   UNL     1      -0.313   9.285  22.096  0.00  0.00    +0.000 C 
ATOM     23  C   UNL     1      -0.451  10.812  22.215  0.00  0.00    +0.000 C 
ATOM     24  C   UNL     1      -0.834  11.392  20.850  0.00  0.00    +0.000 C 
ATOM     25  C   UNL     1       0.210  11.056  19.796  0.00  0.00    +0.000 C 
BRANCH  23  26
ATOM     26  C   UNL     1      -1.470  11.282  23.266  0.00  0.00    +0.000 C 
BRANCH  26  27
ATOM     27  O   UNL     1      -2.534  12.021  22.662  0.00  0.00    +0.000 OA
BRANCH  27  28
ATOM     28  C   UNL     1      -2.814  13.214  23.423  0.00  0.00    +0.000 C 
BRANCH  28  29
ATOM     29  C   UNL     1      -4.092  13.003  24.226  0.00  0.00    +0.000 C 
ATOM     30  O   UNL     1      -4.573  11.904  24.483  0.00  0.00    +0.000 OA
BRANCH  29  31
ATOM     31  O   UNL     1      -4.647  14.175  24.611  0.00  0.00    +0.000 OA
ATOM     32  H   UNL     1      -5.227  13.982  25.386  0.00  0.00    +0.000 HD
ENDBRANCH  29  31
ENDBRANCH  28  29
ENDBRANCH  27  28
ENDBRANCH  26  27
ENDBRANCH  23  26
ENDBRANCH  19  20
ENDBRANCH  18  19
ENDBRANCH   2  18
TORSDOF 10
ENDMDL
MODEL 2
REMARK VINA RESULT:      -7.4      3.822      9.455
REMARK  Name = 
REMARK  11 active torsions:
REMARK  status: ('A' for Active; 'I' for Inactive)
REMARK    1  A    between atoms: C_1  and  C_2
REMARK    2  A    between atoms: C_5  and  N_6
REMARK    3  A    between atoms: N_6  and  C_23
REMARK    4  A    between atoms: C_7  and  O_9
REMARK    5  A    between atoms: O_9  and  C_10
REMARK    6  A    between atoms: C_10  and  C_11
REMARK    7  A    between atoms: C_14  and  C_15
REMARK    8  A    between atoms: C_15  and  O_16
REMARK    9  A    between atoms: O_16  and  C_17
REMARK   10  A    between atoms: C_17  and  C_18
REMARK   11  A    between atoms: C_18  and  O_20
REMARK                            x       y       z     vdW  Elec       q    Type
REMARK                         _______ _______ _______ _____ _____    ______ ____
ROOT
ATOM      1  N   UNL     1       0.186  11.249  19.722  0.00  0.00    +0.000 N 
ATOM      2  C   UNL     1       0.498  10.331  20.753  0.00  0.00    +0.000 C 
ATOM      3  O   UNL     1       1.137  10.615  21.764  0.00  0.00    +0.000 OA
ENDROOT
BRANCH   1   8
ATOM      4  C   UNL     1      -4.298  10.672  16.120  0.00  0.00    +0.000 C 
ATOM      5  C   UNL     1      -3.135  10.822  17.062  0.00  0.00    +0.000 A 
ATOM      6  C   UNL     1      -3.188  11.710  18.143  0.00  0.00    +0.000 A 
ATOM      7  C   UNL     1      -2.111  11.824  19.039  0.00  0.00    +0.000 A 
ATOM      8  C   UNL     1      -0.941  11.079  18.850  0.00  0.00    +0.000 A 
ATOM      9  C   UNL     1      -0.878  10.217  17.741  0.00  0.00    +0.000 A 
ATOM     10  C   UNL     1      -1.963  10.084  16.862  0.00  0.00    +0.000 A 
ENDBRANCH   1   8
BRANCH   1  11
ATOM     11  C   UNL     1       0.938  12.482  19.610  0.00  0.00    +0.000 A 
ATOM     12  C   UNL     1       0.516  13.638  20.297  0.00  0.00    +0.000 A 
ATOM     13  C   UNL     1       1.194  14.856  20.184  0.00  0.00    +0.000 A 
ATOM     14  C   UNL     1       2.324  14.948  19.383  0.00  0.00    +0.000 A 
ATOM     15  C   UNL     1       2.762  13.818  18.707  0.00  0.00    +0.000 A 
ATOM     16  F   UNL     1       3.846  13.906  17.925  0.00  0.00    +0.000 F 
ATOM     17  C   UNL     1       2.089  12.598  18.809  0.00  0.00    +0.000 A 
ENDBRANCH   1  11
BRANCH   2  18
ATOM     18  O   UNL     1       0.112   9.037  20.510  0.00  0.00    +0.000 OA
BRANCH  18  19
ATOM     19  C   UNL     1       0.808   8.006  21.275  0.00  0.00    +0.000 C 
BRANCH  19  20
ATOM     20  C   UNL     1       2.003   7.405  20.486  0.00  0.00    +0.000 C 
ATOM     21  C   UNL     1       2.039   5.855  20.493  0.00  0.00    +0.000 C 
ATOM     22  C   UNL     1       3.128   5.262  19.567  0.00  0.00    +0.000 C 
ATOM     23  C   UNL     1       3.027   5.823  18.138  0.00  0.00    +0.000 C 
ATOM     24  C   UNL     1       3.089   7.352  18.192  0.00  0.00    +0.000 C 
ATOM     25  C   UNL     1       1.962   7.920  19.042  0.00  0.00    +0.000 C 
BRANCH  23  26
ATOM     26  C   UNL     1       4.107   5.308  17.172  0.00  0.00    +0.000 C 
BRANCH  26  27
ATOM     27  O   UNL     1       5.113   4.566  17.866  0.00  0.00    +0.000 OA
BRANCH  27  28
ATOM     28  C   UNL     1       6.340   5.321  17.929  0.00  0.00    +0.000 C 
BRANCH  28  29
ATOM     29  C   UNL     1       7.376   4.661  17.027  0.00  0.00    +0.000 C 
ATOM     30  O   UNL     1       7.348   4.700  15.800  0.00  0.00    +0.000 OA
BRANCH  29  31
ATOM     31  O   UNL     1       8.326   4.013  17.737  0.00  0.00    +0.000 OA
ATOM     32  H   UNL     1       8.582   4.601  18.488  0.00  0.00    +0.000 HD
ENDBRANCH  29  31
ENDBRANCH  28  29
ENDBRANCH  27  28
ENDBRANCH  26  27
ENDBRANCH  23  26
ENDBRANCH  19  20
ENDBRANCH  18  19
ENDBRANCH   2  18
TORSDOF 10
ENDMDL
MODEL 3
REMARK VINA RESULT:      -7.4      0.870      1.108
REMARK  Name = 
REMARK  11 active torsions:
REMARK  status: ('A' for Active; 'I' for Inactive)
REMARK    1  A    between atoms: C_1  and  C_2
REMARK    2  A    between atoms: C_5  and  N_6
REMARK    3  A    between atoms: N_6  and  C_23
REMARK    4  A    between atoms: C_7  and  O_9
REMARK    5  A    between atoms: O_9  and  C_10
REMARK    6  A    between atoms: C_10  and  C_11
REMARK    7  A    between atoms: C_14  and  C_15
REMARK    8  A    between atoms: C_15  and  O_16
REMARK    9  A    between atoms: O_16  and  C_17
REMARK   10  A    between atoms: C_17  and  C_18
REMARK   11  A    between atoms: C_18  and  O_20
REMARK                            x       y       z     vdW  Elec       q    Type
REMARK                         _______ _______ _______ _____ _____    ______ ____
ROOT
ATOM      1  N   UNL     1       3.624   6.356  18.061  0.00  0.00    +0.000 N 
ATOM      2  C   UNL     1       3.065   7.638  17.837  0.00  0.00    +0.000 C 
ATOM      3  O   UNL     1       3.294   8.331  16.849  0.00  0.00    +0.000 OA
ENDROOT
BRANCH   1   8
ATOM      4  C   UNL     1       0.963   2.484  21.427  0.00  0.00    +0.000 C 
ATOM      5  C   UNL     1       1.660   3.491  20.554  0.00  0.00    +0.000 A 
ATOM      6  C   UNL     1       2.519   4.452  21.101  0.00  0.00    +0.000 A 
ATOM      7  C   UNL     1       3.194   5.370  20.278  0.00  0.00    +0.000 A 
ATOM      8  C   UNL     1       2.993   5.372  18.893  0.00  0.00    +0.000 A 
ATOM      9  C   UNL     1       2.099   4.431  18.353  0.00  0.00    +0.000 A 
ATOM     10  C   UNL     1       1.447   3.496  19.172  0.00  0.00    +0.000 A 
ENDBRANCH   1   8
BRANCH   1  11
ATOM     11  C   UNL     1       4.806   5.954  17.327  0.00  0.00    +0.000 A 
ATOM     12  C   UNL     1       4.807   5.967  15.917  0.00  0.00    +0.000 A 
ATOM     13  C   UNL     1       5.916   5.551  15.173  0.00  0.00    +0.000 A 
ATOM     14  C   UNL     1       7.063   5.116  15.824  0.00  0.00    +0.000 A 
ATOM     15  C   UNL     1       7.085   5.105  17.211  0.00  0.00    +0.000 A 
ATOM     16  F   UNL     1       8.186   4.676  17.842  0.00  0.00    +0.000 F 
ATOM     17  C   UNL     1       5.981   5.515  17.963  0.00  0.00    +0.000 A 
ENDBRANCH   1  11
BRANCH   2  18
ATOM     18  O   UNL     1       2.296   8.120  18.866  0.00  0.00    +0.000 OA
BRANCH  18  19
ATOM     19  C   UNL     1       1.507   9.312  18.572  0.00  0.00    +0.000 C 
BRANCH  19  20
ATOM     20  C   UNL     1       0.396   9.549  19.631  0.00  0.00    +0.000 C 
ATOM     21  C   UNL     1       0.684   8.874  20.997  0.00  0.00    +0.000 C 
ATOM     22  C   UNL     1      -0.338   9.255  22.097  0.00  0.00    +0.000 C 
ATOM     23  C   UNL     1      -0.485  10.779  22.235  0.00  0.00    +0.000 C 
ATOM     24  C   UNL     1      -0.857  11.375  20.874  0.00  0.00    +0.000 C 
ATOM     25  C   UNL     1       0.200  11.058  19.826  0.00  0.00    +0.000 C 
BRANCH  23  26
ATOM     26  C   UNL     1      -1.516  11.230  23.282  0.00  0.00    +0.000 C 
BRANCH  26  27
ATOM     27  O   UNL     1      -2.497  12.095  22.703  0.00  0.00    +0.000 OA
BRANCH  27  28
ATOM     28  C   UNL     1      -2.786  13.193  23.593  0.00  0.00    +0.000 C 
BRANCH  28  29
ATOM     29  C   UNL     1      -4.180  13.005  24.179  0.00  0.00    +0.000 C 
ATOM     30  O   UNL     1      -4.634  11.926  24.546  0.00  0.00    +0.000 OA
BRANCH  29  31
ATOM     31  O   UNL     1      -4.867  14.168  24.234  0.00  0.00    +0.000 OA
ATOM     32  H   UNL     1      -4.740  14.540  25.140  0.00  0.00    +0.000 HD
ENDBRANCH  29  31
ENDBRANCH  28  29
ENDBRANCH  27  28
ENDBRANCH  26  27
ENDBRANCH  23  26
ENDBRANCH  19  20
ENDBRANCH  18  19
ENDBRANCH   2  18
TORSDOF 10
ENDMDL
MODEL 4
REMARK VINA RESULT:      -7.3      2.049      4.450
REMARK  Name = 
REMARK  11 active torsions:
REMARK  status: ('A' for Active; 'I' for Inactive)
REMARK    1  A    between atoms: C_1  and  C_2
REMARK    2  A    between atoms: C_5  and  N_6
REMARK    3  A    between atoms: N_6  and  C_23
REMARK    4  A    between atoms: C_7  and  O_9
REMARK    5  A    between atoms: O_9  and  C_10
REMARK    6  A    between atoms: C_10  and  C_11
REMARK    7  A    between atoms: C_14  and  C_15
REMARK    8  A    between atoms: C_15  and  O_16
REMARK    9  A    between atoms: O_16  and  C_17
REMARK   10  A    between atoms: C_17  and  C_18
REMARK   11  A    between atoms: C_18  and  O_20
REMARK                            x       y       z     vdW  Elec       q    Type
REMARK                         _______ _______ _______ _____ _____    ______ ____
ROOT
ATOM      1  N   UNL     1       2.820   6.097  19.214  0.00  0.00    +0.000 N 
ATOM      2  C   UNL     1       2.321   7.366  19.594  0.00  0.00    +0.000 C 
ATOM      3  O   UNL     1       1.620   7.567  20.584  0.00  0.00    +0.000 OA
ENDROOT
BRANCH   1   8
ATOM      4  C   UNL     1       7.553   5.311  15.991  0.00  0.00    +0.000 C 
ATOM      5  C   UNL     1       6.325   5.519  16.833  0.00  0.00    +0.000 A 
ATOM      6  C   UNL     1       6.383   5.443  18.230  0.00  0.00    +0.000 A 
ATOM      7  C   UNL     1       5.239   5.670  19.014  0.00  0.00    +0.000 A 
ATOM      8  C   UNL     1       4.003   5.939  18.416  0.00  0.00    +0.000 A 
ATOM      9  C   UNL     1       3.941   5.975  17.012  0.00  0.00    +0.000 A 
ATOM     10  C   UNL     1       5.089   5.776  16.230  0.00  0.00    +0.000 A 
ENDBRANCH   1   8
BRANCH   1  11
ATOM     11  C   UNL     1       2.209   4.898  19.749  0.00  0.00    +0.000 A 
ATOM     12  C   UNL     1       2.409   4.539  21.098  0.00  0.00    +0.000 A 
ATOM     13  C   UNL     1       1.866   3.369  21.641  0.00  0.00    +0.000 A 
ATOM     14  C   UNL     1       1.097   2.529  20.848  0.00  0.00    +0.000 A 
ATOM     15  C   UNL     1       0.880   2.871  19.520  0.00  0.00    +0.000 A 
ATOM     16  F   UNL     1       0.148   2.056  18.749  0.00  0.00    +0.000 F 
ATOM     17  C   UNL     1       1.422   4.034  18.967  0.00  0.00    +0.000 A 
ENDBRANCH   1  11
BRANCH   2  18
ATOM     18  O   UNL     1       2.597   8.382  18.715  0.00  0.00    +0.000 OA
BRANCH  18  19
ATOM     19  C   UNL     1       1.607   8.611  17.667  0.00  0.00    +0.000 C 
BRANCH  19  20
ATOM     20  C   UNL     1       0.854   9.954  17.862  0.00  0.00    +0.000 C 
ATOM     21  C   UNL     1      -0.532   9.799  18.540  0.00  0.00    +0.000 C 
ATOM     22  C   UNL     1      -1.200  11.152  18.887  0.00  0.00    +0.000 C 
ATOM     23  C   UNL     1      -0.264  12.056  19.706  0.00  0.00    +0.000 C 
ATOM     24  C   UNL     1       1.050  12.243  18.942  0.00  0.00    +0.000 C 
ATOM     25  C   UNL     1       1.731  10.908  18.682  0.00  0.00    +0.000 C 
BRANCH  23  26
ATOM     26  C   UNL     1      -0.848  13.436  20.051  0.00  0.00    +0.000 C 
BRANCH  26  27
ATOM     27  O   UNL     1      -1.460  13.431  21.344  0.00  0.00    +0.000 OA
BRANCH  27  28
ATOM     28  C   UNL     1      -0.613  12.760  22.298  0.00  0.00    +0.000 C 
BRANCH  28  29
ATOM     29  C   UNL     1      -1.436  11.722  23.051  0.00  0.00    +0.000 C 
ATOM     30  O   UNL     1      -2.627  11.847  23.319  0.00  0.00    +0.000 OA
BRANCH  29  31
ATOM     31  O   UNL     1      -0.695  10.647  23.404  0.00  0.00    +0.000 OA
ATOM     32  H   UNL     1       0.218  10.797  23.062  0.00  0.00    +0.000 HD
ENDBRANCH  29  31
ENDBRANCH  28  29
ENDBRANCH  27  28
ENDBRANCH  26  27
ENDBRANCH  23  26
ENDBRANCH  19  20
ENDBRANCH  18  19
ENDBRANCH   2  18
TORSDOF 10
ENDMDL
MODEL 5
REMARK VINA RESULT:      -7.3      2.700      3.166
REMARK  Name = 
REMARK  11 active torsions:
REMARK  status: ('A' for Active; 'I' for Inactive)
REMARK    1  A    between atoms: C_1  and  C_2
REMARK    2  A    between atoms: C_5  and  N_6
REMARK    3  A    between atoms: N_6  and  C_23
REMARK    4  A    between atoms: C_7  and  O_9
REMARK    5  A    between atoms: O_9  and  C_10
REMARK    6  A    between atoms: C_10  and  C_11
REMARK    7  A    between atoms: C_14  and  C_15
REMARK    8  A    between atoms: C_15  and  O_16
REMARK    9  A    between atoms: O_16  and  C_17
REMARK   10  A    between atoms: C_17  and  C_18
REMARK   11  A    between atoms: C_18  and  O_20
REMARK                            x       y       z     vdW  Elec       q    Type
REMARK                         _______ _______ _______ _____ _____    ______ ____
ROOT
ATOM      1  N   UNL     1       3.429   6.467  18.044  0.00  0.00    +0.000 N 
ATOM      2  C   UNL     1       2.858   7.723  17.731  0.00  0.00    +0.000 C 
ATOM      3  O   UNL     1       3.112   8.366  16.714  0.00  0.00    +0.000 OA
ENDROOT
BRANCH   1   8
ATOM      4  C   UNL     1       0.952   2.552  21.500  0.00  0.00    +0.000 C 
ATOM      5  C   UNL     1       1.592   3.571  20.599  0.00  0.00    +0.000 A 
ATOM      6  C   UNL     1       1.378   3.549  19.215  0.00  0.00    +0.000 A 
ATOM      7  C   UNL     1       1.952   4.523  18.379  0.00  0.00    +0.000 A 
ATOM      8  C   UNL     1       2.784   5.517  18.905  0.00  0.00    +0.000 A 
ATOM      9  C   UNL     1       3.027   5.512  20.290  0.00  0.00    +0.000 A 
ATOM     10  C   UNL     1       2.432   4.556  21.128  0.00  0.00    +0.000 A 
ENDBRANCH   1   8
BRANCH   1  11
ATOM     11  C   UNL     1       4.644   6.047  17.377  0.00  0.00    +0.000 A 
ATOM     12  C   UNL     1       5.903   6.340  17.941  0.00  0.00    +0.000 A 
ATOM     13  C   UNL     1       7.099   5.984  17.308  0.00  0.00    +0.000 A 
ATOM     14  C   UNL     1       7.066   5.316  16.092  0.00  0.00    +0.000 A 
ATOM     15  C   UNL     1       5.837   5.010  15.526  0.00  0.00    +0.000 A 
ATOM     16  F   UNL     1       5.803   4.374  14.347  0.00  0.00    +0.000 F 
ATOM     17  C   UNL     1       4.638   5.365  16.147  0.00  0.00    +0.000 A 
ENDBRANCH   1  11
BRANCH   2  18
ATOM     18  O   UNL     1       2.043   8.246  18.703  0.00  0.00    +0.000 OA
BRANCH  18  19
ATOM     19  C   UNL     1       1.694   9.656  18.558  0.00  0.00    +0.000 C 
BRANCH  19  20
ATOM     20  C   UNL     1       0.218   9.933  18.952  0.00  0.00    +0.000 C 
ATOM     21  C   UNL     1       0.011  11.285  19.682  0.00  0.00    +0.000 C 
ATOM     22  C   UNL     1      -1.478  11.633  19.918  0.00  0.00    +0.000 C 
ATOM     23  C   UNL     1      -2.294  11.559  18.616  0.00  0.00    +0.000 C 
ATOM     24  C   UNL     1      -2.120  10.171  17.991  0.00  0.00    +0.000 C 
ATOM     25  C   UNL     1      -0.656   9.881  17.693  0.00  0.00    +0.000 C 
BRANCH  23  26
ATOM     26  C   UNL     1      -3.794  11.852  18.783  0.00  0.00    +0.000 C 
BRANCH  26  27
ATOM     27  O   UNL     1      -4.561  11.231  17.749  0.00  0.00    +0.000 OA
BRANCH  27  28
ATOM     28  C   UNL     1      -5.787  11.958  17.527  0.00  0.00    +0.000 C 
BRANCH  28  29
ATOM     29  C   UNL     1      -6.873  11.391  18.433  0.00  0.00    +0.000 C 
ATOM     30  O   UNL     1      -7.029  10.195  18.659  0.00  0.00    +0.000 OA
BRANCH  29  31
ATOM     31  O   UNL     1      -7.658  12.363  18.951  0.00  0.00    +0.000 OA
ATOM     32  H   UNL     1      -8.543  12.282  18.523  0.00  0.00    +0.000 HD
ENDBRANCH  29  31
ENDBRANCH  28  29
ENDBRANCH  27  28
ENDBRANCH  26  27
ENDBRANCH  23  26
ENDBRANCH  19  20
ENDBRANCH  18  19
ENDBRANCH   2  18
TORSDOF 10
ENDMDL
MODEL 6
REMARK VINA RESULT:      -7.3      3.096      5.067
REMARK  Name = 
REMARK  11 active torsions:
REMARK  status: ('A' for Active; 'I' for Inactive)
REMARK    1  A    between atoms: C_1  and  C_2
REMARK    2  A    between atoms: C_5  and  N_6
REMARK    3  A    between atoms: N_6  and  C_23
REMARK    4  A    between atoms: C_7  and  O_9
REMARK    5  A    between atoms: O_9  and  C_10
REMARK    6  A    between atoms: C_10  and  C_11
REMARK    7  A    between atoms: C_14  and  C_15
REMARK    8  A    between atoms: C_15  and  O_16
REMARK    9  A    between atoms: O_16  and  C_17
REMARK   10  A    between atoms: C_17  and  C_18
REMARK   11  A    between atoms: C_18  and  O_20
REMARK                            x       y       z     vdW  Elec       q    Type
REMARK                         _______ _______ _______ _____ _____    ______ ____
ROOT
ATOM      1  N   UNL     1       2.487   6.216  19.546  0.00  0.00    +0.000 N 
ATOM      2  C   UNL     1       1.830   7.381  20.010  0.00  0.00    +0.000 C 
ATOM      3  O   UNL     1       1.091   7.416  20.991  0.00  0.00    +0.000 OA
ENDROOT
BRANCH   1   8
ATOM      4  C   UNL     1       7.314   6.285  16.368  0.00  0.00    +0.000 C 
ATOM      5  C   UNL     1       6.061   6.268  17.199  0.00  0.00    +0.000 A 
ATOM      6  C   UNL     1       6.036   5.658  18.460  0.00  0.00    +0.000 A 
ATOM      7  C   UNL     1       4.872   5.674  19.247  0.00  0.00    +0.000 A 
ATOM      8  C   UNL     1       3.696   6.265  18.774  0.00  0.00    +0.000 A 
ATOM      9  C   UNL     1       3.714   6.842  17.492  0.00  0.00    +0.000 A 
ATOM     10  C   UNL     1       4.884   6.850  16.717  0.00  0.00    +0.000 A 
ENDBRANCH   1   8
BRANCH   1  11
ATOM     11  C   UNL     1       2.015   4.913  19.968  0.00  0.00    +0.000 A 
ATOM     12  C   UNL     1       2.261   4.457  21.279  0.00  0.00    +0.000 A 
ATOM     13  C   UNL     1       1.854   3.191  21.712  0.00  0.00    +0.000 A 
ATOM     14  C   UNL     1       1.178   2.346  20.842  0.00  0.00    +0.000 A 
ATOM     15  C   UNL     1       0.917   2.781  19.550  0.00  0.00    +0.000 A 
ATOM     16  F   UNL     1       0.275   1.964  18.705  0.00  0.00    +0.000 F 
ATOM     17  C   UNL     1       1.324   4.042  19.107  0.00  0.00    +0.000 A 
ENDBRANCH   1  11
BRANCH   2  18
ATOM     18  O   UNL     1       1.999   8.491  19.221  0.00  0.00    +0.000 OA
BRANCH  18  19
ATOM     19  C   UNL     1       1.587   9.763  19.809  0.00  0.00    +0.000 C 
BRANCH  19  20
ATOM     20  C   UNL     1       0.445  10.434  18.999  0.00  0.00    +0.000 C 
ATOM     21  C   UNL     1      -0.178   9.512  17.919  0.00  0.00    +0.000 C 
ATOM     22  C   UNL     1      -1.425  10.124  17.236  0.00  0.00    +0.000 C 
ATOM     23  C   UNL     1      -2.472  10.583  18.265  0.00  0.00    +0.000 C 
ATOM     24  C   UNL     1      -1.817  11.559  19.247  0.00  0.00    +0.000 C 
ATOM     25  C   UNL     1      -0.644  10.913  19.968  0.00  0.00    +0.000 C 
BRANCH  23  26
ATOM     26  C   UNL     1      -3.721  11.240  17.657  0.00  0.00    +0.000 C 
BRANCH  26  27
ATOM     27  O   UNL     1      -4.761  11.373  18.629  0.00  0.00    +0.000 OA
BRANCH  27  28
ATOM     28  C   UNL     1      -6.041  11.061  18.042  0.00  0.00    +0.000 C 
BRANCH  28  29
ATOM     29  C   UNL     1      -6.915  10.378  19.087  0.00  0.00    +0.000 C 
ATOM     30  O   UNL     1      -6.882   9.176  19.336  0.00  0.00    +0.000 OA
BRANCH  29  31
ATOM     31  O   UNL     1      -7.745  11.250  19.701  0.00  0.00    +0.000 OA
ATOM     32  H   UNL     1      -8.121  11.838  19.002  0.00  0.00    +0.000 HD
ENDBRANCH  29  31
ENDBRANCH  28  29
ENDBRANCH  27  28
ENDBRANCH  26  27
ENDBRANCH  23  26
ENDBRANCH  19  20
ENDBRANCH  18  19
ENDBRANCH   2  18
TORSDOF 10
ENDMDL
MODEL 7
REMARK VINA RESULT:      -7.3      0.611      1.225
REMARK  Name = 
REMARK  11 active torsions:
REMARK  status: ('A' for Active; 'I' for Inactive)
REMARK    1  A    between atoms: C_1  and  C_2
REMARK    2  A    between atoms: C_5  and  N_6
REMARK    3  A    between atoms: N_6  and  C_23
REMARK    4  A    between atoms: C_7  and  O_9
REMARK    5  A    between atoms: O_9  and  C_10
REMARK    6  A    between atoms: C_10  and  C_11
REMARK    7  A    between atoms: C_14  and  C_15
REMARK    8  A    between atoms: C_15  and  O_16
REMARK    9  A    between atoms: O_16  and  C_17
REMARK   10  A    between atoms: C_17  and  C_18
REMARK   11  A    between atoms: C_18  and  O_20
REMARK                            x       y       z     vdW  Elec       q    Type
REMARK                         _______ _______ _______ _____ _____    ______ ____
ROOT
ATOM      1  N   UNL     1       3.676   6.218  18.228  0.00  0.00    +0.000 N 
ATOM      2  C   UNL     1       3.075   7.466  17.934  0.00  0.00    +0.000 C 
ATOM      3  O   UNL     1       3.231   8.079  16.880  0.00  0.00    +0.000 OA
ENDROOT
BRANCH   1   8
ATOM      4  C   UNL     1       1.377   2.413  21.922  0.00  0.00    +0.000 C 
ATOM      5  C   UNL     1       1.973   3.407  20.964  0.00  0.00    +0.000 A 
ATOM      6  C   UNL     1       1.233   4.504  20.504  0.00  0.00    +0.000 A 
ATOM      7  C   UNL     1       1.805   5.448  19.635  0.00  0.00    +0.000 A 
ATOM      8  C   UNL     1       3.117   5.295  19.174  0.00  0.00    +0.000 A 
ATOM      9  C   UNL     1       3.843   4.171  19.607  0.00  0.00    +0.000 A 
ATOM     10  C   UNL     1       3.281   3.244  20.497  0.00  0.00    +0.000 A 
ENDBRANCH   1   8
BRANCH   1  11
ATOM     11  C   UNL     1       4.823   5.779  17.461  0.00  0.00    +0.000 A 
ATOM     12  C   UNL     1       6.119   6.212  17.808  0.00  0.00    +0.000 A 
ATOM     13  C   UNL     1       7.248   5.839  17.070  0.00  0.00    +0.000 A 
ATOM     14  C   UNL     1       7.109   5.012  15.964  0.00  0.00    +0.000 A 
ATOM     15  C   UNL     1       5.842   4.567  15.612  0.00  0.00    +0.000 A 
ATOM     16  F   UNL     1       5.704   3.778  14.538  0.00  0.00    +0.000 F 
ATOM     17  C   UNL     1       4.709   4.938  16.340  0.00  0.00    +0.000 A 
ENDBRANCH   1  11
BRANCH   2  18
ATOM     18  O   UNL     1       2.355   8.017  18.964  0.00  0.00    +0.000 OA
BRANCH  18  19
ATOM     19  C   UNL     1       1.367   9.024  18.588  0.00  0.00    +0.000 C 
BRANCH  19  20
ATOM     20  C   UNL     1       0.998   9.949  19.780  0.00  0.00    +0.000 C 
ATOM     21  C   UNL     1      -0.020  11.060  19.414  0.00  0.00    +0.000 C 
ATOM     22  C   UNL     1      -0.514  11.867  20.640  0.00  0.00    +0.000 C 
ATOM     23  C   UNL     1      -1.050  10.946  21.749  0.00  0.00    +0.000 C 
ATOM     24  C   UNL     1       0.033   9.931  22.128  0.00  0.00    +0.000 C 
ATOM     25  C   UNL     1       0.447   9.093  20.927  0.00  0.00    +0.000 C 
BRANCH  23  26
ATOM     26  C   UNL     1      -1.519  11.679  23.017  0.00  0.00    +0.000 C 
BRANCH  26  27
ATOM     27  O   UNL     1      -2.659  12.499  22.749  0.00  0.00    +0.000 OA
BRANCH  27  28
ATOM     28  C   UNL     1      -2.943  13.350  23.878  0.00  0.00    +0.000 C 
BRANCH  28  29
ATOM     29  C   UNL     1      -4.347  13.048  24.388  0.00  0.00    +0.000 C 
ATOM     30  O   UNL     1      -4.757  11.923  24.656  0.00  0.00    +0.000 OA
BRANCH  29  31
ATOM     31  O   UNL     1      -5.097  14.168  24.497  0.00  0.00    +0.000 OA
ATOM     32  H   UNL     1      -5.594  14.105  25.348  0.00  0.00    +0.000 HD
ENDBRANCH  29  31
ENDBRANCH  28  29
ENDBRANCH  27  28
ENDBRANCH  26  27
ENDBRANCH  23  26
ENDBRANCH  19  20
ENDBRANCH  18  19
ENDBRANCH   2  18
TORSDOF 10
ENDMDL
MODEL 8
REMARK VINA RESULT:      -7.3      0.545      1.129
REMARK  Name = 
REMARK  11 active torsions:
REMARK  status: ('A' for Active; 'I' for Inactive)
REMARK    1  A    between atoms: C_1  and  C_2
REMARK    2  A    between atoms: C_5  and  N_6
REMARK    3  A    between atoms: N_6  and  C_23
REMARK    4  A    between atoms: C_7  and  O_9
REMARK    5  A    between atoms: O_9  and  C_10
REMARK    6  A    between atoms: C_10  and  C_11
REMARK    7  A    between atoms: C_14  and  C_15
REMARK    8  A    between atoms: C_15  and  O_16
REMARK    9  A    between atoms: O_16  and  C_17
REMARK   10  A    between atoms: C_17  and  C_18
REMARK   11  A    between atoms: C_18  and  O_20
REMARK                            x       y       z     vdW  Elec       q    Type
REMARK                         _______ _______ _______ _____ _____    ______ ____
ROOT
ATOM      1  N   UNL     1       3.531   6.399  18.038  0.00  0.00    +0.000 N 
ATOM      2  C   UNL     1       2.971   7.676  17.786  0.00  0.00    +0.000 C 
ATOM      3  O   UNL     1       3.179   8.335  16.770  0.00  0.00    +0.000 OA
ENDROOT
BRANCH   1   8
ATOM      4  C   UNL     1       1.157   2.453  21.530  0.00  0.00    +0.000 C 
ATOM      5  C   UNL     1       1.769   3.482  20.620  0.00  0.00    +0.000 A 
ATOM      6  C   UNL     1       1.290   3.674  19.318  0.00  0.00    +0.000 A 
ATOM      7  C   UNL     1       1.845   4.658  18.482  0.00  0.00    +0.000 A 
ATOM      8  C   UNL     1       2.917   5.446  18.917  0.00  0.00    +0.000 A 
ATOM      9  C   UNL     1       3.419   5.223  20.211  0.00  0.00    +0.000 A 
ATOM     10  C   UNL     1       2.848   4.258  21.055  0.00  0.00    +0.000 A 
ENDBRANCH   1   8
BRANCH   1  11
ATOM     11  C   UNL     1       4.693   5.968  17.289  0.00  0.00    +0.000 A 
ATOM     12  C   UNL     1       5.968   6.485  17.596  0.00  0.00    +0.000 A 
ATOM     13  C   UNL     1       7.109   6.121  16.871  0.00  0.00    +0.000 A 
ATOM     14  C   UNL     1       7.003   5.219  15.821  0.00  0.00    +0.000 A 
ATOM     15  C   UNL     1       5.758   4.692  15.511  0.00  0.00    +0.000 A 
ATOM     16  F   UNL     1       5.652   3.830  14.491  0.00  0.00    +0.000 F 
ATOM     17  C   UNL     1       4.613   5.053  16.225  0.00  0.00    +0.000 A 
ENDBRANCH   1  11
BRANCH   2  18
ATOM     18  O   UNL     1       2.229   8.194  18.817  0.00  0.00    +0.000 OA
BRANCH  18  19
ATOM     19  C   UNL     1       1.432   9.376  18.502  0.00  0.00    +0.000 C 
BRANCH  19  20
ATOM     20  C   UNL     1       0.331   9.634  19.566  0.00  0.00    +0.000 C 
ATOM     21  C   UNL     1       0.581   8.903  20.911  0.00  0.00    +0.000 C 
ATOM     22  C   UNL     1      -0.424   9.300  22.020  0.00  0.00    +0.000 C 
ATOM     23  C   UNL     1      -0.496  10.825  22.205  0.00  0.00    +0.000 C 
ATOM     24  C   UNL     1      -0.834  11.479  20.863  0.00  0.00    +0.000 C 
ATOM     25  C   UNL     1       0.208  11.143  19.807  0.00  0.00    +0.000 C 
BRANCH  23  26
ATOM     26  C   UNL     1      -1.507  11.293  23.264  0.00  0.00    +0.000 C 
BRANCH  26  27
ATOM     27  O   UNL     1      -2.188  12.477  22.841  0.00  0.00    +0.000 OA
BRANCH  27  28
ATOM     28  C   UNL     1      -3.502  12.540  23.433  0.00  0.00    +0.000 C 
BRANCH  28  29
ATOM     29  C   UNL     1      -4.022  13.969  23.341  0.00  0.00    +0.000 C 
ATOM     30  O   UNL     1      -3.721  14.757  22.449  0.00  0.00    +0.000 OA
BRANCH  29  31
ATOM     31  O   UNL     1      -4.846  14.275  24.368  0.00  0.00    +0.000 OA
ATOM     32  H   UNL     1      -4.730  13.575  25.054  0.00  0.00    +0.000 HD
ENDBRANCH  29  31
ENDBRANCH  28  29
ENDBRANCH  27  28
ENDBRANCH  26  27
ENDBRANCH  23  26
ENDBRANCH  19  20
ENDBRANCH  18  19
ENDBRANCH   2  18
TORSDOF 10
ENDMDL
MODEL 9
REMARK VINA RESULT:      -7.3      2.375      2.795
REMARK  Name = 
REMARK  11 active torsions:
REMARK  status: ('A' for Active; 'I' for Inactive)
REMARK    1  A    between atoms: C_1  and  C_2
REMARK    2  A    between atoms: C_5  and  N_6
REMARK    3  A    between atoms: N_6  and  C_23
REMARK    4  A    between atoms: C_7  and  O_9
REMARK    5  A    between atoms: O_9  and  C_10
REMARK    6  A    between atoms: C_10  and  C_11
REMARK    7  A    between atoms: C_14  and  C_15
REMARK    8  A    between atoms: C_15  and  O_16
REMARK    9  A    between atoms: O_16  and  C_17
REMARK   10  A    between atoms: C_17  and  C_18
REMARK   11  A    between atoms: C_18  and  O_20
REMARK                            x       y       z     vdW  Elec       q    Type
REMARK                         _______ _______ _______ _____ _____    ______ ____
ROOT
ATOM      1  N   UNL     1       3.423   6.472  18.025  0.00  0.00    +0.000 N 
ATOM      2  C   UNL     1       2.775   7.700  17.749  0.00  0.00    +0.000 C 
ATOM      3  O   UNL     1       2.969   8.374  16.740  0.00  0.00    +0.000 OA
ENDROOT
BRANCH   1   8
ATOM      4  C   UNL     1       1.016   2.544  21.515  0.00  0.00    +0.000 C 
ATOM      5  C   UNL     1       1.648   3.565  20.609  0.00  0.00    +0.000 A 
ATOM      6  C   UNL     1       2.640   4.435  21.078  0.00  0.00    +0.000 A 
ATOM      7  C   UNL     1       3.250   5.365  20.220  0.00  0.00    +0.000 A 
ATOM      8  C   UNL     1       2.853   5.473  18.882  0.00  0.00    +0.000 A 
ATOM      9  C   UNL     1       1.829   4.624  18.426  0.00  0.00    +0.000 A 
ATOM     10  C   UNL     1       1.239   3.676  19.276  0.00  0.00    +0.000 A 
ENDBRANCH   1   8
BRANCH   1  11
ATOM     11  C   UNL     1       4.644   6.134  17.323  0.00  0.00    +0.000 A 
ATOM     12  C   UNL     1       5.860   6.759  17.669  0.00  0.00    +0.000 A 
ATOM     13  C   UNL     1       7.052   6.487  16.989  0.00  0.00    +0.000 A 
ATOM     14  C   UNL     1       7.061   5.572  15.946  0.00  0.00    +0.000 A 
ATOM     15  C   UNL     1       5.876   4.939  15.597  0.00  0.00    +0.000 A 
ATOM     16  F   UNL     1       5.879   4.064  14.582  0.00  0.00    +0.000 F 
ATOM     17  C   UNL     1       4.679   5.208  16.266  0.00  0.00    +0.000 A 
ENDBRANCH   1  11
BRANCH   2  18
ATOM     18  O   UNL     1       1.955   8.158  18.749  0.00  0.00    +0.000 OA
BRANCH  18  19
ATOM     19  C   UNL     1       1.681   9.592  18.747  0.00  0.00    +0.000 C 
BRANCH  19  20
ATOM     20  C   UNL     1       0.169   9.895  18.936  0.00  0.00    +0.000 C 
ATOM     21  C   UNL     1      -0.118  11.316  19.485  0.00  0.00    +0.000 C 
ATOM     22  C   UNL     1      -1.624  11.672  19.508  0.00  0.00    +0.000 C 
ATOM     23  C   UNL     1      -2.284  11.447  18.137  0.00  0.00    +0.000 C 
ATOM     24  C   UNL     1      -2.041  10.001  17.693  0.00  0.00    +0.000 C 
ATOM     25  C   UNL     1      -0.554   9.696  17.599  0.00  0.00    +0.000 C 
BRANCH  23  26
ATOM     26  C   UNL     1      -3.792  11.740  18.098  0.00  0.00    +0.000 C 
BRANCH  26  27
ATOM     27  O   UNL     1      -4.313  11.957  19.412  0.00  0.00    +0.000 OA
BRANCH  27  28
ATOM     28  C   UNL     1      -5.705  12.328  19.346  0.00  0.00    +0.000 C 
BRANCH  28  29
ATOM     29  C   UNL     1      -6.561  11.082  19.535  0.00  0.00    +0.000 C 
ATOM     30  O   UNL     1      -6.935  10.356  18.619  0.00  0.00    +0.000 OA
BRANCH  29  31
ATOM     31  O   UNL     1      -6.876  10.877  20.834  0.00  0.00    +0.000 OA
ATOM     32  H   UNL     1      -7.466  10.086  20.870  0.00  0.00    +0.000 HD
ENDBRANCH  29  31
ENDBRANCH  28  29
ENDBRANCH  27  28
ENDBRANCH  26  27
ENDBRANCH  23  26
ENDBRANCH  19  20
ENDBRANCH  18  19
ENDBRANCH   2  18
TORSDOF 10
ENDMDL
