MODEL 1
REMARK VINA RESULT:      -7.9      0.000      0.000
REMARK  Name = 
REMARK  9 active torsions:
REMARK  status: ('A' for Active; 'I' for Inactive)
REMARK    1  A    between atoms: C_1  and  O_2
REMARK    2  A    between atoms: O_2  and  C_3
REMARK    3  A    between atoms: C_11  and  C_12
REMARK    4  A    between atoms: C_12  and  C_13
REMARK    5  A    between atoms: C_13  and  O_14
REMARK    6  A    between atoms: C_13  and  C_15
REMARK    7  A    between atoms: C_18  and  N_19
REMARK    8  A    between atoms: N_19  and  C_20
REMARK    9  A    between atoms: C_20  and  C_21
REMARK                            x       y       z     vdW  Elec       q    Type
REMARK                         _______ _______ _______ _____ _____    ______ ____
ROOT
ATOM      1  C   UNL     1      -0.401  11.593  22.042  0.00  0.00    +0.000 C 
ATOM      2  C   UNL     1       0.142  11.079  20.705  0.00  0.00    +0.000 C 
ATOM      3  C   UNL     1      -0.297   9.655  20.385  0.00  0.00    +0.000 C 
ATOM      4  C   UNL     1      -0.086   8.690  21.564  0.00  0.00    +0.000 C 
ATOM      5  C   UNL     1      -0.542   9.341  22.889  0.00  0.00    +0.000 C 
ATOM      6  O   UNL     1      -0.061  10.670  23.084  0.00  0.00    +0.000 OA
ENDROOT
BRANCH   4   7
ATOM      7  N   UNL     1       1.334   8.301  21.571  0.00  0.00    +0.000 NA
ATOM      8  H   UNL     1       1.405   7.335  21.902  0.00  0.00    +0.000 HD
BRANCH   7   9
ATOM      9  C   UNL     1       1.960   8.374  20.243  0.00  0.00    +0.000 C 
BRANCH   9  10
ATOM     10  C   UNL     1       2.208   6.987  19.716  0.00  0.00    +0.000 A 
ATOM     11  C   UNL     1       1.771   5.857  20.400  0.00  0.00    +0.000 A 
ATOM     12  C   UNL     1       1.848   4.627  19.761  0.00  0.00    +0.000 A 
ATOM     13  C   UNL     1       2.301   4.613  18.447  0.00  0.00    +0.000 A 
ATOM     14  N   UNL     1       2.763   5.714  17.823  0.00  0.00    +0.000 NA
ATOM     15  N   UNL     1       2.733   6.905  18.470  0.00  0.00    +0.000 NA
ATOM     16  O   UNL     1       2.232   3.498  17.650  0.00  0.00    +0.000 OA
ATOM     17  C   UNL     1       2.732   2.356  18.332  0.00  0.00    +0.000 C 
ATOM     18  C   UNL     1       1.830   1.877  19.461  0.00  0.00    +0.000 C 
ATOM     19  S   UNL     1       1.332   3.172  20.642  0.00  0.00    +0.000 S 
ENDBRANCH   9  10
ENDBRANCH   7   9
ENDBRANCH   4   7
BRANCH   1  20
ATOM     20  C   UNL     1      -1.908  11.984  22.017  0.00  0.00    +0.000 C 
BRANCH  20  21
ATOM     21  O   UNL     1      -2.349  12.462  23.295  0.00  0.00    +0.000 OA
ATOM     22  H   UNL     1      -1.590  12.896  23.735  0.00  0.00    +0.000 HD
ENDBRANCH  20  21
BRANCH  20  23
ATOM     23  C   UNL     1      -2.222  13.009  20.904  0.00  0.00    +0.000 C 
BRANCH  23  32
ATOM     24  C   UNL     1      -6.251  13.186  22.000  0.00  0.00    +0.000 A 
ATOM     25  C   UNL     1      -7.267  12.585  21.292  0.00  0.00    +0.000 A 
ATOM     26  C   UNL     1      -6.949  11.967  20.084  0.00  0.00    +0.000 A 
ATOM     27  C   UNL     1      -5.647  11.956  19.610  0.00  0.00    +0.000 A 
ATOM     28  N   UNL     1      -5.364  11.376  18.424  0.00  0.00    +0.000 NA
ATOM     29  C   UNL     1      -4.071  11.380  18.031  0.00  0.00    +0.000 A 
ATOM     30  C   UNL     1      -3.045  11.926  18.779  0.00  0.00    +0.000 A 
ATOM     31  F   UNL     1      -1.782  11.863  18.337  0.00  0.00    +0.000 F 
ATOM     32  C   UNL     1      -3.340  12.518  20.005  0.00  0.00    +0.000 A 
ATOM     33  C   UNL     1      -4.667  12.558  20.438  0.00  0.00    +0.000 A 
ATOM     34  N   UNL     1      -4.958  13.136  21.623  0.00  0.00    +0.000 NA
BRANCH  24  36
ATOM     35  C   UNL     1      -7.235  12.949  24.083  0.00  0.00    +0.000 C 
ATOM     36  O   UNL     1      -6.581  13.829  23.176  0.00  0.00    +0.000 OA
ENDBRANCH  24  36
ENDBRANCH  23  32
ENDBRANCH  20  23
ENDBRANCH   1  20
TORSDOF 8
ENDMDL
MODEL 2
REMARK VINA RESULT:      -7.7      4.132     11.518
REMARK  Name = 
REMARK  9 active torsions:
REMARK  status: ('A' for Active; 'I' for Inactive)
REMARK    1  A    between atoms: C_1  and  O_2
REMARK    2  A    between atoms: O_2  and  C_3
REMARK    3  A    between atoms: C_11  and  C_12
REMARK    4  A    between atoms: C_12  and  C_13
REMARK    5  A    between atoms: C_13  and  O_14
REMARK    6  A    between atoms: C_13  and  C_15
REMARK    7  A    between atoms: C_18  and  N_19
REMARK    8  A    between atoms: N_19  and  C_20
REMARK    9  A    between atoms: C_20  and  C_21
REMARK                            x       y       z     vdW  Elec       q    Type
REMARK                         _______ _______ _______ _____ _____    ______ ____
ROOT
ATOM      1  C   UNL     1       1.800   4.151  18.817  0.00  0.00    +0.000 C 
ATOM      2  C   UNL     1       1.982   5.559  18.240  0.00  0.00    +0.000 C 
ATOM      3  C   UNL     1       2.811   6.473  19.136  0.00  0.00    +0.000 C 
ATOM      4  C   UNL     1       2.346   6.448  20.601  0.00  0.00    +0.000 C 
ATOM      5  C   UNL     1       2.061   5.000  21.058  0.00  0.00    +0.000 C 
ATOM      6  O   UNL     1       1.268   4.244  20.145  0.00  0.00    +0.000 OA
ENDROOT
BRANCH   4   7
ATOM      7  N   UNL     1       1.171   7.329  20.709  0.00  0.00    +0.000 NA
ATOM      8  H   UNL     1       0.943   7.446  21.701  0.00  0.00    +0.000 HD
BRANCH   7   9
ATOM      9  C   UNL     1       1.393   8.663  20.134  0.00  0.00    +0.000 C 
BRANCH   9  10
ATOM     10  C   UNL     1       0.672   9.700  20.951  0.00  0.00    +0.000 A 
ATOM     11  C   UNL     1      -0.193  10.619  20.364  0.00  0.00    +0.000 A 
ATOM     12  C   UNL     1      -0.979  11.408  21.193  0.00  0.00    +0.000 A 
ATOM     13  C   UNL     1      -0.899  11.181  22.562  0.00  0.00    +0.000 A 
ATOM     14  N   UNL     1      -0.020  10.319  23.108  0.00  0.00    +0.000 NA
ATOM     15  N   UNL     1       0.784   9.588  22.296  0.00  0.00    +0.000 NA
ATOM     16  O   UNL     1      -1.765  11.751  23.460  0.00  0.00    +0.000 OA
ATOM     17  C   UNL     1      -1.901  13.145  23.222  0.00  0.00    +0.000 C 
ATOM     18  C   UNL     1      -2.660  13.473  21.944  0.00  0.00    +0.000 C 
ATOM     19  S   UNL     1      -2.056  12.614  20.455  0.00  0.00    +0.000 S 
ENDBRANCH   9  10
ENDBRANCH   7   9
ENDBRANCH   4   7
BRANCH   1  20
ATOM     20  C   UNL     1       3.059   3.242  18.707  0.00  0.00    +0.000 C 
BRANCH  20  21
ATOM     21  O   UNL     1       2.787   1.910  19.164  0.00  0.00    +0.000 OA
ATOM     22  H   UNL     1       2.586   1.953  20.121  0.00  0.00    +0.000 HD
ENDBRANCH  20  21
BRANCH  20  23
ATOM     23  C   UNL     1       3.639   3.228  17.275  0.00  0.00    +0.000 C 
BRANCH  23  32
ATOM     24  C   UNL     1       5.606   4.049  13.681  0.00  0.00    +0.000 A 
ATOM     25  C   UNL     1       6.890   4.538  13.602  0.00  0.00    +0.000 A 
ATOM     26  C   UNL     1       7.538   4.877  14.789  0.00  0.00    +0.000 A 
ATOM     27  C   UNL     1       6.908   4.723  16.013  0.00  0.00    +0.000 A 
ATOM     28  N   UNL     1       7.541   5.083  17.150  0.00  0.00    +0.000 NA
ATOM     29  C   UNL     1       6.880   4.887  18.312  0.00  0.00    +0.000 A 
ATOM     30  C   UNL     1       5.617   4.331  18.388  0.00  0.00    +0.000 A 
ATOM     31  F   UNL     1       5.037   4.138  19.581  0.00  0.00    +0.000 F 
ATOM     32  C   UNL     1       4.969   3.956  17.214  0.00  0.00    +0.000 A 
ATOM     33  C   UNL     1       5.606   4.164  15.989  0.00  0.00    +0.000 A 
ATOM     34  N   UNL     1       4.978   3.807  14.849  0.00  0.00    +0.000 NA
BRANCH  24  36
ATOM     35  C   UNL     1       5.610   2.696  11.801  0.00  0.00    +0.000 C 
ATOM     36  O   UNL     1       4.959   3.752  12.499  0.00  0.00    +0.000 OA
ENDBRANCH  24  36
ENDBRANCH  23  32
ENDBRANCH  20  23
ENDBRANCH   1  20
TORSDOF 8
ENDMDL
MODEL 3
REMARK VINA RESULT:      -7.7      7.048     10.770
REMARK  Name = 
REMARK  9 active torsions:
REMARK  status: ('A' for Active; 'I' for Inactive)
REMARK    1  A    between atoms: C_1  and  O_2
REMARK    2  A    between atoms: O_2  and  C_3
REMARK    3  A    between atoms: C_11  and  C_12
REMARK    4  A    between atoms: C_12  and  C_13
REMARK    5  A    between atoms: C_13  and  O_14
REMARK    6  A    between atoms: C_13  and  C_15
REMARK    7  A    between atoms: C_18  and  N_19
REMARK    8  A    between atoms: N_19  and  C_20
REMARK    9  A    between atoms: C_20  and  C_21
REMARK                            x       y       z     vdW  Elec       q    Type
REMARK                         _______ _______ _______ _____ _____    ______ ____
ROOT
ATOM      1  C   UNL     1       6.213   4.650  16.427  0.00  0.00    +0.000 C 
ATOM      2  C   UNL     1       7.633   4.566  16.998  0.00  0.00    +0.000 C 
ATOM      3  C   UNL     1       7.771   5.228  18.364  0.00  0.00    +0.000 C 
ATOM      4  C   UNL     1       7.157   6.637  18.405  0.00  0.00    +0.000 C 
ATOM      5  C   UNL     1       5.786   6.656  17.693  0.00  0.00    +0.000 C 
ATOM      6  O   UNL     1       5.781   6.016  16.418  0.00  0.00    +0.000 OA
ENDROOT
BRANCH   4   7
ATOM      7  N   UNL     1       8.132   7.564  17.805  0.00  0.00    +0.000 NA
ATOM      8  H   UNL     1       8.406   7.198  16.889  0.00  0.00    +0.000 HD
BRANCH   7   9
ATOM      9  C   UNL     1       7.598   8.919  17.612  0.00  0.00    +0.000 C 
BRANCH   9  10
ATOM     10  C   UNL     1       8.514   9.928  18.251  0.00  0.00    +0.000 A 
ATOM     11  C   UNL     1       8.628  11.224  17.759  0.00  0.00    +0.000 A 
ATOM     12  C   UNL     1       9.326  12.157  18.513  0.00  0.00    +0.000 A 
ATOM     13  C   UNL     1       9.814  11.749  19.749  0.00  0.00    +0.000 A 
ATOM     14  N   UNL     1       9.731  10.476  20.182  0.00  0.00    +0.000 NA
ATOM     15  N   UNL     1       9.093   9.556  19.417  0.00  0.00    +0.000 NA
ATOM     16  O   UNL     1      10.340  12.624  20.665  0.00  0.00    +0.000 OA
ATOM     17  C   UNL     1      11.280  13.496  20.053  0.00  0.00    +0.000 C 
ATOM     18  C   UNL     1      10.648  14.512  19.113  0.00  0.00    +0.000 C 
ATOM     19  S   UNL     1       9.514  13.804  17.874  0.00  0.00    +0.000 S 
ENDBRANCH   9  10
ENDBRANCH   7   9
ENDBRANCH   4   7
BRANCH   1  20
ATOM     20  C   UNL     1       5.195   3.673  17.086  0.00  0.00    +0.000 C 
BRANCH  20  21
ATOM     21  O   UNL     1       5.447   3.517  18.488  0.00  0.00    +0.000 OA
ATOM     22  H   UNL     1       4.757   2.930  18.858  0.00  0.00    +0.000 HD
ENDBRANCH  20  21
BRANCH  20  23
ATOM     23  C   UNL     1       3.733   4.102  16.830  0.00  0.00    +0.000 C 
BRANCH  23  32
ATOM     24  C   UNL     1       2.206   7.012  19.412  0.00  0.00    +0.000 A 
ATOM     25  C   UNL     1       1.558   6.728  20.592  0.00  0.00    +0.000 A 
ATOM     26  C   UNL     1       1.304   5.391  20.897  0.00  0.00    +0.000 A 
ATOM     27  C   UNL     1       1.695   4.378  20.037  0.00  0.00    +0.000 A 
ATOM     28  N   UNL     1       1.415   3.091  20.336  0.00  0.00    +0.000 NA
ATOM     29  C   UNL     1       1.844   2.150  19.467  0.00  0.00    +0.000 A 
ATOM     30  C   UNL     1       2.555   2.438  18.317  0.00  0.00    +0.000 A 
ATOM     31  F   UNL     1       2.975   1.447  17.519  0.00  0.00    +0.000 F 
ATOM     32  C   UNL     1       2.846   3.766  18.014  0.00  0.00    +0.000 A 
ATOM     33  C   UNL     1       2.400   4.772  18.873  0.00  0.00    +0.000 A 
ATOM     34  N   UNL     1       2.677   6.061  18.580  0.00  0.00    +0.000 NA
BRANCH  24  36
ATOM     35  C   UNL     1       2.282   8.572  17.703  0.00  0.00    +0.000 C 
ATOM     36  O   UNL     1       2.420   8.339  19.100  0.00  0.00    +0.000 OA
ENDBRANCH  24  36
ENDBRANCH  23  32
ENDBRANCH  20  23
ENDBRANCH   1  20
TORSDOF 8
ENDMDL
MODEL 4
REMARK VINA RESULT:      -7.7      4.504     11.639
REMARK  Name = 
REMARK  9 active torsions:
REMARK  status: ('A' for Active; 'I' for Inactive)
REMARK    1  A    between atoms: C_1  and  O_2
REMARK    2  A    between atoms: O_2  and  C_3
REMARK    3  A    between atoms: C_11  and  C_12
REMARK    4  A    between atoms: C_12  and  C_13
REMARK    5  A    between atoms: C_13  and  O_14
REMARK    6  A    between atoms: C_13  and  C_15
REMARK    7  A    between atoms: C_18  and  N_19
REMARK    8  A    between atoms: N_19  and  C_20
REMARK    9  A    between atoms: C_20  and  C_21
REMARK                            x       y       z     vdW  Elec       q    Type
REMARK                         _______ _______ _______ _____ _____    ______ ____
ROOT
ATOM      1  C   UNL     1       2.616   3.663  18.489  0.00  0.00    +0.000 C 
ATOM      2  C   UNL     1       1.833   4.807  17.834  0.00  0.00    +0.000 C 
ATOM      3  C   UNL     1       2.414   6.183  18.136  0.00  0.00    +0.000 C 
ATOM      4  C   UNL     1       2.699   6.391  19.633  0.00  0.00    +0.000 C 
ATOM      5  C   UNL     1       3.372   5.138  20.239  0.00  0.00    +0.000 C 
ATOM      6  O   UNL     1       2.734   3.909  19.895  0.00  0.00    +0.000 OA
ENDROOT
BRANCH   4   7
ATOM      7  N   UNL     1       1.424   6.734  20.285  0.00  0.00    +0.000 NA
ATOM      8  H   UNL     1       1.052   5.892  20.734  0.00  0.00    +0.000 HD
BRANCH   7   9
ATOM      9  C   UNL     1       1.562   7.774  21.314  0.00  0.00    +0.000 C 
BRANCH   9  10
ATOM     10  C   UNL     1       0.685   8.949  20.977  0.00  0.00    +0.000 A 
ATOM     11  C   UNL     1      -0.028   9.632  21.957  0.00  0.00    +0.000 A 
ATOM     12  C   UNL     1      -0.648  10.825  21.611  0.00  0.00    +0.000 A 
ATOM     13  C   UNL     1      -0.462  11.295  20.316  0.00  0.00    +0.000 A 
ATOM     14  N   UNL     1       0.194  10.591  19.373  0.00  0.00    +0.000 NA
ATOM     15  N   UNL     1       0.754   9.401  19.702  0.00  0.00    +0.000 NA
ATOM     16  O   UNL     1      -0.852  12.548  19.918  0.00  0.00    +0.000 OA
ATOM     17  C   UNL     1      -2.184  12.819  20.329  0.00  0.00    +0.000 C 
ATOM     18  C   UNL     1      -2.332  13.009  21.833  0.00  0.00    +0.000 C 
ATOM     19  S   UNL     1      -1.595  11.684  22.845  0.00  0.00    +0.000 S 
ENDBRANCH   9  10
ENDBRANCH   7   9
ENDBRANCH   4   7
BRANCH   1  20
ATOM     20  C   UNL     1       3.968   3.327  17.793  0.00  0.00    +0.000 C 
BRANCH  20  21
ATOM     21  O   UNL     1       4.342   1.959  18.003  0.00  0.00    +0.000 OA
ATOM     22  H   UNL     1       5.317   1.900  17.954  0.00  0.00    +0.000 HD
ENDBRANCH  20  21
BRANCH  20  23
ATOM     23  C   UNL     1       3.946   3.671  16.287  0.00  0.00    +0.000 C 
BRANCH  23  32
ATOM     24  C   UNL     1       5.624   3.404  12.469  0.00  0.00    +0.000 A 
ATOM     25  C   UNL     1       6.845   3.941  12.128  0.00  0.00    +0.000 A 
ATOM     26  C   UNL     1       7.517   4.705  13.081  0.00  0.00    +0.000 A 
ATOM     27  C   UNL     1       6.971   4.918  14.337  0.00  0.00    +0.000 A 
ATOM     28  N   UNL     1       7.624   5.684  15.236  0.00  0.00    +0.000 NA
ATOM     29  C   UNL     1       7.049   5.833  16.450  0.00  0.00    +0.000 A 
ATOM     30  C   UNL     1       5.856   5.236  16.810  0.00  0.00    +0.000 A 
ATOM     31  F   UNL     1       5.363   5.404  18.044  0.00  0.00    +0.000 F 
ATOM     32  C   UNL     1       5.188   4.441  15.881  0.00  0.00    +0.000 A 
ATOM     33  C   UNL     1       5.734   4.281  14.606  0.00  0.00    +0.000 A 
ATOM     34  N   UNL     1       5.087   3.516  13.701  0.00  0.00    +0.000 NA
BRANCH  24  36
ATOM     35  C   UNL     1       3.790   3.373  11.057  0.00  0.00    +0.000 C 
ATOM     36  O   UNL     1       4.949   2.681  11.508  0.00  0.00    +0.000 OA
ENDBRANCH  24  36
ENDBRANCH  23  32
ENDBRANCH  20  23
ENDBRANCH   1  20
TORSDOF 8
ENDMDL
MODEL 5
REMARK VINA RESULT:      -7.7      6.706     10.706
REMARK  Name = 
REMARK  9 active torsions:
REMARK  status: ('A' for Active; 'I' for Inactive)
REMARK    1  A    between atoms: C_1  and  O_2
REMARK    2  A    between atoms: O_2  and  C_3
REMARK    3  A    between atoms: C_11  and  C_12
REMARK    4  A    between atoms: C_12  and  C_13
REMARK    5  A    between atoms: C_13  and  O_14
REMARK    6  A    between atoms: C_13  and  C_15
REMARK    7  A    between atoms: C_18  and  N_19
REMARK    8  A    between atoms: N_19  and  C_20
REMARK    9  A    between atoms: C_20  and  C_21
REMARK                            x       y       z     vdW  Elec       q    Type
REMARK                         _______ _______ _______ _____ _____    ______ ____
ROOT
ATOM      1  C   UNL     1       6.560   4.471  16.549  0.00  0.00    +0.000 C 
ATOM      2  C   UNL     1       7.614   4.921  17.567  0.00  0.00    +0.000 C 
ATOM      3  C   UNL     1       7.108   5.999  18.519  0.00  0.00    +0.000 C 
ATOM      4  C   UNL     1       6.407   7.155  17.786  0.00  0.00    +0.000 C 
ATOM      5  C   UNL     1       5.462   6.612  16.690  0.00  0.00    +0.000 C 
ATOM      6  O   UNL     1       6.047   5.615  15.855  0.00  0.00    +0.000 OA
ENDROOT
BRANCH   4   7
ATOM      7  N   UNL     1       7.452   8.046  17.256  0.00  0.00    +0.000 NA
ATOM      8  H   UNL     1       7.017   8.931  16.983  0.00  0.00    +0.000 HD
BRANCH   7   9
ATOM      9  C   UNL     1       8.510   8.341  18.233  0.00  0.00    +0.000 C 
BRANCH   9  10
ATOM     10  C   UNL     1       8.634   9.829  18.421  0.00  0.00    +0.000 A 
ATOM     11  C   UNL     1       9.501  10.376  19.362  0.00  0.00    +0.000 A 
ATOM     12  C   UNL     1       9.720  11.746  19.339  0.00  0.00    +0.000 A 
ATOM     13  C   UNL     1       9.105  12.479  18.331  0.00  0.00    +0.000 A 
ATOM     14  N   UNL     1       8.233  11.934  17.461  0.00  0.00    +0.000 NA
ATOM     15  N   UNL     1       7.983  10.602  17.520  0.00  0.00    +0.000 NA
ATOM     16  O   UNL     1       9.401  13.796  18.085  0.00  0.00    +0.000 OA
ATOM     17  C   UNL     1       9.392  14.552  19.287  0.00  0.00    +0.000 C 
ATOM     18  C   UNL     1      10.556  14.233  20.215  0.00  0.00    +0.000 C 
ATOM     19  S   UNL     1      10.792  12.460  20.564  0.00  0.00    +0.000 S 
ENDBRANCH   9  10
ENDBRANCH   7   9
ENDBRANCH   4   7
BRANCH   1  20
ATOM     20  C   UNL     1       5.455   3.543  17.133  0.00  0.00    +0.000 C 
BRANCH  20  21
ATOM     21  O   UNL     1       5.591   3.391  18.552  0.00  0.00    +0.000 OA
ATOM     22  H   UNL     1       5.889   2.476  18.733  0.00  0.00    +0.000 HD
ENDBRANCH  20  21
BRANCH  20  23
ATOM     23  C   UNL     1       4.036   4.027  16.761  0.00  0.00    +0.000 C 
BRANCH  23  32
ATOM     24  C   UNL     1       2.425   7.150  19.023  0.00  0.00    +0.000 A 
ATOM     25  C   UNL     1       1.689   6.966  20.172  0.00  0.00    +0.000 A 
ATOM     26  C   UNL     1       1.374   5.661  20.549  0.00  0.00    +0.000 A 
ATOM     27  C   UNL     1       1.793   4.580  19.790  0.00  0.00    +0.000 A 
ATOM     28  N   UNL     1       1.454   3.325  20.157  0.00  0.00    +0.000 NA
ATOM     29  C   UNL     1       1.913   2.315  19.386  0.00  0.00    +0.000 A 
ATOM     30  C   UNL     1       2.709   2.502  18.272  0.00  0.00    +0.000 A 
ATOM     31  F   UNL     1       3.153   1.448  17.576  0.00  0.00    +0.000 F 
ATOM     32  C   UNL     1       3.061   3.798  17.900  0.00  0.00    +0.000 A 
ATOM     33  C   UNL     1       2.588   4.873  18.654  0.00  0.00    +0.000 A 
ATOM     34  N   UNL     1       2.922   6.131  18.294  0.00  0.00    +0.000 NA
BRANCH  24  36
ATOM     35  C   UNL     1       1.504   9.198  18.458  0.00  0.00    +0.000 C 
ATOM     36  O   UNL     1       2.699   8.445  18.637  0.00  0.00    +0.000 OA
ENDBRANCH  24  36
ENDBRANCH  23  32
ENDBRANCH  20  23
ENDBRANCH   1  20
TORSDOF 8
ENDMDL
MODEL 6
REMARK VINA RESULT:      -7.7      4.420     11.579
REMARK  Name = 
REMARK  9 active torsions:
REMARK  status: ('A' for Active; 'I' for Inactive)
REMARK    1  A    between atoms: C_1  and  O_2
REMARK    2  A    between atoms: O_2  and  C_3
REMARK    3  A    between atoms: C_11  and  C_12
REMARK    4  A    between atoms: C_12  and  C_13
REMARK    5  A    between atoms: C_13  and  O_14
REMARK    6  A    between atoms: C_13  and  C_15
REMARK    7  A    between atoms: C_18  and  N_19
REMARK    8  A    between atoms: N_19  and  C_20
REMARK    9  A    between atoms: C_20  and  C_21
REMARK                            x       y       z     vdW  Elec       q    Type
REMARK                         _______ _______ _______ _____ _____    ______ ____
ROOT
ATOM      1  C   UNL     1       2.537   3.667  18.488  0.00  0.00    +0.000 C 
ATOM      2  C   UNL     1       1.825   4.877  17.871  0.00  0.00    +0.000 C 
ATOM      3  C   UNL     1       2.423   6.210  18.304  0.00  0.00    +0.000 C 
ATOM      4  C   UNL     1       2.623   6.305  19.826  0.00  0.00    +0.000 C 
ATOM      5  C   UNL     1       3.224   4.993  20.379  0.00  0.00    +0.000 C 
ATOM      6  O   UNL     1       2.577   3.811  19.913  0.00  0.00    +0.000 OA
ENDROOT
BRANCH   4   7
ATOM      7  N   UNL     1       1.320   6.640  20.425  0.00  0.00    +0.000 NA
ATOM      8  H   UNL     1       0.900   5.781  20.790  0.00  0.00    +0.000 HD
BRANCH   7   9
ATOM      9  C   UNL     1       1.423   7.601  21.532  0.00  0.00    +0.000 C 
BRANCH   9  10
ATOM     10  C   UNL     1       0.986   8.965  21.071  0.00  0.00    +0.000 A 
ATOM     11  C   UNL     1       0.244   9.138  19.907  0.00  0.00    +0.000 A 
ATOM     12  C   UNL     1      -0.301  10.389  19.652  0.00  0.00    +0.000 A 
ATOM     13  C   UNL     1      -0.122  11.377  20.613  0.00  0.00    +0.000 A 
ATOM     14  N   UNL     1       0.641  11.198  21.709  0.00  0.00    +0.000 NA
ATOM     15  N   UNL     1       1.213   9.988  21.928  0.00  0.00    +0.000 NA
ATOM     16  O   UNL     1      -0.776  12.582  20.570  0.00  0.00    +0.000 OA
ATOM     17  C   UNL     1      -0.685  13.163  19.277  0.00  0.00    +0.000 C 
ATOM     18  C   UNL     1      -1.500  12.431  18.221  0.00  0.00    +0.000 C 
ATOM     19  S   UNL     1      -1.215  10.632  18.147  0.00  0.00    +0.000 S 
ENDBRANCH   9  10
ENDBRANCH   7   9
ENDBRANCH   4   7
BRANCH   1  20
ATOM     20  C   UNL     1       3.919   3.339  17.850  0.00  0.00    +0.000 C 
BRANCH  20  21
ATOM     21  O   UNL     1       4.311   1.985  18.111  0.00  0.00    +0.000 OA
ATOM     22  H   UNL     1       3.773   1.398  17.542  0.00  0.00    +0.000 HD
ENDBRANCH  20  21
BRANCH  20  23
ATOM     23  C   UNL     1       3.944   3.641  16.335  0.00  0.00    +0.000 C 
BRANCH  23  32
ATOM     24  C   UNL     1       5.668   3.430  12.534  0.00  0.00    +0.000 A 
ATOM     25  C   UNL     1       6.887   3.980  12.212  0.00  0.00    +0.000 A 
ATOM     26  C   UNL     1       7.541   4.741  13.181  0.00  0.00    +0.000 A 
ATOM     27  C   UNL     1       6.980   4.935  14.432  0.00  0.00    +0.000 A 
ATOM     28  N   UNL     1       7.615   5.697  15.348  0.00  0.00    +0.000 NA
ATOM     29  C   UNL     1       7.025   5.828  16.556  0.00  0.00    +0.000 A 
ATOM     30  C   UNL     1       5.833   5.216  16.896  0.00  0.00    +0.000 A 
ATOM     31  F   UNL     1       5.325   5.366  18.126  0.00  0.00    +0.000 F 
ATOM     32  C   UNL     1       5.183   4.426  15.951  0.00  0.00    +0.000 A 
ATOM     33  C   UNL     1       5.746   4.284  14.681  0.00  0.00    +0.000 A 
ATOM     34  N   UNL     1       5.116   3.523  13.760  0.00  0.00    +0.000 NA
BRANCH  24  36
ATOM     35  C   UNL     1       3.859   3.404  11.089  0.00  0.00    +0.000 C 
ATOM     36  O   UNL     1       5.010   2.711  11.557  0.00  0.00    +0.000 OA
ENDBRANCH  24  36
ENDBRANCH  23  32
ENDBRANCH  20  23
ENDBRANCH   1  20
TORSDOF 8
ENDMDL
MODEL 7
REMARK VINA RESULT:      -7.7      3.559     10.666
REMARK  Name = 
REMARK  9 active torsions:
REMARK  status: ('A' for Active; 'I' for Inactive)
REMARK    1  A    between atoms: C_1  and  O_2
REMARK    2  A    between atoms: O_2  and  C_3
REMARK    3  A    between atoms: C_11  and  C_12
REMARK    4  A    between atoms: C_12  and  C_13
REMARK    5  A    between atoms: C_13  and  O_14
REMARK    6  A    between atoms: C_13  and  C_15
REMARK    7  A    between atoms: C_18  and  N_19
REMARK    8  A    between atoms: N_19  and  C_20
REMARK    9  A    between atoms: C_20  and  C_21
REMARK                            x       y       z     vdW  Elec       q    Type
REMARK                         _______ _______ _______ _____ _____    ______ ____
ROOT
ATOM      1  C   UNL     1       1.827   8.758  20.372  0.00  0.00    +0.000 C 
ATOM      2  C   UNL     1       1.145   8.666  21.741  0.00  0.00    +0.000 C 
ATOM      3  C   UNL     1      -0.374   8.756  21.663  0.00  0.00    +0.000 C 
ATOM      4  C   UNL     1      -0.856   9.933  20.798  0.00  0.00    +0.000 C 
ATOM      5  C   UNL     1      -0.026  10.028  19.498  0.00  0.00    +0.000 C 
ATOM      6  O   UNL     1       1.384   9.942  19.696  0.00  0.00    +0.000 OA
ENDROOT
BRANCH   4   7
ATOM      7  N   UNL     1      -0.778  11.151  21.622  0.00  0.00    +0.000 NA
ATOM      8  H   UNL     1       0.204  11.430  21.697  0.00  0.00    +0.000 HD
BRANCH   7   9
ATOM      9  C   UNL     1      -1.530  12.279  21.057  0.00  0.00    +0.000 C 
BRANCH   9  10
ATOM     10  C   UNL     1      -2.774  12.525  21.868  0.00  0.00    +0.000 A 
ATOM     11  C   UNL     1      -3.964  12.932  21.273  0.00  0.00    +0.000 A 
ATOM     12  C   UNL     1      -5.118  12.938  22.044  0.00  0.00    +0.000 A 
ATOM     13  C   UNL     1      -5.022  12.474  23.351  0.00  0.00    +0.000 A 
ATOM     14  N   UNL     1      -3.849  12.130  23.917  0.00  0.00    +0.000 NA
ATOM     15  N   UNL     1      -2.715  12.175  23.175  0.00  0.00    +0.000 NA
ATOM     16  O   UNL     1      -6.120  12.245  24.140  0.00  0.00    +0.000 OA
ATOM     17  C   UNL     1      -7.014  13.348  24.098  0.00  0.00    +0.000 C 
ATOM     18  C   UNL     1      -7.729  13.502  22.764  0.00  0.00    +0.000 C 
ATOM     19  S   UNL     1      -6.636  13.496  21.306  0.00  0.00    +0.000 S 
ENDBRANCH   9  10
ENDBRANCH   7   9
ENDBRANCH   4   7
BRANCH   1  20
ATOM     20  C   UNL     1       1.720   7.466  19.511  0.00  0.00    +0.000 C 
BRANCH  20  21
ATOM     21  O   UNL     1       2.125   7.701  18.156  0.00  0.00    +0.000 OA
ATOM     22  H   UNL     1       1.700   8.528  17.851  0.00  0.00    +0.000 HD
ENDBRANCH  20  21
BRANCH  20  23
ATOM     23  C   UNL     1       2.511   6.291  20.129  0.00  0.00    +0.000 C 
BRANCH  23  32
ATOM     24  C   UNL     1       5.538   5.662  17.317  0.00  0.00    +0.000 A 
ATOM     25  C   UNL     1       5.491   4.692  16.341  0.00  0.00    +0.000 A 
ATOM     26  C   UNL     1       4.419   3.801  16.352  0.00  0.00    +0.000 A 
ATOM     27  C   UNL     1       3.428   3.890  17.317  0.00  0.00    +0.000 A 
ATOM     28  N   UNL     1       2.413   3.000  17.328  0.00  0.00    +0.000 NA
ATOM     29  C   UNL     1       1.468   3.156  18.281  0.00  0.00    +0.000 A 
ATOM     30  C   UNL     1       1.486   4.174  19.217  0.00  0.00    +0.000 A 
ATOM     31  F   UNL     1       0.495   4.283  20.112  0.00  0.00    +0.000 F 
ATOM     32  C   UNL     1       2.532   5.093  19.199  0.00  0.00    +0.000 A 
ATOM     33  C   UNL     1       3.543   4.954  18.246  0.00  0.00    +0.000 A 
ATOM     34  N   UNL     1       4.562   5.840  18.230  0.00  0.00    +0.000 NA
BRANCH  24  36
ATOM     35  C   UNL     1       7.550   6.170  18.344  0.00  0.00    +0.000 C 
ATOM     36  O   UNL     1       6.622   6.515  17.322  0.00  0.00    +0.000 OA
ENDBRANCH  24  36
ENDBRANCH  23  32
ENDBRANCH  20  23
ENDBRANCH   1  20
TORSDOF 8
ENDMDL
MODEL 8
REMARK VINA RESULT:      -7.6      4.406     11.739
REMARK  Name = 
REMARK  9 active torsions:
REMARK  status: ('A' for Active; 'I' for Inactive)
REMARK    1  A    between atoms: C_1  and  O_2
REMARK    2  A    between atoms: O_2  and  C_3
REMARK    3  A    between atoms: C_11  and  C_12
REMARK    4  A    between atoms: C_12  and  C_13
REMARK    5  A    between atoms: C_13  and  O_14
REMARK    6  A    between atoms: C_13  and  C_15
REMARK    7  A    between atoms: C_18  and  N_19
REMARK    8  A    between atoms: N_19  and  C_20
REMARK    9  A    between atoms: C_20  and  C_21
REMARK                            x       y       z     vdW  Elec       q    Type
REMARK                         _______ _______ _______ _____ _____    ______ ____
ROOT
ATOM      1  C   UNL     1       2.576   3.911  18.575  0.00  0.00    +0.000 C 
ATOM      2  C   UNL     1       1.906   5.027  17.766  0.00  0.00    +0.000 C 
ATOM      3  C   UNL     1       2.507   6.403  18.027  0.00  0.00    +0.000 C 
ATOM      4  C   UNL     1       2.652   6.712  19.526  0.00  0.00    +0.000 C 
ATOM      5  C   UNL     1       3.213   5.487  20.284  0.00  0.00    +0.000 C 
ATOM      6  O   UNL     1       2.566   4.257  19.966  0.00  0.00    +0.000 OA
ENDROOT
BRANCH   4   7
ATOM      7  N   UNL     1       1.333   7.142  20.021  0.00  0.00    +0.000 NA
ATOM      8  H   UNL     1       0.683   6.356  19.938  0.00  0.00    +0.000 HD
BRANCH   7   9
ATOM      9  C   UNL     1       1.354   7.567  21.428  0.00  0.00    +0.000 C 
BRANCH   9  10
ATOM     10  C   UNL     1       0.746   8.937  21.559  0.00  0.00    +0.000 A 
ATOM     11  C   UNL     1       0.134   9.570  20.482  0.00  0.00    +0.000 A 
ATOM     12  C   UNL     1      -0.584  10.734  20.722  0.00  0.00    +0.000 A 
ATOM     13  C   UNL     1      -0.699  11.158  22.041  0.00  0.00    +0.000 A 
ATOM     14  N   UNL     1      -0.058  10.554  23.060  0.00  0.00    +0.000 NA
ATOM     15  N   UNL     1       0.685   9.446  22.813  0.00  0.00    +0.000 NA
ATOM     16  O   UNL     1      -1.542  12.170  22.423  0.00  0.00    +0.000 OA
ATOM     17  C   UNL     1      -1.395  13.301  21.577  0.00  0.00    +0.000 C 
ATOM     18  C   UNL     1      -1.934  13.084  20.170  0.00  0.00    +0.000 C 
ATOM     19  S   UNL     1      -1.334  11.573  19.347  0.00  0.00    +0.000 S 
ENDBRANCH   9  10
ENDBRANCH   7   9
ENDBRANCH   4   7
BRANCH   1  20
ATOM     20  C   UNL     1       3.976   3.483  18.045  0.00  0.00    +0.000 C 
BRANCH  20  21
ATOM     21  O   UNL     1       4.318   2.158  18.474  0.00  0.00    +0.000 OA
ATOM     22  H   UNL     1       3.691   1.532  18.058  0.00  0.00    +0.000 HD
ENDBRANCH  20  21
BRANCH  20  23
ATOM     23  C   UNL     1       4.077   3.611  16.508  0.00  0.00    +0.000 C 
BRANCH  23  32
ATOM     24  C   UNL     1       5.702   3.519  12.659  0.00  0.00    +0.000 A 
ATOM     25  C   UNL     1       6.893   4.117  12.314  0.00  0.00    +0.000 A 
ATOM     26  C   UNL     1       7.546   4.885  13.277  0.00  0.00    +0.000 A 
ATOM     27  C   UNL     1       7.012   5.040  14.546  0.00  0.00    +0.000 A 
ATOM     28  N   UNL     1       7.646   5.811  15.456  0.00  0.00    +0.000 NA
ATOM     29  C   UNL     1       7.085   5.902  16.682  0.00  0.00    +0.000 A 
ATOM     30  C   UNL     1       5.925   5.243  17.044  0.00  0.00    +0.000 A 
ATOM     31  F   UNL     1       5.446   5.357  18.290  0.00  0.00    +0.000 F 
ATOM     32  C   UNL     1       5.277   4.445  16.104  0.00  0.00    +0.000 A 
ATOM     33  C   UNL     1       5.809   4.342  14.817  0.00  0.00    +0.000 A 
ATOM     34  N   UNL     1       5.181   3.574  13.902  0.00  0.00    +0.000 NA
BRANCH  24  36
ATOM     35  C   UNL     1       5.790   1.644  11.303  0.00  0.00    +0.000 C 
ATOM     36  O   UNL     1       5.043   2.793  11.689  0.00  0.00    +0.000 OA
ENDBRANCH  24  36
ENDBRANCH  23  32
ENDBRANCH  20  23
ENDBRANCH   1  20
TORSDOF 8
ENDMDL
MODEL 9
REMARK VINA RESULT:      -7.5      3.456     10.531
REMARK  Name = 
REMARK  9 active torsions:
REMARK  status: ('A' for Active; 'I' for Inactive)
REMARK    1  A    between atoms: C_1  and  O_2
REMARK    2  A    between atoms: O_2  and  C_3
REMARK    3  A    between atoms: C_11  and  C_12
REMARK    4  A    between atoms: C_12  and  C_13
REMARK    5  A    between atoms: C_13  and  O_14
REMARK    6  A    between atoms: C_13  and  C_15
REMARK    7  A    between atoms: C_18  and  N_19
REMARK    8  A    between atoms: N_19  and  C_20
REMARK    9  A    between atoms: C_20  and  C_21
REMARK                            x       y       z     vdW  Elec       q    Type
REMARK                         _______ _______ _______ _____ _____    ______ ____
ROOT
ATOM      1  C   UNL     1       1.926   8.945  20.091  0.00  0.00    +0.000 C 
ATOM      2  C   UNL     1       1.398   8.771  21.519  0.00  0.00    +0.000 C 
ATOM      3  C   UNL     1      -0.122   8.699  21.594  0.00  0.00    +0.000 C 
ATOM      4  C   UNL     1      -0.809   9.824  20.802  0.00  0.00    +0.000 C 
ATOM      5  C   UNL     1      -0.129  10.016  19.428  0.00  0.00    +0.000 C 
ATOM      6  O   UNL     1       1.295  10.080  19.484  0.00  0.00    +0.000 OA
ENDROOT
BRANCH   4   7
ATOM      7  N   UNL     1      -0.778  11.037  21.636  0.00  0.00    +0.000 NA
ATOM      8  H   UNL     1       0.178  11.174  21.975  0.00  0.00    +0.000 HD
BRANCH   7   9
ATOM      9  C   UNL     1      -1.181  12.249  20.908  0.00  0.00    +0.000 C 
BRANCH   9  10
ATOM     10  C   UNL     1      -2.645  12.516  21.127  0.00  0.00    +0.000 A 
ATOM     11  C   UNL     1      -3.534  12.624  20.062  0.00  0.00    +0.000 A 
ATOM     12  C   UNL     1      -4.894  12.662  20.338  0.00  0.00    +0.000 A 
ATOM     13  C   UNL     1      -5.284  12.525  21.665  0.00  0.00    +0.000 A 
ATOM     14  N   UNL     1      -4.403  12.469  22.682  0.00  0.00    +0.000 NA
ATOM     15  N   UNL     1      -3.074  12.484  22.411  0.00  0.00    +0.000 NA
ATOM     16  O   UNL     1      -6.592  12.347  22.039  0.00  0.00    +0.000 OA
ATOM     17  C   UNL     1      -7.437  13.290  21.396  0.00  0.00    +0.000 C 
ATOM     18  C   UNL     1      -7.599  13.045  19.902  0.00  0.00    +0.000 C 
ATOM     19  S   UNL     1      -6.035  12.843  18.988  0.00  0.00    +0.000 S 
ENDBRANCH   9  10
ENDBRANCH   7   9
ENDBRANCH   4   7
BRANCH   1  20
ATOM     20  C   UNL     1       1.870   7.655  19.222  0.00  0.00    +0.000 C 
BRANCH  20  21
ATOM     21  O   UNL     1       2.163   7.934  17.846  0.00  0.00    +0.000 OA
ATOM     22  H   UNL     1       1.657   7.304  17.294  0.00  0.00    +0.000 HD
ENDBRANCH  20  21
BRANCH  20  23
ATOM     23  C   UNL     1       2.795   6.546  19.771  0.00  0.00    +0.000 C 
BRANCH  23  32
ATOM     24  C   UNL     1       5.616   5.786  16.783  0.00  0.00    +0.000 A 
ATOM     25  C   UNL     1       5.500   4.776  15.855  0.00  0.00    +0.000 A 
ATOM     26  C   UNL     1       4.431   3.889  15.981  0.00  0.00    +0.000 A 
ATOM     27  C   UNL     1       3.512   4.023  17.008  0.00  0.00    +0.000 A 
ATOM     28  N   UNL     1       2.499   3.138  17.129  0.00  0.00    +0.000 NA
ATOM     29  C   UNL     1       1.624   3.338  18.139  0.00  0.00    +0.000 A 
ATOM     30  C   UNL     1       1.708   4.394  19.026  0.00  0.00    +0.000 A 
ATOM     31  F   UNL     1       0.783   4.545  19.983  0.00  0.00    +0.000 F 
ATOM     32  C   UNL     1       2.750   5.309  18.895  0.00  0.00    +0.000 A 
ATOM     33  C   UNL     1       3.692   5.126  17.880  0.00  0.00    +0.000 A 
ATOM     34  N   UNL     1       4.707   6.007  17.753  0.00  0.00    +0.000 NA
BRANCH  24  36
ATOM     35  C   UNL     1       7.376   6.775  17.917  0.00  0.00    +0.000 C 
ATOM     36  O   UNL     1       6.698   6.636  16.674  0.00  0.00    +0.000 OA
ENDBRANCH  24  36
ENDBRANCH  23  32
ENDBRANCH  20  23
ENDBRANCH   1  20
TORSDOF 8
ENDMDL
