MODEL 1
REMARK VINA RESULT:      -7.0      0.000      0.000
REMARK  Name = 
REMARK  7 active torsions:
REMARK  status: ('A' for Active; 'I' for Inactive)
REMARK    1  A    between atoms: C_1  and  C_2
REMARK    2  A    between atoms: C_2  and  C_3
REMARK    3  A    between atoms: C_6  and  C_7
REMARK    4  A    between atoms: C_7  and  N_8
REMARK    5  A    between atoms: C_9  and  C_11
REMARK    6  A    between atoms: C_19  and  C_20
REMARK    7  A    between atoms: C_20  and  O_21
REMARK                            x       y       z     vdW  Elec       q    Type
REMARK                         _______ _______ _______ _____ _____    ______ ____
ROOT
ATOM      1  C   UNL     1       2.076   7.306  19.471  0.00  0.00    +0.000 A 
ATOM      2  C   UNL     1       1.642   7.784  20.707  0.00  0.00    +0.000 A 
ATOM      3  C   UNL     1       1.071   9.059  20.786  0.00  0.00    +0.000 A 
ATOM      4  C   UNL     1       0.949   9.858  19.650  0.00  0.00    +0.000 A 
ATOM      5  N   UNL     1       0.489  11.155  19.735  0.00  0.00    +0.000 N 
ATOM      6  C   UNL     1      -0.583  11.525  20.652  0.00  0.00    +0.000 C 
ATOM      7  C   UNL     1      -1.540  12.341  19.795  0.00  0.00    +0.000 C 
ATOM      8  C   UNL     1      -0.628  13.047  18.807  0.00  0.00    +0.000 C 
ATOM      9  C   UNL     1       0.528  12.057  18.565  0.00  0.00    +0.000 C 
ATOM     10  N   UNL     1       1.396   9.405  18.459  0.00  0.00    +0.000 NA
ATOM     11  C   UNL     1       1.933   8.153  18.389  0.00  0.00    +0.000 A 
ENDROOT
BRANCH   1  13
ATOM     12  N   UNL     1       2.860   5.513  18.012  0.00  0.00    +0.000 N 
ATOM     13  C   UNL     1       2.741   5.994  19.296  0.00  0.00    +0.000 C 
ATOM     14  O   UNL     1       3.167   5.387  20.271  0.00  0.00    +0.000 OA
ATOM     15  H   UNL     1       2.638   6.077  17.198  0.00  0.00    +0.000 HD
BRANCH  12  16
ATOM     16  C   UNL     1       3.475   4.228  17.753  0.00  0.00    +0.000 C 
BRANCH  16  20
ATOM     17  C   UNL     1       6.423   4.593  15.591  0.00  0.00    +0.000 A 
ATOM     18  C   UNL     1       7.175   4.821  16.727  0.00  0.00    +0.000 A 
ATOM     19  S   UNL     1       6.183   4.748  18.119  0.00  0.00    +0.000 S 
ATOM     20  C   UNL     1       4.822   4.420  17.118  0.00  0.00    +0.000 A 
ATOM     21  N   UNL     1       5.072   4.364  15.822  0.00  0.00    +0.000 NA
BRANCH  17  23
ATOM     22  C   UNL     1       6.057   3.742  13.261  0.00  0.00    +0.000 C 
ATOM     23  C   UNL     1       6.935   4.570  14.186  0.00  0.00    +0.000 C 
ENDBRANCH  17  23
ENDBRANCH  16  20
ENDBRANCH  12  16
ENDBRANCH   1  13
BRANCH   9  24
ATOM     24  C   UNL     1       1.866  12.826  18.531  0.00  0.00    +0.000 C 
BRANCH  24  25
ATOM     25  O   UNL     1       2.767  12.334  17.544  0.00  0.00    +0.000 OA
ATOM     26  H   UNL     1       2.273  11.645  17.054  0.00  0.00    +0.000 HD
ENDBRANCH  24  25
ENDBRANCH   9  24
TORSDOF 6
ENDMDL
MODEL 2
REMARK VINA RESULT:      -7.0      3.043      8.490
REMARK  Name = 
REMARK  7 active torsions:
REMARK  status: ('A' for Active; 'I' for Inactive)
REMARK    1  A    between atoms: C_1  and  C_2
REMARK    2  A    between atoms: C_2  and  C_3
REMARK    3  A    between atoms: C_6  and  C_7
REMARK    4  A    between atoms: C_7  and  N_8
REMARK    5  A    between atoms: C_9  and  C_11
REMARK    6  A    between atoms: C_19  and  C_20
REMARK    7  A    between atoms: C_20  and  O_21
REMARK                            x       y       z     vdW  Elec       q    Type
REMARK                         _______ _______ _______ _____ _____    ______ ____
ROOT
ATOM      1  C   UNL     1       2.546   7.320  19.138  0.00  0.00    +0.000 A 
ATOM      2  C   UNL     1       2.906   7.999  17.974  0.00  0.00    +0.000 A 
ATOM      3  C   UNL     1       3.827   7.415  17.098  0.00  0.00    +0.000 A 
ATOM      4  C   UNL     1       4.398   6.175  17.385  0.00  0.00    +0.000 A 
ATOM      5  N   UNL     1       5.385   5.642  16.584  0.00  0.00    +0.000 N 
ATOM      6  C   UNL     1       5.354   5.789  15.134  0.00  0.00    +0.000 C 
ATOM      7  C   UNL     1       5.615   4.382  14.613  0.00  0.00    +0.000 C 
ATOM      8  C   UNL     1       6.547   3.780  15.650  0.00  0.00    +0.000 C 
ATOM      9  C   UNL     1       6.113   4.419  16.983  0.00  0.00    +0.000 C 
ATOM     10  N   UNL     1       4.070   5.532  18.526  0.00  0.00    +0.000 NA
ATOM     11  C   UNL     1       3.155   6.101  19.363  0.00  0.00    +0.000 A 
ENDROOT
BRANCH   1  13
ATOM     12  N   UNL     1       1.160   9.160  19.947  0.00  0.00    +0.000 N 
ATOM     13  C   UNL     1       1.622   7.880  20.152  0.00  0.00    +0.000 C 
ATOM     14  O   UNL     1       1.293   7.206  21.120  0.00  0.00    +0.000 OA
ATOM     15  H   UNL     1       1.319   9.662  19.079  0.00  0.00    +0.000 HD
BRANCH  12  16
ATOM     16  C   UNL     1       0.273   9.793  20.900  0.00  0.00    +0.000 C 
BRANCH  16  20
ATOM     17  C   UNL     1      -2.186  11.313  18.634  0.00  0.00    +0.000 A 
ATOM     18  C   UNL     1      -2.371  12.310  19.573  0.00  0.00    +0.000 A 
ATOM     19  S   UNL     1      -1.366  12.039  20.930  0.00  0.00    +0.000 S 
ATOM     20  C   UNL     1      -0.755  10.616  20.181  0.00  0.00    +0.000 A 
ATOM     21  N   UNL     1      -1.258  10.343  18.990  0.00  0.00    +0.000 NA
BRANCH  17  23
ATOM     22  C   UNL     1      -2.365  10.047  16.477  0.00  0.00    +0.000 C 
ATOM     23  C   UNL     1      -2.881  11.207  17.314  0.00  0.00    +0.000 C 
ENDBRANCH  17  23
ENDBRANCH  16  20
ENDBRANCH  12  16
ENDBRANCH   1  13
BRANCH   9  24
ATOM     24  C   UNL     1       7.365   4.790  17.807  0.00  0.00    +0.000 C 
BRANCH  24  25
ATOM     25  O   UNL     1       7.092   4.943  19.196  0.00  0.00    +0.000 OA
ATOM     26  H   UNL     1       7.328   5.868  19.413  0.00  0.00    +0.000 HD
ENDBRANCH  24  25
ENDBRANCH   9  24
TORSDOF 6
ENDMDL
MODEL 3
REMARK VINA RESULT:      -7.0      5.267      8.051
REMARK  Name = 
REMARK  7 active torsions:
REMARK  status: ('A' for Active; 'I' for Inactive)
REMARK    1  A    between atoms: C_1  and  C_2
REMARK    2  A    between atoms: C_2  and  C_3
REMARK    3  A    between atoms: C_6  and  C_7
REMARK    4  A    between atoms: C_7  and  N_8
REMARK    5  A    between atoms: C_9  and  C_11
REMARK    6  A    between atoms: C_19  and  C_20
REMARK    7  A    between atoms: C_20  and  O_21
REMARK                            x       y       z     vdW  Elec       q    Type
REMARK                         _______ _______ _______ _____ _____    ______ ____
ROOT
ATOM      1  C   UNL     1       6.066   6.529  17.769  0.00  0.00    +0.000 A 
ATOM      2  C   UNL     1       4.766   6.820  17.357  0.00  0.00    +0.000 A 
ATOM      3  C   UNL     1       3.707   6.032  17.822  0.00  0.00    +0.000 A 
ATOM      4  C   UNL     1       3.942   4.955  18.676  0.00  0.00    +0.000 A 
ATOM      5  N   UNL     1       2.920   4.109  19.054  0.00  0.00    +0.000 N 
ATOM      6  C   UNL     1       1.579   4.608  19.330  0.00  0.00    +0.000 C 
ATOM      7  C   UNL     1       1.208   3.962  20.658  0.00  0.00    +0.000 C 
ATOM      8  C   UNL     1       1.906   2.614  20.611  0.00  0.00    +0.000 C 
ATOM      9  C   UNL     1       3.197   2.870  19.810  0.00  0.00    +0.000 C 
ATOM     10  N   UNL     1       5.203   4.658  19.052  0.00  0.00    +0.000 NA
ATOM     11  C   UNL     1       6.226   5.444  18.609  0.00  0.00    +0.000 A 
ENDROOT
BRANCH   1  13
ATOM     12  N   UNL     1       7.564   8.450  17.925  0.00  0.00    +0.000 N 
ATOM     13  C   UNL     1       7.255   7.270  17.288  0.00  0.00    +0.000 C 
ATOM     14  O   UNL     1       7.923   6.823  16.364  0.00  0.00    +0.000 OA
ATOM     15  H   UNL     1       7.098   8.746  18.777  0.00  0.00    +0.000 HD
BRANCH  12  16
ATOM     16  C   UNL     1       8.695   9.249  17.504  0.00  0.00    +0.000 C 
BRANCH  16  20
ATOM     17  C   UNL     1       9.257  11.574  20.292  0.00  0.00    +0.000 A 
ATOM     18  C   UNL     1       9.115  12.616  19.396  0.00  0.00    +0.000 A 
ATOM     19  S   UNL     1       8.811  12.009  17.826  0.00  0.00    +0.000 S 
ATOM     20  C   UNL     1       8.889  10.405  18.442  0.00  0.00    +0.000 A 
ATOM     21  N   UNL     1       9.128  10.307  19.739  0.00  0.00    +0.000 NA
BRANCH  17  23
ATOM     22  C   UNL     1       8.247  11.789  22.577  0.00  0.00    +0.000 C 
ATOM     23  C   UNL     1       9.526  11.703  21.758  0.00  0.00    +0.000 C 
ENDBRANCH  17  23
ENDBRANCH  16  20
ENDBRANCH  12  16
ENDBRANCH   1  13
BRANCH   9  24
ATOM     24  C   UNL     1       3.440   1.696  18.837  0.00  0.00    +0.000 C 
BRANCH  24  25
ATOM     25  O   UNL     1       2.532   1.683  17.741  0.00  0.00    +0.000 OA
ATOM     26  H   UNL     1       1.648   1.846  18.127  0.00  0.00    +0.000 HD
ENDBRANCH  24  25
ENDBRANCH   9  24
TORSDOF 6
ENDMDL
MODEL 4
REMARK VINA RESULT:      -6.8      2.915      8.944
REMARK  Name = 
REMARK  7 active torsions:
REMARK  status: ('A' for Active; 'I' for Inactive)
REMARK    1  A    between atoms: C_1  and  C_2
REMARK    2  A    between atoms: C_2  and  C_3
REMARK    3  A    between atoms: C_6  and  C_7
REMARK    4  A    between atoms: C_7  and  N_8
REMARK    5  A    between atoms: C_9  and  C_11
REMARK    6  A    between atoms: C_19  and  C_20
REMARK    7  A    between atoms: C_20  and  O_21
REMARK                            x       y       z     vdW  Elec       q    Type
REMARK                         _______ _______ _______ _____ _____    ______ ____
ROOT
ATOM      1  C   UNL     1       2.643   6.630  19.483  0.00  0.00    +0.000 A 
ATOM      2  C   UNL     1       2.888   7.489  18.412  0.00  0.00    +0.000 A 
ATOM      3  C   UNL     1       3.804   7.109  17.424  0.00  0.00    +0.000 A 
ATOM      4  C   UNL     1       4.482   5.894  17.510  0.00  0.00    +0.000 A 
ATOM      5  N   UNL     1       5.464   5.559  16.601  0.00  0.00    +0.000 N 
ATOM      6  C   UNL     1       5.344   5.900  15.189  0.00  0.00    +0.000 C 
ATOM      7  C   UNL     1       5.685   4.605  14.465  0.00  0.00    +0.000 C 
ATOM      8  C   UNL     1       6.713   3.946  15.367  0.00  0.00    +0.000 C 
ATOM      9  C   UNL     1       6.303   4.358  16.793  0.00  0.00    +0.000 C 
ATOM     10  N   UNL     1       4.265   5.076  18.562  0.00  0.00    +0.000 NA
ATOM     11  C   UNL     1       3.356   5.447  19.509  0.00  0.00    +0.000 A 
ENDROOT
BRANCH   1  13
ATOM     12  N   UNL     1       1.680   8.284  20.998  0.00  0.00    +0.000 N 
ATOM     13  C   UNL     1       1.735   6.967  20.603  0.00  0.00    +0.000 C 
ATOM     14  O   UNL     1       1.063   6.090  21.133  0.00  0.00    +0.000 OA
ATOM     15  H   UNL     1       2.125   9.028  20.469  0.00  0.00    +0.000 HD
BRANCH  12  16
ATOM     16  C   UNL     1       0.837   8.697  22.100  0.00  0.00    +0.000 C 
BRANCH  16  20
ATOM     17  C   UNL     1      -0.563  12.090  22.237  0.00  0.00    +0.000 A 
ATOM     18  C   UNL     1      -0.180  12.255  20.920  0.00  0.00    +0.000 A 
ATOM     19  S   UNL     1       0.579  10.836  20.342  0.00  0.00    +0.000 S 
ATOM     20  C   UNL     1       0.349  10.099  21.879  0.00  0.00    +0.000 A 
ATOM     21  N   UNL     1      -0.255  10.851  22.783  0.00  0.00    +0.000 NA
BRANCH  17  23
ATOM     22  C   UNL     1      -2.566  13.581  22.467  0.00  0.00    +0.000 C 
ATOM     23  C   UNL     1      -1.261  13.106  23.086  0.00  0.00    +0.000 C 
ENDBRANCH  17  23
ENDBRANCH  16  20
ENDBRANCH  12  16
ENDBRANCH   1  13
BRANCH   9  24
ATOM     24  C   UNL     1       7.565   4.717  17.608  0.00  0.00    +0.000 C 
BRANCH  24  25
ATOM     25  O   UNL     1       7.338   4.719  19.014  0.00  0.00    +0.000 OA
ATOM     26  H   UNL     1       8.225   4.777  19.425  0.00  0.00    +0.000 HD
ENDBRANCH  24  25
ENDBRANCH   9  24
TORSDOF 6
ENDMDL
MODEL 5
REMARK VINA RESULT:      -6.8      3.048      8.494
REMARK  Name = 
REMARK  7 active torsions:
REMARK  status: ('A' for Active; 'I' for Inactive)
REMARK    1  A    between atoms: C_1  and  C_2
REMARK    2  A    between atoms: C_2  and  C_3
REMARK    3  A    between atoms: C_6  and  C_7
REMARK    4  A    between atoms: C_7  and  N_8
REMARK    5  A    between atoms: C_9  and  C_11
REMARK    6  A    between atoms: C_19  and  C_20
REMARK    7  A    between atoms: C_20  and  O_21
REMARK                            x       y       z     vdW  Elec       q    Type
REMARK                         _______ _______ _______ _____ _____    ______ ____
ROOT
ATOM      1  C   UNL     1       2.635   6.771  19.467  0.00  0.00    +0.000 A 
ATOM      2  C   UNL     1       2.886   7.583  18.361  0.00  0.00    +0.000 A 
ATOM      3  C   UNL     1       3.804   7.158  17.394  0.00  0.00    +0.000 A 
ATOM      4  C   UNL     1       4.477   5.944  17.533  0.00  0.00    +0.000 A 
ATOM      5  N   UNL     1       5.460   5.567  16.643  0.00  0.00    +0.000 N 
ATOM      6  C   UNL     1       5.346   5.848  15.217  0.00  0.00    +0.000 C 
ATOM      7  C   UNL     1       5.683   4.522  14.549  0.00  0.00    +0.000 C 
ATOM      8  C   UNL     1       6.706   3.898  15.482  0.00  0.00    +0.000 C 
ATOM      9  C   UNL     1       6.294   4.372  16.888  0.00  0.00    +0.000 C 
ATOM     10  N   UNL     1       4.253   5.173  18.618  0.00  0.00    +0.000 NA
ATOM     11  C   UNL     1       3.342   5.587  19.545  0.00  0.00    +0.000 A 
ENDROOT
BRANCH   1  13
ATOM     12  N   UNL     1       1.737   8.477  20.964  0.00  0.00    +0.000 N 
ATOM     13  C   UNL     1       1.724   7.159  20.568  0.00  0.00    +0.000 C 
ATOM     14  O   UNL     1       0.993   6.322  21.083  0.00  0.00    +0.000 OA
ATOM     15  H   UNL     1       2.235   9.194  20.447  0.00  0.00    +0.000 HD
BRANCH  12  16
ATOM     16  C   UNL     1       0.896   8.936  22.050  0.00  0.00    +0.000 C 
BRANCH  16  20
ATOM     17  C   UNL     1      -1.150  11.382  20.226  0.00  0.00    +0.000 A 
ATOM     18  C   UNL     1      -1.580  11.868  21.446  0.00  0.00    +0.000 A 
ATOM     19  S   UNL     1      -0.852  10.992  22.722  0.00  0.00    +0.000 S 
ATOM     20  C   UNL     1      -0.017  10.027  21.569  0.00  0.00    +0.000 A 
ATOM     21  N   UNL     1      -0.254  10.324  20.303  0.00  0.00    +0.000 NA
BRANCH  17  23
ATOM     22  C   UNL     1      -2.259  10.834  18.045  0.00  0.00    +0.000 C 
ATOM     23  C   UNL     1      -1.559  11.894  18.881  0.00  0.00    +0.000 C 
ENDBRANCH  17  23
ENDBRANCH  16  20
ENDBRANCH  12  16
ENDBRANCH   1  13
BRANCH   9  24
ATOM     24  C   UNL     1       7.554   4.760  17.692  0.00  0.00    +0.000 C 
BRANCH  24  25
ATOM     25  O   UNL     1       7.324   4.819  19.096  0.00  0.00    +0.000 OA
ATOM     26  H   UNL     1       8.211   4.797  19.511  0.00  0.00    +0.000 HD
ENDBRANCH  24  25
ENDBRANCH   9  24
TORSDOF 6
ENDMDL
MODEL 6
REMARK VINA RESULT:      -6.8      3.598      8.856
REMARK  Name = 
REMARK  7 active torsions:
REMARK  status: ('A' for Active; 'I' for Inactive)
REMARK    1  A    between atoms: C_1  and  C_2
REMARK    2  A    between atoms: C_2  and  C_3
REMARK    3  A    between atoms: C_6  and  C_7
REMARK    4  A    between atoms: C_7  and  N_8
REMARK    5  A    between atoms: C_9  and  C_11
REMARK    6  A    between atoms: C_19  and  C_20
REMARK    7  A    between atoms: C_20  and  O_21
REMARK                            x       y       z     vdW  Elec       q    Type
REMARK                         _______ _______ _______ _____ _____    ______ ____
ROOT
ATOM      1  C   UNL     1       1.782   7.524  20.137  0.00  0.00    +0.000 A 
ATOM      2  C   UNL     1       2.494   7.510  18.939  0.00  0.00    +0.000 A 
ATOM      3  C   UNL     1       2.948   6.289  18.425  0.00  0.00    +0.000 A 
ATOM      4  C   UNL     1       2.709   5.096  19.107  0.00  0.00    +0.000 A 
ATOM      5  N   UNL     1       3.243   3.904  18.666  0.00  0.00    +0.000 N 
ATOM      6  C   UNL     1       3.340   3.590  17.246  0.00  0.00    +0.000 C 
ATOM      7  C   UNL     1       2.774   2.180  17.138  0.00  0.00    +0.000 C 
ATOM      8  C   UNL     1       3.174   1.530  18.451  0.00  0.00    +0.000 C 
ATOM      9  C   UNL     1       3.141   2.675  19.481  0.00  0.00    +0.000 C 
ATOM     10  N   UNL     1       2.044   5.115  20.281  0.00  0.00    +0.000 NA
ATOM     11  C   UNL     1       1.589   6.307  20.763  0.00  0.00    +0.000 A 
ENDROOT
BRANCH   1  13
ATOM     12  N   UNL     1       0.829   9.765  19.967  0.00  0.00    +0.000 N 
ATOM     13  C   UNL     1       1.309   8.769  20.786  0.00  0.00    +0.000 C 
ATOM     14  O   UNL     1       1.348   8.877  22.006  0.00  0.00    +0.000 OA
ATOM     15  H   UNL     1       0.666   9.621  18.976  0.00  0.00    +0.000 HD
BRANCH  12  16
ATOM     16  C   UNL     1       0.370  11.023  20.517  0.00  0.00    +0.000 C 
BRANCH  16  20
ATOM     17  C   UNL     1      -2.697  11.486  18.549  0.00  0.00    +0.000 A 
ATOM     18  C   UNL     1      -3.160  12.321  19.547  0.00  0.00    +0.000 A 
ATOM     19  S   UNL     1      -2.001  12.449  20.798  0.00  0.00    +0.000 S 
ATOM     20  C   UNL     1      -0.963  11.387  19.930  0.00  0.00    +0.000 A 
ATOM     21  N   UNL     1      -1.435  10.952  18.775  0.00  0.00    +0.000 NA
BRANCH  17  23
ATOM     22  C   UNL     1      -2.703  10.060  16.487  0.00  0.00    +0.000 C 
ATOM     23  C   UNL     1      -3.422  11.132  17.289  0.00  0.00    +0.000 C 
ENDBRANCH  17  23
ENDBRANCH  16  20
ENDBRANCH  12  16
ENDBRANCH   1  13
BRANCH   9  24
ATOM     24  C   UNL     1       4.360   2.557  20.420  0.00  0.00    +0.000 C 
BRANCH  24  25
ATOM     25  O   UNL     1       5.241   1.498  20.062  0.00  0.00    +0.000 OA
ATOM     26  H   UNL     1       5.885   1.888  19.436  0.00  0.00    +0.000 HD
ENDBRANCH  24  25
ENDBRANCH   9  24
TORSDOF 6
ENDMDL
MODEL 7
REMARK VINA RESULT:      -6.7      2.892      4.081
REMARK  Name = 
REMARK  7 active torsions:
REMARK  status: ('A' for Active; 'I' for Inactive)
REMARK    1  A    between atoms: C_1  and  C_2
REMARK    2  A    between atoms: C_2  and  C_3
REMARK    3  A    between atoms: C_6  and  C_7
REMARK    4  A    between atoms: C_7  and  N_8
REMARK    5  A    between atoms: C_9  and  C_11
REMARK    6  A    between atoms: C_19  and  C_20
REMARK    7  A    between atoms: C_20  and  O_21
REMARK                            x       y       z     vdW  Elec       q    Type
REMARK                         _______ _______ _______ _____ _____    ______ ____
ROOT
ATOM      1  C   UNL     1       1.231   9.318  19.418  0.00  0.00    +0.000 A 
ATOM      2  C   UNL     1       1.026   8.861  20.719  0.00  0.00    +0.000 A 
ATOM      3  C   UNL     1       0.333   9.667  21.628  0.00  0.00    +0.000 A 
ATOM      4  C   UNL     1      -0.138  10.925  21.251  0.00  0.00    +0.000 A 
ATOM      5  N   UNL     1      -0.727  11.771  22.167  0.00  0.00    +0.000 N 
ATOM      6  C   UNL     1      -1.605  11.267  23.216  0.00  0.00    +0.000 C 
ATOM      7  C   UNL     1      -2.823  12.177  23.149  0.00  0.00    +0.000 C 
ATOM      8  C   UNL     1      -2.250  13.518  22.727  0.00  0.00    +0.000 C 
ATOM      9  C   UNL     1      -1.063  13.165  21.811  0.00  0.00    +0.000 C 
ATOM     10  N   UNL     1       0.086  11.378  19.999  0.00  0.00    +0.000 NA
ATOM     11  C   UNL     1       0.745  10.575  19.115  0.00  0.00    +0.000 A 
ENDROOT
BRANCH   1  13
ATOM     12  N   UNL     1       2.612   7.398  18.812  0.00  0.00    +0.000 N 
ATOM     13  C   UNL     1       2.000   8.561  18.403  0.00  0.00    +0.000 C 
ATOM     14  O   UNL     1       2.064   8.972  17.251  0.00  0.00    +0.000 OA
ATOM     15  H   UNL     1       2.442   6.987  19.723  0.00  0.00    +0.000 HD
BRANCH  12  16
ATOM     16  C   UNL     1       3.403   6.610  17.890  0.00  0.00    +0.000 C 
BRANCH  16  20
ATOM     17  C   UNL     1       2.129   3.272  18.745  0.00  0.00    +0.000 A 
ATOM     18  C   UNL     1       3.039   2.743  17.850  0.00  0.00    +0.000 A 
ATOM     19  S   UNL     1       3.955   3.994  17.127  0.00  0.00    +0.000 S 
ATOM     20  C   UNL     1       3.081   5.153  18.051  0.00  0.00    +0.000 A 
ATOM     21  N   UNL     1       2.157   4.656  18.855  0.00  0.00    +0.000 NA
BRANCH  17  23
ATOM     22  C   UNL     1       1.260   2.830  21.055  0.00  0.00    +0.000 C 
ATOM     23  C   UNL     1       1.157   2.495  19.575  0.00  0.00    +0.000 C 
ENDBRANCH  17  23
ENDBRANCH  16  20
ENDBRANCH  12  16
ENDBRANCH   1  13
BRANCH   9  24
ATOM     24  C   UNL     1       0.127  14.096  22.129  0.00  0.00    +0.000 C 
BRANCH  24  25
ATOM     25  O   UNL     1       1.082  14.161  21.074  0.00  0.00    +0.000 OA
ATOM     26  H   UNL     1       0.583  13.974  20.253  0.00  0.00    +0.000 HD
ENDBRANCH  24  25
ENDBRANCH   9  24
TORSDOF 6
ENDMDL
MODEL 8
REMARK VINA RESULT:      -6.6      1.443      1.477
REMARK  Name = 
REMARK  7 active torsions:
REMARK  status: ('A' for Active; 'I' for Inactive)
REMARK    1  A    between atoms: C_1  and  C_2
REMARK    2  A    between atoms: C_2  and  C_3
REMARK    3  A    between atoms: C_6  and  C_7
REMARK    4  A    between atoms: C_7  and  N_8
REMARK    5  A    between atoms: C_9  and  C_11
REMARK    6  A    between atoms: C_19  and  C_20
REMARK    7  A    between atoms: C_20  and  O_21
REMARK                            x       y       z     vdW  Elec       q    Type
REMARK                         _______ _______ _______ _____ _____    ______ ____
ROOT
ATOM      1  C   UNL     1       1.986   7.416  19.553  0.00  0.00    +0.000 A 
ATOM      2  C   UNL     1       1.576   7.606  20.872  0.00  0.00    +0.000 A 
ATOM      3  C   UNL     1       1.040   8.841  21.253  0.00  0.00    +0.000 A 
ATOM      4  C   UNL     1       0.929   9.884  20.333  0.00  0.00    +0.000 A 
ATOM      5  N   UNL     1       0.504  11.136  20.722  0.00  0.00    +0.000 N 
ATOM      6  C   UNL     1      -0.548  11.310  21.717  0.00  0.00    +0.000 C 
ATOM      7  C   UNL     1      -1.491  12.324  21.085  0.00  0.00    +0.000 C 
ATOM      8  C   UNL     1      -0.570  13.217  20.273  0.00  0.00    +0.000 C 
ATOM      9  C   UNL     1       0.556  12.283  19.792  0.00  0.00    +0.000 C 
ATOM     10  N   UNL     1       1.353   9.708  19.063  0.00  0.00    +0.000 NA
ATOM     11  C   UNL     1       1.855   8.493  18.698  0.00  0.00    +0.000 A 
ENDROOT
BRANCH   1  13
ATOM     12  N   UNL     1       3.577   5.592  19.869  0.00  0.00    +0.000 N 
ATOM     13  C   UNL     1       2.614   6.165  19.070  0.00  0.00    +0.000 C 
ATOM     14  O   UNL     1       2.266   5.676  18.002  0.00  0.00    +0.000 OA
ATOM     15  H   UNL     1       3.762   5.916  20.813  0.00  0.00    +0.000 HD
BRANCH  12  16
ATOM     16  C   UNL     1       4.259   4.382  19.462  0.00  0.00    +0.000 C 
BRANCH  16  20
ATOM     17  C   UNL     1       6.687   4.925  16.758  0.00  0.00    +0.000 A 
ATOM     18  C   UNL     1       7.529   5.502  17.689  0.00  0.00    +0.000 A 
ATOM     19  S   UNL     1       6.801   5.488  19.236  0.00  0.00    +0.000 S 
ATOM     20  C   UNL     1       5.416   4.718  18.566  0.00  0.00    +0.000 A 
ATOM     21  N   UNL     1       5.474   4.478  17.267  0.00  0.00    +0.000 NA
BRANCH  17  23
ATOM     22  C   UNL     1       5.866   3.999  14.578  0.00  0.00    +0.000 C 
ATOM     23  C   UNL     1       6.973   4.748  15.301  0.00  0.00    +0.000 C 
ENDBRANCH  17  23
ENDBRANCH  16  20
ENDBRANCH  12  16
ENDBRANCH   1  13
BRANCH   9  24
ATOM     24  C   UNL     1       1.914  13.007  19.915  0.00  0.00    +0.000 C 
BRANCH  24  25
ATOM     25  O   UNL     1       2.377  13.098  21.259  0.00  0.00    +0.000 OA
ATOM     26  H   UNL     1       2.035  13.949  21.600  0.00  0.00    +0.000 HD
ENDBRANCH  24  25
ENDBRANCH   9  24
TORSDOF 6
ENDMDL
MODEL 9
REMARK VINA RESULT:      -6.6      2.809      8.972
REMARK  Name = 
REMARK  7 active torsions:
REMARK  status: ('A' for Active; 'I' for Inactive)
REMARK    1  A    between atoms: C_1  and  C_2
REMARK    2  A    between atoms: C_2  and  C_3
REMARK    3  A    between atoms: C_6  and  C_7
REMARK    4  A    between atoms: C_7  and  N_8
REMARK    5  A    between atoms: C_9  and  C_11
REMARK    6  A    between atoms: C_19  and  C_20
REMARK    7  A    between atoms: C_20  and  O_21
REMARK                            x       y       z     vdW  Elec       q    Type
REMARK                         _______ _______ _______ _____ _____    ______ ____
ROOT
ATOM      1  C   UNL     1       2.515   7.297  19.242  0.00  0.00    +0.000 A 
ATOM      2  C   UNL     1       2.861   8.000  18.089  0.00  0.00    +0.000 A 
ATOM      3  C   UNL     1       3.780   7.440  17.195  0.00  0.00    +0.000 A 
ATOM      4  C   UNL     1       4.362   6.199  17.454  0.00  0.00    +0.000 A 
ATOM      5  N   UNL     1       5.348   5.688  16.636  0.00  0.00    +0.000 N 
ATOM      6  C   UNL     1       5.304   5.862  15.189  0.00  0.00    +0.000 C 
ATOM      7  C   UNL     1       5.572   4.468  14.640  0.00  0.00    +0.000 C 
ATOM      8  C   UNL     1       6.516   3.854  15.658  0.00  0.00    +0.000 C 
ATOM      9  C   UNL     1       6.088   4.464  17.006  0.00  0.00    +0.000 C 
ATOM     10  N   UNL     1       4.047   5.533  18.585  0.00  0.00    +0.000 NA
ATOM     11  C   UNL     1       3.135   6.079  19.440  0.00  0.00    +0.000 A 
ENDROOT
BRANCH   1  13
ATOM     12  N   UNL     1       1.181   9.136  20.135  0.00  0.00    +0.000 N 
ATOM     13  C   UNL     1       1.595   7.830  20.273  0.00  0.00    +0.000 C 
ATOM     14  O   UNL     1       1.226   7.114  21.196  0.00  0.00    +0.000 OA
ATOM     15  H   UNL     1       1.371   9.680  19.301  0.00  0.00    +0.000 HD
BRANCH  12  16
ATOM     16  C   UNL     1       0.301   9.744  21.111  0.00  0.00    +0.000 C 
BRANCH  16  20
ATOM     17  C   UNL     1      -2.149  12.291  20.105  0.00  0.00    +0.000 A 
ATOM     18  C   UNL     1      -1.946  11.906  18.794  0.00  0.00    +0.000 A 
ATOM     19  S   UNL     1      -0.798  10.640  18.719  0.00  0.00    +0.000 S 
ATOM     20  C   UNL     1      -0.647  10.689  20.432  0.00  0.00    +0.000 A 
ATOM     21  N   UNL     1      -1.399  11.589  21.041  0.00  0.00    +0.000 NA
BRANCH  17  23
ATOM     22  C   UNL     1      -4.064  12.858  21.621  0.00  0.00    +0.000 C 
ATOM     23  C   UNL     1      -3.082  13.362  20.575  0.00  0.00    +0.000 C 
ENDBRANCH  17  23
ENDBRANCH  16  20
ENDBRANCH  12  16
ENDBRANCH   1  13
BRANCH   9  24
ATOM     24  C   UNL     1       7.343   4.830  17.828  0.00  0.00    +0.000 C 
BRANCH  24  25
ATOM     25  O   UNL     1       7.087   4.921  19.226  0.00  0.00    +0.000 OA
ATOM     26  H   UNL     1       6.434   4.219  19.422  0.00  0.00    +0.000 HD
ENDBRANCH  24  25
ENDBRANCH   9  24
TORSDOF 6
ENDMDL
