MODEL 1
REMARK VINA RESULT:      -8.3      0.000      0.000
REMARK  Name = 
REMARK  5 active torsions:
REMARK  status: ('A' for Active; 'I' for Inactive)
REMARK    1  A    between atoms: C_1  and  C_2
REMARK    2  A    between atoms: C_5  and  N_6
REMARK    3  A    between atoms: N_11  and  C_12
REMARK    4  A    between atoms: C_16  and  C_17
REMARK    5  A    between atoms: C_18  and  C_19
REMARK                            x       y       z     vdW  Elec       q    Type
REMARK                         _______ _______ _______ _____ _____    ______ ____
ROOT
ATOM      1  N   UNL     1       0.055  10.481  21.858  0.00  0.00    +0.000 N 
ATOM      2  N   UNL     1       0.565   9.756  22.903  0.00  0.00    +0.000 NA
ATOM      3  C   UNL     1       1.282   8.792  22.325  0.00  0.00    +0.000 A 
ATOM      4  C   UNL     1       1.286   8.871  20.924  0.00  0.00    +0.000 A 
ATOM      5  C   UNL     1       1.834   8.159  19.847  0.00  0.00    +0.000 A 
ATOM      6  N   UNL     1       2.641   7.025  20.012  0.00  0.00    +0.000 N 
ATOM      7  N   UNL     1       1.577   8.625  18.597  0.00  0.00    +0.000 NA
ATOM      8  C   UNL     1       0.811   9.713  18.441  0.00  0.00    +0.000 A 
ATOM      9  N   UNL     1       0.225  10.435  19.398  0.00  0.00    +0.000 NA
ATOM     10  C   UNL     1       0.491   9.970  20.635  0.00  0.00    +0.000 A 
ATOM     11  H   UNL     1       2.842   6.778  20.970  0.00  0.00    +0.000 HD
ENDROOT
BRANCH   6  12
ATOM     12  C   UNL     1       2.760   5.921  19.133  0.00  0.00    +0.000 A 
ATOM     13  C   UNL     1       3.649   5.965  18.047  0.00  0.00    +0.000 A 
ATOM     14  C   UNL     1       3.775   4.892  17.173  0.00  0.00    +0.000 A 
ATOM     15  C   UNL     1       3.020   3.745  17.378  0.00  0.00    +0.000 A 
ATOM     16  C   UNL     1       2.128   3.653  18.458  0.00  0.00    +0.000 A 
ATOM     17  C   UNL     1       1.351   2.376  18.631  0.00  0.00    +0.000 C 
ATOM     18  C   UNL     1       1.994   4.749  19.348  0.00  0.00    +0.000 A 
ATOM     19  C   UNL     1       1.083   4.674  20.551  0.00  0.00    +0.000 C 
ENDBRANCH   6  12
BRANCH   1  24
ATOM     20  C   UNL     1      -3.301  15.007  22.989  0.00  0.00    +0.000 C 
ATOM     21  C   UNL     1      -2.446  13.814  22.686  0.00  0.00    +0.000 A 
ATOM     22  C   UNL     1      -2.663  12.584  23.313  0.00  0.00    +0.000 A 
ATOM     23  C   UNL     1      -1.845  11.485  23.026  0.00  0.00    +0.000 A 
ATOM     24  C   UNL     1      -0.790  11.604  22.108  0.00  0.00    +0.000 A 
ATOM     25  C   UNL     1      -0.591  12.832  21.466  0.00  0.00    +0.000 A 
ATOM     26  C   UNL     1      -1.412  13.925  21.752  0.00  0.00    +0.000 A 
ENDBRANCH   1  24
TORSDOF 2
ENDMDL
MODEL 2
REMARK VINA RESULT:      -8.2      1.992      2.824
REMARK  Name = 
REMARK  5 active torsions:
REMARK  status: ('A' for Active; 'I' for Inactive)
REMARK    1  A    between atoms: C_1  and  C_2
REMARK    2  A    between atoms: C_5  and  N_6
REMARK    3  A    between atoms: N_11  and  C_12
REMARK    4  A    between atoms: C_16  and  C_17
REMARK    5  A    between atoms: C_18  and  C_19
REMARK                            x       y       z     vdW  Elec       q    Type
REMARK                         _______ _______ _______ _____ _____    ______ ____
ROOT
ATOM      1  N   UNL     1       0.970  10.620  20.541  0.00  0.00    +0.000 N 
ATOM      2  N   UNL     1       0.947  10.219  21.851  0.00  0.00    +0.000 NA
ATOM      3  C   UNL     1       1.318   8.939  21.815  0.00  0.00    +0.000 A 
ATOM      4  C   UNL     1       1.612   8.483  20.521  0.00  0.00    +0.000 A 
ATOM      5  C   UNL     1       2.021   7.290  19.909  0.00  0.00    +0.000 A 
ATOM      6  N   UNL     1       2.267   6.110  20.625  0.00  0.00    +0.000 N 
ATOM      7  N   UNL     1       2.207   7.311  18.564  0.00  0.00    +0.000 NA
ATOM      8  C   UNL     1       1.979   8.441  17.882  0.00  0.00    +0.000 A 
ATOM      9  N   UNL     1       1.560   9.611  18.370  0.00  0.00    +0.000 NA
ATOM     10  C   UNL     1       1.387   9.583  19.707  0.00  0.00    +0.000 A 
ATOM     11  H   UNL     1       2.172   6.189  21.627  0.00  0.00    +0.000 HD
ENDROOT
BRANCH   6  12
ATOM     12  C   UNL     1       2.099   4.779  20.170  0.00  0.00    +0.000 A 
ATOM     13  C   UNL     1       0.853   4.140  20.276  0.00  0.00    +0.000 A 
ATOM     14  C   UNL     1       0.671   2.834  19.839  0.00  0.00    +0.000 A 
ATOM     15  C   UNL     1       1.735   2.143  19.273  0.00  0.00    +0.000 A 
ATOM     16  C   UNL     1       2.995   2.748  19.137  0.00  0.00    +0.000 A 
ATOM     17  C   UNL     1       4.100   1.949  18.501  0.00  0.00    +0.000 C 
ATOM     18  C   UNL     1       3.183   4.079  19.588  0.00  0.00    +0.000 A 
ATOM     19  C   UNL     1       4.508   4.785  19.415  0.00  0.00    +0.000 C 
ENDBRANCH   6  12
BRANCH   1  24
ATOM     20  C   UNL     1      -0.424  15.987  19.029  0.00  0.00    +0.000 C 
ATOM     21  C   UNL     1      -0.050  14.597  19.445  0.00  0.00    +0.000 A 
ATOM     22  C   UNL     1       1.283  14.232  19.652  0.00  0.00    +0.000 A 
ATOM     23  C   UNL     1       1.613  12.924  20.027  0.00  0.00    +0.000 A 
ATOM     24  C   UNL     1       0.609  11.958  20.194  0.00  0.00    +0.000 A 
ATOM     25  C   UNL     1      -0.727  12.334  20.007  0.00  0.00    +0.000 A 
ATOM     26  C   UNL     1      -1.051  13.641  19.637  0.00  0.00    +0.000 A 
ENDBRANCH   1  24
TORSDOF 2
ENDMDL
MODEL 3
REMARK VINA RESULT:      -8.1      0.917      1.097
REMARK  Name = 
REMARK  5 active torsions:
REMARK  status: ('A' for Active; 'I' for Inactive)
REMARK    1  A    between atoms: C_1  and  C_2
REMARK    2  A    between atoms: C_5  and  N_6
REMARK    3  A    between atoms: N_11  and  C_12
REMARK    4  A    between atoms: C_16  and  C_17
REMARK    5  A    between atoms: C_18  and  C_19
REMARK                            x       y       z     vdW  Elec       q    Type
REMARK                         _______ _______ _______ _____ _____    ______ ____
ROOT
ATOM      1  N   UNL     1       0.098  10.450  21.074  0.00  0.00    +0.000 N 
ATOM      2  N   UNL     1       0.369   9.754  22.224  0.00  0.00    +0.000 NA
ATOM      3  C   UNL     1       1.092   8.709  21.819  0.00  0.00    +0.000 A 
ATOM      4  C   UNL     1       1.332   8.704  20.436  0.00  0.00    +0.000 A 
ATOM      5  C   UNL     1       1.989   7.892  19.501  0.00  0.00    +0.000 A 
ATOM      6  N   UNL     1       2.665   6.715  19.853  0.00  0.00    +0.000 N 
ATOM      7  N   UNL     1       1.980   8.300  18.206  0.00  0.00    +0.000 NA
ATOM      8  C   UNL     1       1.340   9.429  17.873  0.00  0.00    +0.000 A 
ATOM      9  N   UNL     1       0.664  10.246  18.683  0.00  0.00    +0.000 NA
ATOM     10  C   UNL     1       0.686   9.838  19.968  0.00  0.00    +0.000 A 
ATOM     11  H   UNL     1       2.686   6.511  20.841  0.00  0.00    +0.000 HD
ENDROOT
BRANCH   6  12
ATOM     12  C   UNL     1       2.837   5.555  19.059  0.00  0.00    +0.000 A 
ATOM     13  C   UNL     1       3.807   5.521  18.044  0.00  0.00    +0.000 A 
ATOM     14  C   UNL     1       3.987   4.393  17.253  0.00  0.00    +0.000 A 
ATOM     15  C   UNL     1       3.204   3.267  17.473  0.00  0.00    +0.000 A 
ATOM     16  C   UNL     1       2.231   3.253  18.485  0.00  0.00    +0.000 A 
ATOM     17  C   UNL     1       1.428   1.995  18.679  0.00  0.00    +0.000 C 
ATOM     18  C   UNL     1       2.043   4.405  19.289  0.00  0.00    +0.000 A 
ATOM     19  C   UNL     1       1.042   4.416  20.421  0.00  0.00    +0.000 C 
ENDBRANCH   6  12
BRANCH   1  24
ATOM     20  C   UNL     1      -3.154  15.183  21.319  0.00  0.00    +0.000 C 
ATOM     21  C   UNL     1      -2.299  13.955  21.232  0.00  0.00    +0.000 A 
ATOM     22  C   UNL     1      -2.525  12.977  20.258  0.00  0.00    +0.000 A 
ATOM     23  C   UNL     1      -1.724  11.831  20.202  0.00  0.00    +0.000 A 
ATOM     24  C   UNL     1      -0.684  11.643  21.127  0.00  0.00    +0.000 A 
ATOM     25  C   UNL     1      -0.447  12.636  22.085  0.00  0.00    +0.000 A 
ATOM     26  C   UNL     1      -1.248  13.780  22.135  0.00  0.00    +0.000 A 
ENDBRANCH   1  24
TORSDOF 2
ENDMDL
MODEL 4
REMARK VINA RESULT:      -8.0      0.687      1.740
REMARK  Name = 
REMARK  5 active torsions:
REMARK  status: ('A' for Active; 'I' for Inactive)
REMARK    1  A    between atoms: C_1  and  C_2
REMARK    2  A    between atoms: C_5  and  N_6
REMARK    3  A    between atoms: N_11  and  C_12
REMARK    4  A    between atoms: C_16  and  C_17
REMARK    5  A    between atoms: C_18  and  C_19
REMARK                            x       y       z     vdW  Elec       q    Type
REMARK                         _______ _______ _______ _____ _____    ______ ____
ROOT
ATOM      1  N   UNL     1       0.384  10.416  21.520  0.00  0.00    +0.000 N 
ATOM      2  N   UNL     1       0.828   9.672  22.582  0.00  0.00    +0.000 NA
ATOM      3  C   UNL     1       1.467   8.643  22.025  0.00  0.00    +0.000 A 
ATOM      4  C   UNL     1       1.484   8.695  20.623  0.00  0.00    +0.000 A 
ATOM      5  C   UNL     1       1.977   7.921  19.562  0.00  0.00    +0.000 A 
ATOM      6  N   UNL     1       2.688   6.728  19.752  0.00  0.00    +0.000 N 
ATOM      7  N   UNL     1       1.765   8.384  18.303  0.00  0.00    +0.000 NA
ATOM      8  C   UNL     1       1.091   9.527  18.122  0.00  0.00    +0.000 A 
ATOM      9  N   UNL     1       0.561  10.312  19.063  0.00  0.00    +0.000 NA
ATOM     10  C   UNL     1       0.783   9.850  20.310  0.00  0.00    +0.000 A 
ATOM     11  H   UNL     1       2.864   6.483  20.716  0.00  0.00    +0.000 HD
ENDROOT
BRANCH   6  12
ATOM     12  C   UNL     1       2.720   5.602  18.895  0.00  0.00    +0.000 A 
ATOM     13  C   UNL     1       1.680   4.659  18.915  0.00  0.00    +0.000 A 
ATOM     14  C   UNL     1       1.698   3.546  18.083  0.00  0.00    +0.000 A 
ATOM     15  C   UNL     1       2.756   3.362  17.202  0.00  0.00    +0.000 A 
ATOM     16  C   UNL     1       3.810   4.286  17.140  0.00  0.00    +0.000 A 
ATOM     17  C   UNL     1       4.918   4.035  16.152  0.00  0.00    +0.000 C 
ATOM     18  C   UNL     1       3.797   5.419  17.992  0.00  0.00    +0.000 A 
ATOM     19  C   UNL     1       4.885   6.465  17.923  0.00  0.00    +0.000 C 
ENDBRANCH   6  12
BRANCH   1  24
ATOM     20  C   UNL     1      -2.585  15.230  22.545  0.00  0.00    +0.000 C 
ATOM     21  C   UNL     1      -1.833  13.962  22.272  0.00  0.00    +0.000 A 
ATOM     22  C   UNL     1      -2.061  12.804  23.020  0.00  0.00    +0.000 A 
ATOM     23  C   UNL     1      -1.338  11.634  22.759  0.00  0.00    +0.000 A 
ATOM     24  C   UNL     1      -0.368  11.609  21.746  0.00  0.00    +0.000 A 
ATOM     25  C   UNL     1      -0.158  12.765  20.984  0.00  0.00    +0.000 A 
ATOM     26  C   UNL     1      -0.885  13.929  21.246  0.00  0.00    +0.000 A 
ENDBRANCH   1  24
TORSDOF 2
ENDMDL
MODEL 5
REMARK VINA RESULT:      -7.7      1.496      8.685
REMARK  Name = 
REMARK  5 active torsions:
REMARK  status: ('A' for Active; 'I' for Inactive)
REMARK    1  A    between atoms: C_1  and  C_2
REMARK    2  A    between atoms: C_5  and  N_6
REMARK    3  A    between atoms: N_11  and  C_12
REMARK    4  A    between atoms: C_16  and  C_17
REMARK    5  A    between atoms: C_18  and  C_19
REMARK                            x       y       z     vdW  Elec       q    Type
REMARK                         _______ _______ _______ _____ _____    ______ ____
ROOT
ATOM      1  N   UNL     1       2.110   8.396  18.428  0.00  0.00    +0.000 N 
ATOM      2  N   UNL     1       1.994   9.433  17.540  0.00  0.00    +0.000 NA
ATOM      3  C   UNL     1       1.352  10.384  18.219  0.00  0.00    +0.000 A 
ATOM      4  C   UNL     1       1.062  10.020  19.542  0.00  0.00    +0.000 A 
ATOM      5  C   UNL     1       0.429  10.585  20.659  0.00  0.00    +0.000 A 
ATOM      6  N   UNL     1      -0.126  11.873  20.652  0.00  0.00    +0.000 N 
ATOM      7  N   UNL     1       0.389   9.843  21.795  0.00  0.00    +0.000 NA
ATOM      8  C   UNL     1       0.925   8.615  21.802  0.00  0.00    +0.000 A 
ATOM      9  N   UNL     1       1.518   7.984  20.786  0.00  0.00    +0.000 NA
ATOM     10  C   UNL     1       1.562   8.732  19.666  0.00  0.00    +0.000 A 
ATOM     11  H   UNL     1       0.001  12.389  19.793  0.00  0.00    +0.000 HD
ENDROOT
BRANCH   6  12
ATOM     12  C   UNL     1      -1.237  12.332  21.399  0.00  0.00    +0.000 A 
ATOM     13  C   UNL     1      -1.084  12.726  22.738  0.00  0.00    +0.000 A 
ATOM     14  C   UNL     1      -2.165  13.176  23.487  0.00  0.00    +0.000 A 
ATOM     15  C   UNL     1      -3.423  13.251  22.904  0.00  0.00    +0.000 A 
ATOM     16  C   UNL     1      -3.619  12.879  21.564  0.00  0.00    +0.000 A 
ATOM     17  C   UNL     1      -5.004  13.000  20.990  0.00  0.00    +0.000 C 
ATOM     18  C   UNL     1      -2.518  12.415  20.800  0.00  0.00    +0.000 A 
ATOM     19  C   UNL     1      -2.674  12.052  19.342  0.00  0.00    +0.000 C 
ENDBRANCH   6  12
BRANCH   1  24
ATOM     20  C   UNL     1       4.757   3.520  16.926  0.00  0.00    +0.000 C 
ATOM     21  C   UNL     1       4.068   4.799  17.294  0.00  0.00    +0.000 A 
ATOM     22  C   UNL     1       4.682   6.040  17.097  0.00  0.00    +0.000 A 
ATOM     23  C   UNL     1       4.026   7.222  17.460  0.00  0.00    +0.000 A 
ATOM     24  C   UNL     1       2.746   7.180  18.032  0.00  0.00    +0.000 A 
ATOM     25  C   UNL     1       2.126   5.936  18.207  0.00  0.00    +0.000 A 
ATOM     26  C   UNL     1       2.783   4.758  17.840  0.00  0.00    +0.000 A 
ENDBRANCH   1  24
TORSDOF 2
ENDMDL
MODEL 6
REMARK VINA RESULT:      -7.5      1.880      8.754
REMARK  Name = 
REMARK  5 active torsions:
REMARK  status: ('A' for Active; 'I' for Inactive)
REMARK    1  A    between atoms: C_1  and  C_2
REMARK    2  A    between atoms: C_5  and  N_6
REMARK    3  A    between atoms: N_11  and  C_12
REMARK    4  A    between atoms: C_16  and  C_17
REMARK    5  A    between atoms: C_18  and  C_19
REMARK                            x       y       z     vdW  Elec       q    Type
REMARK                         _______ _______ _______ _____ _____    ______ ____
ROOT
ATOM      1  N   UNL     1       0.996   9.355  19.483  0.00  0.00    +0.000 N 
ATOM      2  N   UNL     1       0.599  10.278  18.551  0.00  0.00    +0.000 NA
ATOM      3  C   UNL     1      -0.241  11.078  19.210  0.00  0.00    +0.000 A 
ATOM      4  C   UNL     1      -0.394  10.728  20.560  0.00  0.00    +0.000 A 
ATOM      5  C   UNL     1      -1.116  11.182  21.673  0.00  0.00    +0.000 A 
ATOM      6  N   UNL     1      -1.976  12.288  21.627  0.00  0.00    +0.000 N 
ATOM      7  N   UNL     1      -0.937  10.518  22.844  0.00  0.00    +0.000 NA
ATOM      8  C   UNL     1      -0.110   9.465  22.889  0.00  0.00    +0.000 A 
ATOM      9  N   UNL     1       0.593   8.945  21.881  0.00  0.00    +0.000 NA
ATOM     10  C   UNL     1       0.416   9.614  20.724  0.00  0.00    +0.000 A 
ATOM     11  H   UNL     1      -2.007  12.770  20.741  0.00  0.00    +0.000 HD
ENDROOT
BRANCH   6  12
ATOM     12  C   UNL     1      -3.146  12.498  22.397  0.00  0.00    +0.000 A 
ATOM     13  C   UNL     1      -3.085  12.507  23.800  0.00  0.00    +0.000 A 
ATOM     14  C   UNL     1      -4.224  12.708  24.571  0.00  0.00    +0.000 A 
ATOM     15  C   UNL     1      -5.448  12.918  23.950  0.00  0.00    +0.000 A 
ATOM     16  C   UNL     1      -5.551  12.929  22.550  0.00  0.00    +0.000 A 
ATOM     17  C   UNL     1      -6.905  13.178  21.940  0.00  0.00    +0.000 C 
ATOM     18  C   UNL     1      -4.392  12.719  21.761  0.00  0.00    +0.000 A 
ATOM     19  C   UNL     1      -4.449  12.774  20.253  0.00  0.00    +0.000 C 
ENDBRANCH   6  12
BRANCH   1  24
ATOM     20  C   UNL     1       4.548   5.086  18.002  0.00  0.00    +0.000 C 
ATOM     21  C   UNL     1       3.635   6.203  18.409  0.00  0.00    +0.000 A 
ATOM     22  C   UNL     1       2.890   6.141  19.591  0.00  0.00    +0.000 A 
ATOM     23  C   UNL     1       2.033   7.189  19.947  0.00  0.00    +0.000 A 
ATOM     24  C   UNL     1       1.904   8.315  19.119  0.00  0.00    +0.000 A 
ATOM     25  C   UNL     1       2.669   8.382  17.948  0.00  0.00    +0.000 A 
ATOM     26  C   UNL     1       3.526   7.336  17.599  0.00  0.00    +0.000 A 
ENDBRANCH   1  24
TORSDOF 2
ENDMDL
MODEL 7
REMARK VINA RESULT:      -7.5      0.838      1.728
REMARK  Name = 
REMARK  5 active torsions:
REMARK  status: ('A' for Active; 'I' for Inactive)
REMARK    1  A    between atoms: C_1  and  C_2
REMARK    2  A    between atoms: C_5  and  N_6
REMARK    3  A    between atoms: N_11  and  C_12
REMARK    4  A    between atoms: C_16  and  C_17
REMARK    5  A    between atoms: C_18  and  C_19
REMARK                            x       y       z     vdW  Elec       q    Type
REMARK                         _______ _______ _______ _____ _____    ______ ____
ROOT
ATOM      1  N   UNL     1      -0.253  10.885  22.354  0.00  0.00    +0.000 N 
ATOM      2  N   UNL     1       0.160  10.202  23.468  0.00  0.00    +0.000 NA
ATOM      3  C   UNL     1       0.785   9.127  22.988  0.00  0.00    +0.000 A 
ATOM      4  C   UNL     1       0.822   9.088  21.586  0.00  0.00    +0.000 A 
ATOM      5  C   UNL     1       1.313   8.237  20.585  0.00  0.00    +0.000 A 
ATOM      6  N   UNL     1       1.996   7.045  20.862  0.00  0.00    +0.000 N 
ATOM      7  N   UNL     1       1.128   8.621  19.295  0.00  0.00    +0.000 NA
ATOM      8  C   UNL     1       0.481   9.764  19.031  0.00  0.00    +0.000 A 
ATOM      9  N   UNL     1      -0.045  10.618  19.911  0.00  0.00    +0.000 NA
ATOM     10  C   UNL     1       0.150  10.234  21.188  0.00  0.00    +0.000 A 
ATOM     11  H   UNL     1       2.154   6.859  21.842  0.00  0.00    +0.000 HD
ENDROOT
BRANCH   6  12
ATOM     12  C   UNL     1       2.017   5.865  20.079  0.00  0.00    +0.000 A 
ATOM     13  C   UNL     1       1.126   4.813  20.349  0.00  0.00    +0.000 A 
ATOM     14  C   UNL     1       1.135   3.647  19.593  0.00  0.00    +0.000 A 
ATOM     15  C   UNL     1       2.032   3.516  18.541  0.00  0.00    +0.000 A 
ATOM     16  C   UNL     1       2.932   4.547  18.229  0.00  0.00    +0.000 A 
ATOM     17  C   UNL     1       3.866   4.346  17.066  0.00  0.00    +0.000 C 
ATOM     18  C   UNL     1       2.927   5.736  19.002  0.00  0.00    +0.000 A 
ATOM     19  C   UNL     1       3.844   6.890  18.670  0.00  0.00    +0.000 C 
ENDBRANCH   6  12
BRANCH   1  24
ATOM     20  C   UNL     1      -3.200  15.773  23.032  0.00  0.00    +0.000 C 
ATOM     21  C   UNL     1      -2.448  14.491  22.837  0.00  0.00    +0.000 A 
ATOM     22  C   UNL     1      -3.056  13.250  23.048  0.00  0.00    +0.000 A 
ATOM     23  C   UNL     1      -2.332  12.065  22.874  0.00  0.00    +0.000 A 
ATOM     24  C   UNL     1      -0.983  12.105  22.490  0.00  0.00    +0.000 A 
ATOM     25  C   UNL     1      -0.385  13.350  22.258  0.00  0.00    +0.000 A 
ATOM     26  C   UNL     1      -1.112  14.530  22.430  0.00  0.00    +0.000 A 
ENDBRANCH   1  24
TORSDOF 2
ENDMDL
MODEL 8
REMARK VINA RESULT:      -7.5      1.500      8.635
REMARK  Name = 
REMARK  5 active torsions:
REMARK  status: ('A' for Active; 'I' for Inactive)
REMARK    1  A    between atoms: C_1  and  C_2
REMARK    2  A    between atoms: C_5  and  N_6
REMARK    3  A    between atoms: N_11  and  C_12
REMARK    4  A    between atoms: C_16  and  C_17
REMARK    5  A    between atoms: C_18  and  C_19
REMARK                            x       y       z     vdW  Elec       q    Type
REMARK                         _______ _______ _______ _____ _____    ______ ____
ROOT
ATOM      1  N   UNL     1       2.222   7.309  18.484  0.00  0.00    +0.000 N 
ATOM      2  N   UNL     1       2.343   8.158  17.415  0.00  0.00    +0.000 NA
ATOM      3  C   UNL     1       1.908   9.333  17.870  0.00  0.00    +0.000 A 
ATOM      4  C   UNL     1       1.525   9.297  19.220  0.00  0.00    +0.000 A 
ATOM      5  C   UNL     1       1.009  10.184  20.176  0.00  0.00    +0.000 A 
ATOM      6  N   UNL     1       0.741  11.532  19.901  0.00  0.00    +0.000 N 
ATOM      7  N   UNL     1       0.793   9.696  21.425  0.00  0.00    +0.000 NA
ATOM      8  C   UNL     1       1.056   8.410  21.688  0.00  0.00    +0.000 A 
ATOM      9  N   UNL     1       1.517   7.488  20.840  0.00  0.00    +0.000 NA
ATOM     10  C   UNL     1       1.737   7.982  19.605  0.00  0.00    +0.000 A 
ATOM     11  H   UNL     1       0.989  11.837  18.971  0.00  0.00    +0.000 HD
ENDROOT
BRANCH   6  12
ATOM     12  C   UNL     1      -0.259  12.345  20.487  0.00  0.00    +0.000 A 
ATOM     13  C   UNL     1       0.071  13.278  21.483  0.00  0.00    +0.000 A 
ATOM     14  C   UNL     1      -0.898  14.081  22.072  0.00  0.00    +0.000 A 
ATOM     15  C   UNL     1      -2.221  13.973  21.664  0.00  0.00    +0.000 A 
ATOM     16  C   UNL     1      -2.594  13.062  20.663  0.00  0.00    +0.000 A 
ATOM     17  C   UNL     1      -4.043  13.007  20.258  0.00  0.00    +0.000 C 
ATOM     18  C   UNL     1      -1.607  12.238  20.065  0.00  0.00    +0.000 A 
ATOM     19  C   UNL     1      -1.956  11.281  18.950  0.00  0.00    +0.000 C 
ENDBRANCH   6  12
BRANCH   1  24
ATOM     20  C   UNL     1       3.704   1.770  18.092  0.00  0.00    +0.000 C 
ATOM     21  C   UNL     1       3.337   3.220  18.180  0.00  0.00    +0.000 A 
ATOM     22  C   UNL     1       4.223   4.166  18.704  0.00  0.00    +0.000 A 
ATOM     23  C   UNL     1       3.855   5.514  18.789  0.00  0.00    +0.000 A 
ATOM     24  C   UNL     1       2.590   5.935  18.354  0.00  0.00    +0.000 A 
ATOM     25  C   UNL     1       1.714   4.988  17.809  0.00  0.00    +0.000 A 
ATOM     26  C   UNL     1       2.087   3.644  17.722  0.00  0.00    +0.000 A 
ENDBRANCH   1  24
TORSDOF 2
ENDMDL
MODEL 9
REMARK VINA RESULT:      -7.5      1.372      8.646
REMARK  Name = 
REMARK  5 active torsions:
REMARK  status: ('A' for Active; 'I' for Inactive)
REMARK    1  A    between atoms: C_1  and  C_2
REMARK    2  A    between atoms: C_5  and  N_6
REMARK    3  A    between atoms: N_11  and  C_12
REMARK    4  A    between atoms: C_16  and  C_17
REMARK    5  A    between atoms: C_18  and  C_19
REMARK                            x       y       z     vdW  Elec       q    Type
REMARK                         _______ _______ _______ _____ _____    ______ ____
ROOT
ATOM      1  N   UNL     1       2.182   7.842  18.444  0.00  0.00    +0.000 N 
ATOM      2  N   UNL     1       2.187   8.776  17.442  0.00  0.00    +0.000 NA
ATOM      3  C   UNL     1       1.663   9.868  17.999  0.00  0.00    +0.000 A 
ATOM      4  C   UNL     1       1.332   9.695  19.352  0.00  0.00    +0.000 A 
ATOM      5  C   UNL     1       0.772  10.456  20.388  0.00  0.00    +0.000 A 
ATOM      6  N   UNL     1       0.372  11.790  20.226  0.00  0.00    +0.000 N 
ATOM      7  N   UNL     1       0.646   9.859  21.601  0.00  0.00    +0.000 NA
ATOM      8  C   UNL     1       1.034   8.586  21.756  0.00  0.00    +0.000 A 
ATOM      9  N   UNL     1       1.548   7.778  20.827  0.00  0.00    +0.000 NA
ATOM     10  C   UNL     1       1.678   8.381  19.628  0.00  0.00    +0.000 A 
ATOM     11  H   UNL     1       0.558  12.186  19.316  0.00  0.00    +0.000 HD
ENDROOT
BRANCH   6  12
ATOM     12  C   UNL     1      -0.677  12.459  20.902  0.00  0.00    +0.000 A 
ATOM     13  C   UNL     1      -0.426  13.162  22.092  0.00  0.00    +0.000 A 
ATOM     14  C   UNL     1      -1.445  13.821  22.770  0.00  0.00    +0.000 A 
ATOM     15  C   UNL     1      -2.736  13.799  22.261  0.00  0.00    +0.000 A 
ATOM     16  C   UNL     1      -3.029  13.119  21.068  0.00  0.00    +0.000 A 
ATOM     17  C   UNL     1      -4.447  13.149  20.564  0.00  0.00    +0.000 C 
ATOM     18  C   UNL     1      -1.993  12.442  20.378  0.00  0.00    +0.000 A 
ATOM     19  C   UNL     1      -2.253  11.740  19.066  0.00  0.00    +0.000 C 
ENDBRANCH   6  12
BRANCH   1  24
ATOM     20  C   UNL     1       4.080   2.531  17.337  0.00  0.00    +0.000 C 
ATOM     21  C   UNL     1       3.576   3.908  17.648  0.00  0.00    +0.000 A 
ATOM     22  C   UNL     1       2.217   4.155  17.864  0.00  0.00    +0.000 A 
ATOM     23  C   UNL     1       1.765   5.451  18.140  0.00  0.00    +0.000 A 
ATOM     24  C   UNL     1       2.669   6.523  18.198  0.00  0.00    +0.000 A 
ATOM     25  C   UNL     1       4.032   6.267  18.003  0.00  0.00    +0.000 A 
ATOM     26  C   UNL     1       4.479   4.971  17.731  0.00  0.00    +0.000 A 
ENDBRANCH   1  24
TORSDOF 2
ENDMDL
