MODEL 1
REMARK VINA RESULT:      -7.1      0.000      0.000
REMARK  Name = 
REMARK  2 active torsions:
REMARK  status: ('A' for Active; 'I' for Inactive)
REMARK    1  A    between atoms: C_8  and  N_9
REMARK    2  A    between atoms: N_24  and  O_25
REMARK                            x       y       z     vdW  Elec       q    Type
REMARK                         _______ _______ _______ _____ _____    ______ ____
ROOT
ATOM      1  O   UNL     1      -2.787  10.304  15.761  0.00  0.00    +0.000 OA
ATOM      2  C   UNL     1      -2.152  10.331  16.800  0.00  0.00    +0.000 C 
ATOM      3  N   UNL     1      -0.839   9.897  17.003  0.00  0.00    +0.000 N 
ATOM      4  C   UNL     1      -0.460  10.026  18.345  0.00  0.00    +0.000 A 
ATOM      5  C   UNL     1       0.753   9.729  18.956  0.00  0.00    +0.000 A 
ATOM      6 BR   UNL     1       2.210   9.026  17.986  0.00  0.00    +0.000 Br
ATOM      7  C   UNL     1       0.894   9.986  20.329  0.00  0.00    +0.000 A 
ATOM      8  C   UNL     1      -0.225  10.400  21.071  0.00  0.00    +0.000 A 
ATOM      9  C   UNL     1      -1.469  10.528  20.462  0.00  0.00    +0.000 A 
ATOM     10  C   UNL     1      -1.536  10.507  19.084  0.00  0.00    +0.000 A 
ATOM     11  C   UNL     1      -2.593  10.868  18.131  0.00  0.00    +0.000 C 
ATOM     12  C   UNL     1      -3.667  11.662  18.292  0.00  0.00    +0.000 C 
ATOM     13  N   UNL     1      -4.725  11.949  17.440  0.00  0.00    +0.000 N 
ATOM     14  C   UNL     1      -5.769  12.509  18.186  0.00  0.00    +0.000 A 
ATOM     15  C   UNL     1      -7.025  12.894  17.760  0.00  0.00    +0.000 A 
ATOM     16  C   UNL     1      -7.882  13.524  18.679  0.00  0.00    +0.000 A 
ATOM     17  C   UNL     1      -7.478  13.770  20.002  0.00  0.00    +0.000 A 
ATOM     18  C   UNL     1      -6.201  13.412  20.421  0.00  0.00    +0.000 A 
ATOM     19  C   UNL     1      -5.368  12.810  19.496  0.00  0.00    +0.000 A 
ATOM     20  C   UNL     1      -3.956  12.418  19.593  0.00  0.00    +0.000 C 
ATOM     21  N   UNL     1      -3.085  12.690  20.508  0.00  0.00    +0.000 NA
ATOM     22  H   UNL     1      -0.263   9.516  16.271  0.00  0.00    +0.000 HD
ATOM     23  H   UNL     1      -4.885  11.361  16.630  0.00  0.00    +0.000 HD
ENDROOT
BRANCH   8  24
ATOM     24  N   UNL     1      -0.099  10.806  22.477  0.00  0.00    +0.000 N 
ATOM     25  O   UNL     1      -0.474  11.947  22.778  0.00  0.00    +0.000 OA
ATOM     26  O   UNL     1       0.343   9.975  23.286  0.00  0.00    +0.000 OA
ENDBRANCH   8  24
BRANCH  21  27
ATOM     27  O   UNL     1      -3.608  13.263  21.662  0.00  0.00    +0.000 OA
ATOM     28  H   UNL     1      -4.012  12.493  22.110  0.00  0.00    +0.000 HD
ENDBRANCH  21  27
TORSDOF 2
ENDMDL
MODEL 2
REMARK VINA RESULT:      -6.9      5.915      8.439
REMARK  Name = 
REMARK  2 active torsions:
REMARK  status: ('A' for Active; 'I' for Inactive)
REMARK    1  A    between atoms: C_8  and  N_9
REMARK    2  A    between atoms: N_24  and  O_25
REMARK                            x       y       z     vdW  Elec       q    Type
REMARK                         _______ _______ _______ _____ _____    ______ ____
ROOT
ATOM      1  O   UNL     1       1.754   4.218  21.725  0.00  0.00    +0.000 OA
ATOM      2  C   UNL     1       2.335   4.343  20.662  0.00  0.00    +0.000 C 
ATOM      3  N   UNL     1       2.903   3.331  19.883  0.00  0.00    +0.000 N 
ATOM      4  C   UNL     1       3.544   3.855  18.753  0.00  0.00    +0.000 A 
ATOM      5  C   UNL     1       4.210   3.196  17.726  0.00  0.00    +0.000 A 
ATOM      6 BR   UNL     1       4.385   1.318  17.697  0.00  0.00    +0.000 Br
ATOM      7  C   UNL     1       4.742   3.957  16.673  0.00  0.00    +0.000 A 
ATOM      8  C   UNL     1       4.713   5.360  16.754  0.00  0.00    +0.000 A 
ATOM      9  C   UNL     1       4.188   5.993  17.876  0.00  0.00    +0.000 A 
ATOM     10  C   UNL     1       3.460   5.243  18.777  0.00  0.00    +0.000 A 
ATOM     11  C   UNL     1       2.567   5.607  19.886  0.00  0.00    +0.000 C 
ATOM     12  C   UNL     1       1.910   6.755  20.124  0.00  0.00    +0.000 C 
ATOM     13  N   UNL     1       1.134   7.155  21.205  0.00  0.00    +0.000 N 
ATOM     14  C   UNL     1       0.989   8.547  21.168  0.00  0.00    +0.000 A 
ATOM     15  C   UNL     1       0.346   9.372  22.071  0.00  0.00    +0.000 A 
ATOM     16  C   UNL     1       0.249  10.743  21.775  0.00  0.00    +0.000 A 
ATOM     17  C   UNL     1       0.783  11.272  20.589  0.00  0.00    +0.000 A 
ATOM     18  C   UNL     1       1.401  10.436  19.666  0.00  0.00    +0.000 A 
ATOM     19  C   UNL     1       1.470   9.088  19.967  0.00  0.00    +0.000 A 
ATOM     20  C   UNL     1       1.953   7.953  19.170  0.00  0.00    +0.000 C 
ATOM     21  N   UNL     1       2.280   7.902  17.921  0.00  0.00    +0.000 NA
ATOM     22  H   UNL     1       2.872   2.357  20.133  0.00  0.00    +0.000 HD
ATOM     23  H   UNL     1       1.181   6.632  22.071  0.00  0.00    +0.000 HD
ENDROOT
BRANCH   8  24
ATOM     24  N   UNL     1       5.136   6.197  15.624  0.00  0.00    +0.000 N 
ATOM     25  O   UNL     1       4.624   7.319  15.520  0.00  0.00    +0.000 OA
ATOM     26  O   UNL     1       6.005   5.747  14.859  0.00  0.00    +0.000 OA
ENDBRANCH   8  24
BRANCH  21  27
ATOM     27  O   UNL     1       2.381   9.137  17.290  0.00  0.00    +0.000 OA
ATOM     28  H   UNL     1       1.905   9.725  17.912  0.00  0.00    +0.000 HD
ENDBRANCH  21  27
TORSDOF 2
ENDMDL
MODEL 3
REMARK VINA RESULT:      -6.8      1.630      2.128
REMARK  Name = 
REMARK  2 active torsions:
REMARK  status: ('A' for Active; 'I' for Inactive)
REMARK    1  A    between atoms: C_8  and  N_9
REMARK    2  A    between atoms: N_24  and  O_25
REMARK                            x       y       z     vdW  Elec       q    Type
REMARK                         _______ _______ _______ _____ _____    ______ ____
ROOT
ATOM      1  O   UNL     1      -2.572  11.485  16.958  0.00  0.00    +0.000 OA
ATOM      2  C   UNL     1      -1.810  11.094  17.824  0.00  0.00    +0.000 C 
ATOM      3  N   UNL     1      -0.624  10.374  17.647  0.00  0.00    +0.000 N 
ATOM      4  C   UNL     1      -0.040  10.042  18.876  0.00  0.00    +0.000 A 
ATOM      5  C   UNL     1       1.138   9.356  19.141  0.00  0.00    +0.000 A 
ATOM      6 BR   UNL     1       2.233   8.687  17.757  0.00  0.00    +0.000 Br
ATOM      7  C   UNL     1       1.529   9.181  20.478  0.00  0.00    +0.000 A 
ATOM      8  C   UNL     1       0.658   9.577  21.507  0.00  0.00    +0.000 A 
ATOM      9  C   UNL     1      -0.592  10.111  21.210  0.00  0.00    +0.000 A 
ATOM     10  C   UNL     1      -0.854  10.493  19.910  0.00  0.00    +0.000 A 
ATOM     11  C   UNL     1      -1.917  11.307  19.306  0.00  0.00    +0.000 C 
ATOM     12  C   UNL     1      -2.735  12.215  19.867  0.00  0.00    +0.000 C 
ATOM     13  N   UNL     1      -3.802  12.931  19.341  0.00  0.00    +0.000 N 
ATOM     14  C   UNL     1      -4.565  13.448  20.395  0.00  0.00    +0.000 A 
ATOM     15  C   UNL     1      -5.740  14.173  20.336  0.00  0.00    +0.000 A 
ATOM     16  C   UNL     1      -6.282  14.671  21.533  0.00  0.00    +0.000 A 
ATOM     17  C   UNL     1      -5.649  14.449  22.767  0.00  0.00    +0.000 A 
ATOM     18  C   UNL     1      -4.450  13.748  22.822  0.00  0.00    +0.000 A 
ATOM     19  C   UNL     1      -3.924  13.282  21.631  0.00  0.00    +0.000 A 
ATOM     20  C   UNL     1      -2.648  12.613  21.344  0.00  0.00    +0.000 C 
ATOM     21  N   UNL     1      -1.618  12.441  22.105  0.00  0.00    +0.000 NA
ATOM     22  H   UNL     1      -0.266  10.112  16.744  0.00  0.00    +0.000 HD
ATOM     23  H   UNL     1      -4.211  12.638  18.461  0.00  0.00    +0.000 HD
ENDROOT
BRANCH   8  24
ATOM     24  N   UNL     1       1.074   9.536  22.916  0.00  0.00    +0.000 N 
ATOM     25  O   UNL     1       2.281   9.393  23.151  0.00  0.00    +0.000 OA
ATOM     26  O   UNL     1       0.201   9.682  23.786  0.00  0.00    +0.000 OA
ENDBRANCH   8  24
BRANCH  21  27
ATOM     27  O   UNL     1      -1.820  12.754  23.445  0.00  0.00    +0.000 OA
ATOM     28  H   UNL     1      -2.178  11.916  23.801  0.00  0.00    +0.000 HD
ENDBRANCH  21  27
TORSDOF 2
ENDMDL
MODEL 4
REMARK VINA RESULT:      -6.8      3.618      5.570
REMARK  Name = 
REMARK  2 active torsions:
REMARK  status: ('A' for Active; 'I' for Inactive)
REMARK    1  A    between atoms: C_8  and  N_9
REMARK    2  A    between atoms: N_24  and  O_25
REMARK                            x       y       z     vdW  Elec       q    Type
REMARK                         _______ _______ _______ _____ _____    ______ ____
ROOT
ATOM      1  O   UNL     1       0.244  12.948  19.273  0.00  0.00    +0.000 OA
ATOM      2  C   UNL     1      -0.882  12.541  19.054  0.00  0.00    +0.000 C 
ATOM      3  N   UNL     1      -1.313  11.786  17.959  0.00  0.00    +0.000 N 
ATOM      4  C   UNL     1      -2.692  11.552  18.009  0.00  0.00    +0.000 A 
ATOM      5  C   UNL     1      -3.504  10.838  17.136  0.00  0.00    +0.000 A 
ATOM      6 BR   UNL     1      -2.812  10.006  15.591  0.00  0.00    +0.000 Br
ATOM      7  C   UNL     1      -4.870  10.719  17.433  0.00  0.00    +0.000 A 
ATOM      8  C   UNL     1      -5.404  11.435  18.518  0.00  0.00    +0.000 A 
ATOM      9  C   UNL     1      -4.597  12.275  19.277  0.00  0.00    +0.000 A 
ATOM     10  C   UNL     1      -3.228  12.193  19.123  0.00  0.00    +0.000 A 
ATOM     11  C   UNL     1      -2.102  12.709  19.912  0.00  0.00    +0.000 C 
ATOM     12  C   UNL     1      -2.056  13.097  21.199  0.00  0.00    +0.000 C 
ATOM     13  N   UNL     1      -1.033  13.669  21.943  0.00  0.00    +0.000 N 
ATOM     14  C   UNL     1      -1.577  14.237  23.101  0.00  0.00    +0.000 A 
ATOM     15  C   UNL     1      -0.938  14.953  24.095  0.00  0.00    +0.000 A 
ATOM     16  C   UNL     1      -1.680  15.350  25.220  0.00  0.00    +0.000 A 
ATOM     17  C   UNL     1      -3.041  15.024  25.347  0.00  0.00    +0.000 A 
ATOM     18  C   UNL     1      -3.676  14.275  24.363  0.00  0.00    +0.000 A 
ATOM     19  C   UNL     1      -2.923  13.880  23.272  0.00  0.00    +0.000 A 
ATOM     20  C   UNL     1      -3.263  13.010  22.139  0.00  0.00    +0.000 C 
ATOM     21  N   UNL     1      -4.297  12.256  21.959  0.00  0.00    +0.000 NA
ATOM     22  H   UNL     1      -0.699  11.481  17.221  0.00  0.00    +0.000 HD
ATOM     23  H   UNL     1      -0.231  14.063  21.465  0.00  0.00    +0.000 HD
ENDROOT
BRANCH   8  24
ATOM     24  N   UNL     1      -6.796  11.241  18.948  0.00  0.00    +0.000 N 
ATOM     25  O   UNL     1      -7.541  12.228  18.933  0.00  0.00    +0.000 OA
ATOM     26  O   UNL     1      -7.152  10.095  19.268  0.00  0.00    +0.000 OA
ENDBRANCH   8  24
BRANCH  21  27
ATOM     27  O   UNL     1      -5.328  12.447  22.872  0.00  0.00    +0.000 OA
ATOM     28  H   UNL     1      -6.051  11.915  22.481  0.00  0.00    +0.000 HD
ENDBRANCH  21  27
TORSDOF 2
ENDMDL
MODEL 5
REMARK VINA RESULT:      -6.6      2.074      4.574
REMARK  Name = 
REMARK  2 active torsions:
REMARK  status: ('A' for Active; 'I' for Inactive)
REMARK    1  A    between atoms: C_8  and  N_9
REMARK    2  A    between atoms: N_24  and  O_25
REMARK                            x       y       z     vdW  Elec       q    Type
REMARK                         _______ _______ _______ _____ _____    ______ ____
ROOT
ATOM      1  O   UNL     1      -0.423  12.137  22.962  0.00  0.00    +0.000 OA
ATOM      2  C   UNL     1      -0.727  11.823  21.826  0.00  0.00    +0.000 C 
ATOM      3  N   UNL     1      -0.011  10.997  20.954  0.00  0.00    +0.000 N 
ATOM      4  C   UNL     1      -0.636  10.909  19.704  0.00  0.00    +0.000 A 
ATOM      5  C   UNL     1      -0.265  10.186  18.576  0.00  0.00    +0.000 A 
ATOM      6 BR   UNL     1       1.293   9.122  18.544  0.00  0.00    +0.000 Br
ATOM      7  C   UNL     1      -1.092  10.237  17.443  0.00  0.00    +0.000 A 
ATOM      8  C   UNL     1      -2.186  11.118  17.428  0.00  0.00    +0.000 A 
ATOM      9  C   UNL     1      -2.436  11.954  18.511  0.00  0.00    +0.000 A 
ATOM     10  C   UNL     1      -1.767  11.719  19.695  0.00  0.00    +0.000 A 
ATOM     11  C   UNL     1      -1.965  12.206  21.067  0.00  0.00    +0.000 C 
ATOM     12  C   UNL     1      -3.059  12.728  21.648  0.00  0.00    +0.000 C 
ATOM     13  N   UNL     1      -3.249  13.275  22.910  0.00  0.00    +0.000 N 
ATOM     14  C   UNL     1      -4.435  14.020  22.908  0.00  0.00    +0.000 A 
ATOM     15  C   UNL     1      -4.982  14.775  23.927  0.00  0.00    +0.000 A 
ATOM     16  C   UNL     1      -6.240  15.366  23.723  0.00  0.00    +0.000 A 
ATOM     17  C   UNL     1      -6.940  15.193  22.517  0.00  0.00    +0.000 A 
ATOM     18  C   UNL     1      -6.404  14.406  21.504  0.00  0.00    +0.000 A 
ATOM     19  C   UNL     1      -5.172  13.819  21.732  0.00  0.00    +0.000 A 
ATOM     20  C   UNL     1      -4.402  12.866  20.922  0.00  0.00    +0.000 C 
ATOM     21  N   UNL     1      -4.754  12.204  19.871  0.00  0.00    +0.000 NA
ATOM     22  H   UNL     1       0.858  10.553  21.202  0.00  0.00    +0.000 HD
ATOM     23  H   UNL     1      -2.442  13.531  23.467  0.00  0.00    +0.000 HD
ENDROOT
BRANCH   8  24
ATOM     24  N   UNL     1      -3.154  11.113  16.323  0.00  0.00    +0.000 N 
ATOM     25  O   UNL     1      -4.307  11.488  16.570  0.00  0.00    +0.000 OA
ATOM     26  O   UNL     1      -2.753  10.766  15.200  0.00  0.00    +0.000 OA
ENDBRANCH   8  24
BRANCH  21  27
ATOM     27  O   UNL     1      -5.964  12.597  19.308  0.00  0.00    +0.000 OA
ATOM     28  H   UNL     1      -5.963  13.562  19.471  0.00  0.00    +0.000 HD
ENDBRANCH  21  27
TORSDOF 2
ENDMDL
MODEL 6
REMARK VINA RESULT:      -6.5      4.115      7.620
REMARK  Name = 
REMARK  2 active torsions:
REMARK  status: ('A' for Active; 'I' for Inactive)
REMARK    1  A    between atoms: C_8  and  N_9
REMARK    2  A    between atoms: N_24  and  O_25
REMARK                            x       y       z     vdW  Elec       q    Type
REMARK                         _______ _______ _______ _____ _____    ______ ____
ROOT
ATOM      1  O   UNL     1      -0.153   8.865  23.761  0.00  0.00    +0.000 OA
ATOM      2  C   UNL     1      -0.294   9.810  23.006  0.00  0.00    +0.000 C 
ATOM      3  N   UNL     1      -0.825  11.067  23.311  0.00  0.00    +0.000 N 
ATOM      4  C   UNL     1      -0.889  11.884  22.175  0.00  0.00    +0.000 A 
ATOM      5  C   UNL     1      -1.331  13.196  22.050  0.00  0.00    +0.000 A 
ATOM      6 BR   UNL     1      -1.989  14.168  23.526  0.00  0.00    +0.000 Br
ATOM      7  C   UNL     1      -1.258  13.813  20.792  0.00  0.00    +0.000 A 
ATOM      8  C   UNL     1      -0.877  13.052  19.673  0.00  0.00    +0.000 A 
ATOM      9  C   UNL     1      -0.601  11.695  19.801  0.00  0.00    +0.000 A 
ATOM     10  C   UNL     1      -0.444  11.170  21.067  0.00  0.00    +0.000 A 
ATOM     11  C   UNL     1       0.096   9.895  21.558  0.00  0.00    +0.000 C 
ATOM     12  C   UNL     1       0.923   9.020  20.960  0.00  0.00    +0.000 C 
ATOM     13  N   UNL     1       1.376   7.771  21.364  0.00  0.00    +0.000 N 
ATOM     14  C   UNL     1       1.897   7.097  20.253  0.00  0.00    +0.000 A 
ATOM     15  C   UNL     1       2.405   5.814  20.181  0.00  0.00    +0.000 A 
ATOM     16  C   UNL     1       2.962   5.379  18.966  0.00  0.00    +0.000 A 
ATOM     17  C   UNL     1       3.015   6.225  17.845  0.00  0.00    +0.000 A 
ATOM     18  C   UNL     1       2.534   7.527  17.928  0.00  0.00    +0.000 A 
ATOM     19  C   UNL     1       2.006   7.940  19.138  0.00  0.00    +0.000 A 
ATOM     20  C   UNL     1       1.524   9.258  19.571  0.00  0.00    +0.000 C 
ATOM     21  N   UNL     1       1.627  10.406  18.989  0.00  0.00    +0.000 NA
ATOM     22  H   UNL     1      -1.144  11.324  24.230  0.00  0.00    +0.000 HD
ATOM     23  H   UNL     1       0.906   7.293  22.123  0.00  0.00    +0.000 HD
ENDROOT
BRANCH   8  24
ATOM     24  N   UNL     1      -0.659  13.681  18.363  0.00  0.00    +0.000 N 
ATOM     25  O   UNL     1      -0.295  14.864  18.350  0.00  0.00    +0.000 OA
ATOM     26  O   UNL     1      -0.818  12.983  17.348  0.00  0.00    +0.000 OA
ENDBRANCH   8  24
BRANCH  21  27
ATOM     27  O   UNL     1       2.080  10.359  17.675  0.00  0.00    +0.000 OA
ATOM     28  H   UNL     1       2.767  11.056  17.669  0.00  0.00    +0.000 HD
ENDBRANCH  21  27
TORSDOF 2
ENDMDL
MODEL 7
REMARK VINA RESULT:      -6.5      2.764      4.052
REMARK  Name = 
REMARK  2 active torsions:
REMARK  status: ('A' for Active; 'I' for Inactive)
REMARK    1  A    between atoms: C_8  and  N_9
REMARK    2  A    between atoms: N_24  and  O_25
REMARK                            x       y       z     vdW  Elec       q    Type
REMARK                         _______ _______ _______ _____ _____    ______ ____
ROOT
ATOM      1  O   UNL     1      -7.057  12.571  17.725  0.00  0.00    +0.000 OA
ATOM      2  C   UNL     1      -5.923  12.132  17.668  0.00  0.00    +0.000 C 
ATOM      3  N   UNL     1      -5.318  11.486  16.586  0.00  0.00    +0.000 N 
ATOM      4  C   UNL     1      -4.021  11.063  16.902  0.00  0.00    +0.000 A 
ATOM      5  C   UNL     1      -3.084  10.406  16.113  0.00  0.00    +0.000 A 
ATOM      6 BR   UNL     1      -3.452   9.924  14.327  0.00  0.00    +0.000 Br
ATOM      7  C   UNL     1      -1.824  10.121  16.661  0.00  0.00    +0.000 A 
ATOM      8  C   UNL     1      -1.592  10.376  18.024  0.00  0.00    +0.000 A 
ATOM      9  C   UNL     1      -2.606  10.880  18.831  0.00  0.00    +0.000 A 
ATOM     10  C   UNL     1      -3.745  11.375  18.230  0.00  0.00    +0.000 A 
ATOM     11  C   UNL     1      -4.859  12.196  18.725  0.00  0.00    +0.000 C 
ATOM     12  C   UNL     1      -4.924  13.008  19.795  0.00  0.00    +0.000 C 
ATOM     13  N   UNL     1      -5.985  13.723  20.334  0.00  0.00    +0.000 N 
ATOM     14  C   UNL     1      -5.658  14.102  21.642  0.00  0.00    +0.000 A 
ATOM     15  C   UNL     1      -6.434  14.777  22.565  0.00  0.00    +0.000 A 
ATOM     16  C   UNL     1      -5.857  15.131  23.796  0.00  0.00    +0.000 A 
ATOM     17  C   UNL     1      -4.518  14.820  24.089  0.00  0.00    +0.000 A 
ATOM     18  C   UNL     1      -3.729  14.170  23.148  0.00  0.00    +0.000 A 
ATOM     19  C   UNL     1      -4.311  13.846  21.936  0.00  0.00    +0.000 A 
ATOM     20  C   UNL     1      -3.729  13.264  20.719  0.00  0.00    +0.000 C 
ATOM     21  N   UNL     1      -2.490  13.065  20.412  0.00  0.00    +0.000 NA
ATOM     22  H   UNL     1      -5.781  11.329  15.706  0.00  0.00    +0.000 HD
ATOM     23  H   UNL     1      -6.931  13.500  20.049  0.00  0.00    +0.000 HD
ENDROOT
BRANCH   8  24
ATOM     24  N   UNL     1      -0.255  10.218  18.612  0.00  0.00    +0.000 N 
ATOM     25  O   UNL     1       0.599   9.629  17.938  0.00  0.00    +0.000 OA
ATOM     26  O   UNL     1      -0.049  10.712  19.732  0.00  0.00    +0.000 OA
ENDBRANCH   8  24
BRANCH  21  27
ATOM     27  O   UNL     1      -1.591  13.238  21.458  0.00  0.00    +0.000 OA
ATOM     28  H   UNL     1      -0.812  12.735  21.146  0.00  0.00    +0.000 HD
ENDBRANCH  21  27
TORSDOF 2
ENDMDL
MODEL 8
REMARK VINA RESULT:      -6.5      3.285      4.636
REMARK  Name = 
REMARK  2 active torsions:
REMARK  status: ('A' for Active; 'I' for Inactive)
REMARK    1  A    between atoms: C_8  and  N_9
REMARK    2  A    between atoms: N_24  and  O_25
REMARK                            x       y       z     vdW  Elec       q    Type
REMARK                         _______ _______ _______ _____ _____    ______ ____
ROOT
ATOM      1  O   UNL     1      -5.775  13.109  19.268  0.00  0.00    +0.000 OA
ATOM      2  C   UNL     1      -4.723  12.551  19.013  0.00  0.00    +0.000 C 
ATOM      3  N   UNL     1      -4.398  11.845  17.851  0.00  0.00    +0.000 N 
ATOM      4  C   UNL     1      -3.118  11.285  17.933  0.00  0.00    +0.000 A 
ATOM      5  C   UNL     1      -2.417  10.533  16.999  0.00  0.00    +0.000 A 
ATOM      6 BR   UNL     1      -3.155  10.094  15.319  0.00  0.00    +0.000 Br
ATOM      7  C   UNL     1      -1.114  10.114  17.313  0.00  0.00    +0.000 A 
ATOM      8  C   UNL     1      -0.610  10.341  18.605  0.00  0.00    +0.000 A 
ATOM      9  C   UNL     1      -1.400  10.951  19.574  0.00  0.00    +0.000 A 
ATOM     10  C   UNL     1      -2.572  11.565  19.182  0.00  0.00    +0.000 A 
ATOM     11  C   UNL     1      -3.482  12.500  19.856  0.00  0.00    +0.000 C 
ATOM     12  C   UNL     1      -3.263  13.313  20.905  0.00  0.00    +0.000 C 
ATOM     13  N   UNL     1      -4.126  14.138  21.615  0.00  0.00    +0.000 N 
ATOM     14  C   UNL     1      -3.527  14.478  22.834  0.00  0.00    +0.000 A 
ATOM     15  C   UNL     1      -4.044  15.232  23.870  0.00  0.00    +0.000 A 
ATOM     16  C   UNL     1      -3.216  15.522  24.967  0.00  0.00    +0.000 A 
ATOM     17  C   UNL     1      -1.887  15.068  25.017  0.00  0.00    +0.000 A 
ATOM     18  C   UNL     1      -1.357  14.339  23.960  0.00  0.00    +0.000 A 
ATOM     19  C   UNL     1      -2.183  14.079  22.881  0.00  0.00    +0.000 A 
ATOM     20  C   UNL     1      -1.899  13.440  21.590  0.00  0.00    +0.000 C 
ATOM     21  N   UNL     1      -0.765  13.109  21.065  0.00  0.00    +0.000 NA
ATOM     22  H   UNL     1      -5.030  11.739  17.074  0.00  0.00    +0.000 HD
ATOM     23  H   UNL     1      -5.126  14.017  21.511  0.00  0.00    +0.000 HD
ENDROOT
BRANCH   8  24
ATOM     24  N   UNL     1       0.788  10.041  18.941  0.00  0.00    +0.000 N 
ATOM     25  O   UNL     1       1.082   9.959  20.140  0.00  0.00    +0.000 OA
ATOM     26  O   UNL     1       1.584   9.852  18.007  0.00  0.00    +0.000 OA
ENDBRANCH   8  24
BRANCH  21  27
ATOM     27  O   UNL     1       0.324  13.184  21.926  0.00  0.00    +0.000 OA
ATOM     28  H   UNL     1       0.125  12.475  22.572  0.00  0.00    +0.000 HD
ENDBRANCH  21  27
TORSDOF 2
ENDMDL
MODEL 9
REMARK VINA RESULT:      -6.4      3.564      5.948
REMARK  Name = 
REMARK  2 active torsions:
REMARK  status: ('A' for Active; 'I' for Inactive)
REMARK    1  A    between atoms: C_8  and  N_9
REMARK    2  A    between atoms: N_24  and  O_25
REMARK                            x       y       z     vdW  Elec       q    Type
REMARK                         _______ _______ _______ _____ _____    ______ ____
ROOT
ATOM      1  O   UNL     1       0.486  12.290  21.591  0.00  0.00    +0.000 OA
ATOM      2  C   UNL     1      -0.564  12.737  22.014  0.00  0.00    +0.000 C 
ATOM      3  N   UNL     1      -0.751  13.529  23.151  0.00  0.00    +0.000 N 
ATOM      4  C   UNL     1      -2.108  13.806  23.363  0.00  0.00    +0.000 A 
ATOM      5  C   UNL     1      -2.713  14.565  24.358  0.00  0.00    +0.000 A 
ATOM      6 BR   UNL     1      -1.710  15.407  25.715  0.00  0.00    +0.000 Br
ATOM      7  C   UNL     1      -4.107  14.722  24.329  0.00  0.00    +0.000 A 
ATOM      8  C   UNL     1      -4.862  14.001  23.388  0.00  0.00    +0.000 A 
ATOM      9  C   UNL     1      -4.242  13.119  22.510  0.00  0.00    +0.000 A 
ATOM     10  C   UNL     1      -2.868  13.160  22.393  0.00  0.00    +0.000 A 
ATOM     11  C   UNL     1      -1.932  12.591  21.413  0.00  0.00    +0.000 C 
ATOM     12  C   UNL     1      -2.149  12.174  20.154  0.00  0.00    +0.000 C 
ATOM     13  N   UNL     1      -1.307  11.553  19.241  0.00  0.00    +0.000 N 
ATOM     14  C   UNL     1      -2.083  10.978  18.226  0.00  0.00    +0.000 A 
ATOM     15  C   UNL     1      -1.669  10.221  17.147  0.00  0.00    +0.000 A 
ATOM     16  C   UNL     1      -2.628   9.825  16.199  0.00  0.00    +0.000 A 
ATOM     17  C   UNL     1      -3.978  10.192  16.331  0.00  0.00    +0.000 A 
ATOM     18  C   UNL     1      -4.387  10.982  17.399  0.00  0.00    +0.000 A 
ATOM     19  C   UNL     1      -3.425  11.376  18.311  0.00  0.00    +0.000 A 
ATOM     20  C   UNL     1      -3.513  12.280  19.464  0.00  0.00    +0.000 C 
ATOM     21  N   UNL     1      -4.471  13.071  19.821  0.00  0.00    +0.000 NA
ATOM     22  H   UNL     1       0.003  13.829  23.746  0.00  0.00    +0.000 HD
ATOM     23  H   UNL     1      -0.438  11.144  19.564  0.00  0.00    +0.000 HD
ENDROOT
BRANCH   8  24
ATOM     24  N   UNL     1      -6.305  14.231  23.232  0.00  0.00    +0.000 N 
ATOM     25  O   UNL     1      -6.888  13.614  22.331  0.00  0.00    +0.000 OA
ATOM     26  O   UNL     1      -6.862  15.002  24.030  0.00  0.00    +0.000 OA
ENDBRANCH   8  24
BRANCH  21  27
ATOM     27  O   UNL     1      -5.665  12.894  19.131  0.00  0.00    +0.000 OA
ATOM     28  H   UNL     1      -5.696  11.922  19.019  0.00  0.00    +0.000 HD
ENDBRANCH  21  27
TORSDOF 2
ENDMDL
