MODEL 1
REMARK VINA RESULT:      -6.9      0.000      0.000
REMARK  Name = 
REMARK  3 active torsions:
REMARK  status: ('A' for Active; 'I' for Inactive)
REMARK    1  A    between atoms: C_1  and  C_2
REMARK    2  A    between atoms: N_11  and  C_12
REMARK    3  A    between atoms: C_12  and  C_13
REMARK                            x       y       z     vdW  Elec       q    Type
REMARK                         _______ _______ _______ _____ _____    ______ ____
ROOT
ATOM      1  C   UNL     1       0.903   8.635  21.084  0.00  0.00    +0.000 C 
ATOM      2  C   UNL     1       1.581   7.509  20.408  0.00  0.00    +0.000 A 
ATOM      3  N   UNL     1       2.405   7.682  19.326  0.00  0.00    +0.000 NA
ATOM      4  C   UNL     1       2.786   6.453  19.045  0.00  0.00    +0.000 A 
ATOM      5  C   UNL     1       3.666   5.956  18.016  0.00  0.00    +0.000 A 
ATOM      6  C   UNL     1       4.278   6.841  17.118  0.00  0.00    +0.000 A 
ATOM      7  C   UNL     1       5.130   6.352  16.135  0.00  0.00    +0.000 A 
ATOM      8  C   UNL     1       5.369   4.983  16.059  0.00  0.00    +0.000 A 
ATOM      9  C   UNL     1       4.761   4.092  16.961  0.00  0.00    +0.000 A 
ATOM     10  C   UNL     1       3.892   4.561  17.955  0.00  0.00    +0.000 A 
ATOM     11  N   UNL     1       3.222   3.695  18.904  0.00  0.00    +0.000 N 
ATOM     12  C   UNL     1       2.379   4.180  19.924  0.00  0.00    +0.000 A 
ATOM     13  O   UNL     1       1.816   3.490  20.766  0.00  0.00    +0.000 OA
ATOM     14  N   UNL     1       2.209   5.574  19.919  0.00  0.00    +0.000 N 
ATOM     15  N   UNL     1       1.427   6.241  20.806  0.00  0.00    +0.000 NA
ENDROOT
BRANCH  11  16
ATOM     16  C   UNL     1       3.472   2.236  18.960  0.00  0.00    +0.000 C 
BRANCH  16  17
ATOM     17  C   UNL     1       4.446   1.911  20.081  0.00  0.00    +0.000 C 
ATOM     18  N   UNL     1       5.255   1.641  21.010  0.00  0.00    +0.000 NA
ENDBRANCH  16  17
ENDBRANCH  11  16
TORSDOF 2
ENDMDL
MODEL 2
REMARK VINA RESULT:      -6.8      2.415      3.802
REMARK  Name = 
REMARK  3 active torsions:
REMARK  status: ('A' for Active; 'I' for Inactive)
REMARK    1  A    between atoms: C_1  and  C_2
REMARK    2  A    between atoms: N_11  and  C_12
REMARK    3  A    between atoms: C_12  and  C_13
REMARK                            x       y       z     vdW  Elec       q    Type
REMARK                         _______ _______ _______ _____ _____    ______ ____
ROOT
ATOM      1  C   UNL     1       1.395  10.130  18.520  0.00  0.00    +0.000 C 
ATOM      2  C   UNL     1       2.040   8.800  18.494  0.00  0.00    +0.000 A 
ATOM      3  N   UNL     1       1.774   7.829  19.424  0.00  0.00    +0.000 NA
ATOM      4  C   UNL     1       2.543   6.832  19.039  0.00  0.00    +0.000 A 
ATOM      5  C   UNL     1       2.720   5.513  19.595  0.00  0.00    +0.000 A 
ATOM      6  C   UNL     1       1.996   5.121  20.730  0.00  0.00    +0.000 A 
ATOM      7  C   UNL     1       2.167   3.845  21.254  0.00  0.00    +0.000 A 
ATOM      8  C   UNL     1       3.058   2.969  20.640  0.00  0.00    +0.000 A 
ATOM      9  C   UNL     1       3.783   3.358  19.500  0.00  0.00    +0.000 A 
ATOM     10  C   UNL     1       3.632   4.641  18.957  0.00  0.00    +0.000 A 
ATOM     11  N   UNL     1       4.360   5.109  17.796  0.00  0.00    +0.000 N 
ATOM     12  C   UNL     1       4.174   6.389  17.236  0.00  0.00    +0.000 A 
ATOM     13  O   UNL     1       4.743   6.816  16.238  0.00  0.00    +0.000 OA
ATOM     14  N   UNL     1       3.250   7.191  17.925  0.00  0.00    +0.000 N 
ATOM     15  N   UNL     1       2.936   8.461  17.561  0.00  0.00    +0.000 NA
ENDROOT
BRANCH  11  16
ATOM     16  C   UNL     1       5.268   4.230  17.022  0.00  0.00    +0.000 C 
BRANCH  16  17
ATOM     17  C   UNL     1       6.702   4.407  17.497  0.00  0.00    +0.000 C 
ATOM     18  N   UNL     1       7.891   4.552  17.889  0.00  0.00    +0.000 NA
ENDBRANCH  16  17
ENDBRANCH  11  16
TORSDOF 2
ENDMDL
MODEL 3
REMARK VINA RESULT:      -6.8      2.694      3.881
REMARK  Name = 
REMARK  3 active torsions:
REMARK  status: ('A' for Active; 'I' for Inactive)
REMARK    1  A    between atoms: C_1  and  C_2
REMARK    2  A    between atoms: N_11  and  C_12
REMARK    3  A    between atoms: C_12  and  C_13
REMARK                            x       y       z     vdW  Elec       q    Type
REMARK                         _______ _______ _______ _____ _____    ______ ____
ROOT
ATOM      1  C   UNL     1       1.575   9.622  18.172  0.00  0.00    +0.000 C 
ATOM      2  C   UNL     1       2.274   8.346  17.909  0.00  0.00    +0.000 A 
ATOM      3  N   UNL     1       1.777   7.133  18.312  0.00  0.00    +0.000 NA
ATOM      4  C   UNL     1       2.689   6.285  17.886  0.00  0.00    +0.000 A 
ATOM      5  C   UNL     1       2.754   4.847  17.988  0.00  0.00    +0.000 A 
ATOM      6  C   UNL     1       1.723   4.134  18.616  0.00  0.00    +0.000 A 
ATOM      7  C   UNL     1       1.791   2.749  18.702  0.00  0.00    +0.000 A 
ATOM      8  C   UNL     1       2.886   2.085  18.155  0.00  0.00    +0.000 A 
ATOM      9  C   UNL     1       3.919   2.796  17.520  0.00  0.00    +0.000 A 
ATOM     10  C   UNL     1       3.875   4.193  17.428  0.00  0.00    +0.000 A 
ATOM     11  N   UNL     1       4.914   4.985  16.802  0.00  0.00    +0.000 N 
ATOM     12  C   UNL     1       4.844   6.388  16.682  0.00  0.00    +0.000 A 
ATOM     13  O   UNL     1       5.682   7.096  16.134  0.00  0.00    +0.000 OA
ATOM     14  N   UNL     1       3.698   6.960  17.258  0.00  0.00    +0.000 N 
ATOM     15  N   UNL     1       3.445   8.293  17.266  0.00  0.00    +0.000 NA
ENDROOT
BRANCH  11  16
ATOM     16  C   UNL     1       6.077   4.371  16.119  0.00  0.00    +0.000 C 
BRANCH  16  17
ATOM     17  C   UNL     1       7.266   4.302  17.065  0.00  0.00    +0.000 C 
ATOM     18  N   UNL     1       8.251   4.244  17.850  0.00  0.00    +0.000 NA
ENDBRANCH  16  17
ENDBRANCH  11  16
TORSDOF 2
ENDMDL
MODEL 4
REMARK VINA RESULT:      -6.8      2.751      4.140
REMARK  Name = 
REMARK  3 active torsions:
REMARK  status: ('A' for Active; 'I' for Inactive)
REMARK    1  A    between atoms: C_1  and  C_2
REMARK    2  A    between atoms: N_11  and  C_12
REMARK    3  A    between atoms: C_12  and  C_13
REMARK                            x       y       z     vdW  Elec       q    Type
REMARK                         _______ _______ _______ _____ _____    ______ ____
ROOT
ATOM      1  C   UNL     1       1.731   9.554  18.156  0.00  0.00    +0.000 C 
ATOM      2  C   UNL     1       2.427   8.269  17.933  0.00  0.00    +0.000 A 
ATOM      3  N   UNL     1       1.847   7.056  18.206  0.00  0.00    +0.000 NA
ATOM      4  C   UNL     1       2.788   6.198  17.872  0.00  0.00    +0.000 A 
ATOM      5  C   UNL     1       2.801   4.756  17.914  0.00  0.00    +0.000 A 
ATOM      6  C   UNL     1       1.674   4.050  18.359  0.00  0.00    +0.000 A 
ATOM      7  C   UNL     1       1.694   2.661  18.389  0.00  0.00    +0.000 A 
ATOM      8  C   UNL     1       2.837   1.986  17.970  0.00  0.00    +0.000 A 
ATOM      9  C   UNL     1       3.967   2.690  17.519  0.00  0.00    +0.000 A 
ATOM     10  C   UNL     1       3.973   4.091  17.487  0.00  0.00    +0.000 A 
ATOM     11  N   UNL     1       5.110   4.875  17.049  0.00  0.00    +0.000 N 
ATOM     12  C   UNL     1       5.093   6.283  16.987  0.00  0.00    +0.000 A 
ATOM     13  O   UNL     1       6.017   6.986  16.595  0.00  0.00    +0.000 OA
ATOM     14  N   UNL     1       3.893   6.866  17.423  0.00  0.00    +0.000 N 
ATOM     15  N   UNL     1       3.675   8.206  17.457  0.00  0.00    +0.000 NA
ENDROOT
BRANCH  11  16
ATOM     16  C   UNL     1       6.341   4.254  16.508  0.00  0.00    +0.000 C 
BRANCH  16  17
ATOM     17  C   UNL     1       6.198   4.020  15.012  0.00  0.00    +0.000 C 
ATOM     18  N   UNL     1       6.081   3.825  13.772  0.00  0.00    +0.000 NA
ENDBRANCH  16  17
ENDBRANCH  11  16
TORSDOF 2
ENDMDL
MODEL 5
REMARK VINA RESULT:      -6.7      3.118      4.530
REMARK  Name = 
REMARK  3 active torsions:
REMARK  status: ('A' for Active; 'I' for Inactive)
REMARK    1  A    between atoms: C_1  and  C_2
REMARK    2  A    between atoms: N_11  and  C_12
REMARK    3  A    between atoms: C_12  and  C_13
REMARK                            x       y       z     vdW  Elec       q    Type
REMARK                         _______ _______ _______ _____ _____    ______ ____
ROOT
ATOM      1  C   UNL     1       1.224   2.709  18.668  0.00  0.00    +0.000 C 
ATOM      2  C   UNL     1       2.538   3.251  18.262  0.00  0.00    +0.000 A 
ATOM      3  N   UNL     1       2.969   3.251  16.960  0.00  0.00    +0.000 NA
ATOM      4  C   UNL     1       4.159   3.809  17.043  0.00  0.00    +0.000 A 
ATOM      5  C   UNL     1       5.129   4.107  16.018  0.00  0.00    +0.000 A 
ATOM      6  C   UNL     1       4.860   3.801  14.677  0.00  0.00    +0.000 A 
ATOM      7  C   UNL     1       5.798   4.099  13.696  0.00  0.00    +0.000 A 
ATOM      8  C   UNL     1       6.997   4.705  14.061  0.00  0.00    +0.000 A 
ATOM      9  C   UNL     1       7.269   5.017  15.405  0.00  0.00    +0.000 A 
ATOM     10  C   UNL     1       6.342   4.719  16.412  0.00  0.00    +0.000 A 
ATOM     11  N   UNL     1       6.568   4.999  17.815  0.00  0.00    +0.000 N 
ATOM     12  C   UNL     1       5.613   4.729  18.816  0.00  0.00    +0.000 A 
ATOM     13  O   UNL     1       5.748   4.977  20.009  0.00  0.00    +0.000 OA
ATOM     14  N   UNL     1       4.436   4.126  18.343  0.00  0.00    +0.000 N 
ATOM     15  N   UNL     1       3.399   3.771  19.144  0.00  0.00    +0.000 NA
ENDROOT
BRANCH  11  16
ATOM     16  C   UNL     1       7.773   5.714  18.296  0.00  0.00    +0.000 C 
BRANCH  16  17
ATOM     17  C   UNL     1       7.739   7.166  17.848  0.00  0.00    +0.000 C 
ATOM     18  N   UNL     1       7.711   8.370  17.474  0.00  0.00    +0.000 NA
ENDBRANCH  16  17
ENDBRANCH  11  16
TORSDOF 2
ENDMDL
MODEL 6
REMARK VINA RESULT:      -6.6      2.041      3.666
REMARK  Name = 
REMARK  3 active torsions:
REMARK  status: ('A' for Active; 'I' for Inactive)
REMARK    1  A    between atoms: C_1  and  C_2
REMARK    2  A    between atoms: N_11  and  C_12
REMARK    3  A    between atoms: C_12  and  C_13
REMARK                            x       y       z     vdW  Elec       q    Type
REMARK                         _______ _______ _______ _____ _____    ______ ____
ROOT
ATOM      1  C   UNL     1       0.714   9.285  20.431  0.00  0.00    +0.000 C 
ATOM      2  C   UNL     1       1.493   8.092  20.038  0.00  0.00    +0.000 A 
ATOM      3  N   UNL     1       1.458   6.918  20.746  0.00  0.00    +0.000 NA
ATOM      4  C   UNL     1       2.277   6.140  20.069  0.00  0.00    +0.000 A 
ATOM      5  C   UNL     1       2.668   4.770  20.291  0.00  0.00    +0.000 A 
ATOM      6  C   UNL     1       2.144   4.050  21.374  0.00  0.00    +0.000 A 
ATOM      7  C   UNL     1       2.521   2.728  21.576  0.00  0.00    +0.000 A 
ATOM      8  C   UNL     1       3.417   2.133  20.692  0.00  0.00    +0.000 A 
ATOM      9  C   UNL     1       3.942   2.850  19.603  0.00  0.00    +0.000 A 
ATOM     10  C   UNL     1       3.581   4.186  19.384  0.00  0.00    +0.000 A 
ATOM     11  N   UNL     1       4.098   4.984  18.291  0.00  0.00    +0.000 N 
ATOM     12  C   UNL     1       3.701   6.316  18.058  0.00  0.00    +0.000 A 
ATOM     13  O   UNL     1       4.087   7.019  17.131  0.00  0.00    +0.000 OA
ATOM     14  N   UNL     1       2.790   6.820  19.000  0.00  0.00    +0.000 N 
ATOM     15  N   UNL     1       2.294   8.084  18.967  0.00  0.00    +0.000 NA
ENDROOT
BRANCH  11  16
ATOM     16  C   UNL     1       4.990   4.422  17.251  0.00  0.00    +0.000 C 
BRANCH  16  17
ATOM     17  C   UNL     1       6.441   4.511  17.697  0.00  0.00    +0.000 C 
ATOM     18  N   UNL     1       7.645   4.586  18.066  0.00  0.00    +0.000 NA
ENDBRANCH  16  17
ENDBRANCH  11  16
TORSDOF 2
ENDMDL
MODEL 7
REMARK VINA RESULT:      -6.6      2.086      3.605
REMARK  Name = 
REMARK  3 active torsions:
REMARK  status: ('A' for Active; 'I' for Inactive)
REMARK    1  A    between atoms: C_1  and  C_2
REMARK    2  A    between atoms: N_11  and  C_12
REMARK    3  A    between atoms: C_12  and  C_13
REMARK                            x       y       z     vdW  Elec       q    Type
REMARK                         _______ _______ _______ _____ _____    ______ ____
ROOT
ATOM      1  C   UNL     1       1.015   8.375  21.253  0.00  0.00    +0.000 C 
ATOM      2  C   UNL     1       1.703   7.396  20.386  0.00  0.00    +0.000 A 
ATOM      3  N   UNL     1       1.547   6.041  20.530  0.00  0.00    +0.000 NA
ATOM      4  C   UNL     1       2.318   5.553  19.580  0.00  0.00    +0.000 A 
ATOM      5  C   UNL     1       2.586   4.188  19.198  0.00  0.00    +0.000 A 
ATOM      6  C   UNL     1       1.970   3.128  19.878  0.00  0.00    +0.000 A 
ATOM      7  C   UNL     1       2.229   1.817  19.498  0.00  0.00    +0.000 A 
ATOM      8  C   UNL     1       3.098   1.574  18.437  0.00  0.00    +0.000 A 
ATOM      9  C   UNL     1       3.714   2.634  17.750  0.00  0.00    +0.000 A 
ATOM     10  C   UNL     1       3.473   3.964  18.121  0.00  0.00    +0.000 A 
ATOM     11  N   UNL     1       4.088   5.099  17.464  0.00  0.00    +0.000 N 
ATOM     12  C   UNL     1       3.812   6.435  17.821  0.00  0.00    +0.000 A 
ATOM     13  O   UNL     1       4.283   7.426  17.276  0.00  0.00    +0.000 OA
ATOM     14  N   UNL     1       2.919   6.572  18.896  0.00  0.00    +0.000 N 
ATOM     15  N   UNL     1       2.532   7.770  19.405  0.00  0.00    +0.000 NA
ENDROOT
BRANCH  11  16
ATOM     16  C   UNL     1       4.961   4.952  16.277  0.00  0.00    +0.000 C 
BRANCH  16  17
ATOM     17  C   UNL     1       6.406   4.751  16.706  0.00  0.00    +0.000 C 
ATOM     18  N   UNL     1       7.604   4.584  17.062  0.00  0.00    +0.000 NA
ENDBRANCH  16  17
ENDBRANCH  11  16
TORSDOF 2
ENDMDL
MODEL 8
REMARK VINA RESULT:      -6.5      1.745      1.984
REMARK  Name = 
REMARK  3 active torsions:
REMARK  status: ('A' for Active; 'I' for Inactive)
REMARK    1  A    between atoms: C_1  and  C_2
REMARK    2  A    between atoms: N_11  and  C_12
REMARK    3  A    between atoms: C_12  and  C_13
REMARK                            x       y       z     vdW  Elec       q    Type
REMARK                         _______ _______ _______ _____ _____    ______ ____
ROOT
ATOM      1  C   UNL     1       1.454  10.316  18.356  0.00  0.00    +0.000 C 
ATOM      2  C   UNL     1       2.056   8.966  18.392  0.00  0.00    +0.000 A 
ATOM      3  N   UNL     1       2.952   8.529  17.450  0.00  0.00    +0.000 NA
ATOM      4  C   UNL     1       3.226   7.305  17.851  0.00  0.00    +0.000 A 
ATOM      5  C   UNL     1       4.110   6.311  17.292  0.00  0.00    +0.000 A 
ATOM      6  C   UNL     1       4.854   6.594  16.138  0.00  0.00    +0.000 A 
ATOM      7  C   UNL     1       5.709   5.632  15.612  0.00  0.00    +0.000 A 
ATOM      8  C   UNL     1       5.818   4.397  16.245  0.00  0.00    +0.000 A 
ATOM      9  C   UNL     1       5.076   4.112  17.404  0.00  0.00    +0.000 A 
ATOM     10  C   UNL     1       4.203   5.063  17.949  0.00  0.00    +0.000 A 
ATOM     11  N   UNL     1       3.400   4.825  19.131  0.00  0.00    +0.000 N 
ATOM     12  C   UNL     1       2.552   5.802  19.692  0.00  0.00    +0.000 A 
ATOM     13  O   UNL     1       1.878   5.658  20.706  0.00  0.00    +0.000 OA
ATOM     14  N   UNL     1       2.520   7.014  18.984  0.00  0.00    +0.000 N 
ATOM     15  N   UNL     1       1.757   8.077  19.346  0.00  0.00    +0.000 NA
ENDROOT
BRANCH  11  16
ATOM     16  C   UNL     1       3.503   3.578  19.923  0.00  0.00    +0.000 C 
BRANCH  16  17
ATOM     17  C   UNL     1       2.426   2.593  19.497  0.00  0.00    +0.000 C 
ATOM     18  N   UNL     1       1.531   1.777  19.143  0.00  0.00    +0.000 NA
ENDBRANCH  16  17
ENDBRANCH  11  16
TORSDOF 2
ENDMDL
MODEL 9
REMARK VINA RESULT:      -6.5      2.205      4.586
REMARK  Name = 
REMARK  3 active torsions:
REMARK  status: ('A' for Active; 'I' for Inactive)
REMARK    1  A    between atoms: C_1  and  C_2
REMARK    2  A    between atoms: N_11  and  C_12
REMARK    3  A    between atoms: C_12  and  C_13
REMARK                            x       y       z     vdW  Elec       q    Type
REMARK                         _______ _______ _______ _____ _____    ______ ____
ROOT
ATOM      1  C   UNL     1       6.820   4.769  14.183  0.00  0.00    +0.000 C 
ATOM      2  C   UNL     1       5.898   4.826  15.338  0.00  0.00    +0.000 A 
ATOM      3  N   UNL     1       5.295   5.988  15.746  0.00  0.00    +0.000 NA
ATOM      4  C   UNL     1       4.577   5.599  16.780  0.00  0.00    +0.000 A 
ATOM      5  C   UNL     1       3.702   6.347  17.649  0.00  0.00    +0.000 A 
ATOM      6  C   UNL     1       3.504   7.720  17.444  0.00  0.00    +0.000 A 
ATOM      7  C   UNL     1       2.654   8.430  18.283  0.00  0.00    +0.000 A 
ATOM      8  C   UNL     1       2.003   7.764  19.317  0.00  0.00    +0.000 A 
ATOM      9  C   UNL     1       2.196   6.387  19.524  0.00  0.00    +0.000 A 
ATOM     10  C   UNL     1       3.055   5.652  18.696  0.00  0.00    +0.000 A 
ATOM     11  N   UNL     1       3.309   4.235  18.866  0.00  0.00    +0.000 N 
ATOM     12  C   UNL     1       4.146   3.497  18.005  0.00  0.00    +0.000 A 
ATOM     13  O   UNL     1       4.367   2.294  18.090  0.00  0.00    +0.000 OA
ATOM     14  N   UNL     1       4.747   4.259  16.990  0.00  0.00    +0.000 N 
ATOM     15  N   UNL     1       5.599   3.745  16.066  0.00  0.00    +0.000 NA
ENDROOT
BRANCH  11  16
ATOM     16  C   UNL     1       2.606   3.419  19.882  0.00  0.00    +0.000 C 
BRANCH  16  17
ATOM     17  C   UNL     1       1.364   2.782  19.279  0.00  0.00    +0.000 C 
ATOM     18  N   UNL     1       0.335   2.253  18.778  0.00  0.00    +0.000 NA
ENDBRANCH  16  17
ENDBRANCH  11  16
TORSDOF 2
ENDMDL
