MODEL 1
REMARK VINA RESULT:      -8.5      0.000      0.000
REMARK  Name = 
REMARK  13 active torsions:
REMARK  status: ('A' for Active; 'I' for Inactive)
REMARK    1  A    between atoms: C_2  and  C_3
REMARK    2  A    between atoms: C_2  and  O_14
REMARK    3  A    between atoms: C_4  and  C_5
REMARK    4  A    between atoms: C_5  and  O_6
REMARK    5  A    between atoms: C_9  and  O_10
REMARK    6  A    between atoms: O_14  and  C_15
REMARK    7  A    between atoms: C_15  and  C_16
REMARK    8  A    between atoms: C_18  and  O_19
REMARK    9  A    between atoms: O_19  and  C_20
REMARK   10  A    between atoms: C_23  and  O_24
REMARK   11  A    between atoms: C_27  and  O_28
REMARK   12  A    between atoms: C_29  and  O_30
REMARK   13  A    between atoms: C_31  and  O_32
REMARK                            x       y       z     vdW  Elec       q    Type
REMARK                         _______ _______ _______ _____ _____    ______ ____
ROOT
ATOM      1  C   UNL     1       2.266   5.018  19.820  0.00  0.00    +0.000 C 
ATOM      2  O   UNL     1       3.685   4.883  19.942  0.00  0.00    +0.000 OA
ATOM      3  C   UNL     1       4.248   4.107  18.876  0.00  0.00    +0.000 C 
ATOM      4  C   UNL     1       3.703   2.651  18.919  0.00  0.00    +0.000 C 
ATOM      5  C   UNL     1       2.160   2.643  19.022  0.00  0.00    +0.000 C 
ATOM      6  C   UNL     1       1.639   3.640  20.074  0.00  0.00    +0.000 C 
ENDROOT
BRANCH   4   7
ATOM      7  O   UNL     1       4.125   1.915  17.751  0.00  0.00    +0.000 OA
ATOM      8  H   UNL     1       3.473   1.220  17.560  0.00  0.00    +0.000 HD
ENDBRANCH   4   7
BRANCH   5   9
ATOM      9  O   UNL     1       1.687   1.317  19.299  0.00  0.00    +0.000 OA
ATOM     10  H   UNL     1       1.092   1.352  20.073  0.00  0.00    +0.000 HD
ENDBRANCH   5   9
BRANCH   6  11
ATOM     11  O   UNL     1       0.214   3.704  20.058  0.00  0.00    +0.000 OA
ATOM     12  H   UNL     1      -0.081   4.076  19.207  0.00  0.00    +0.000 HD
ENDBRANCH   6  11
BRANCH   1  13
ATOM     13  C   UNL     1       1.755   6.076  20.811  0.00  0.00    +0.000 C 
BRANCH  13  14
ATOM     14  O   UNL     1       1.827   7.418  20.272  0.00  0.00    +0.000 OA
BRANCH  14  16
ATOM     15  O   UNL     1       1.699   8.714  22.166  0.00  0.00    +0.000 OA
ATOM     16  C   UNL     1       1.319   8.405  21.043  0.00  0.00    +0.000 C 
BRANCH  16  17
ATOM     17  C   UNL     1       0.241   9.104  20.294  0.00  0.00    +0.000 C 
ATOM     18  C   UNL     1       0.441  10.271  19.651  0.00  0.00    +0.000 C 
BRANCH  18  19
ATOM     19  C   UNL     1      -0.596  10.969  18.793  0.00  0.00    +0.000 C 
ATOM     20  C   UNL     1      -1.199  10.009  17.809  0.00  0.00    +0.000 C 
ATOM     21  C   UNL     1      -2.466  10.077  17.392  0.00  0.00    +0.000 C 
ATOM     22  C   UNL     1      -3.442  11.102  17.862  0.00  0.00    +0.000 C 
ATOM     23  C   UNL     1      -3.019  11.986  19.036  0.00  0.00    +0.000 C 
ATOM     24  C   UNL     1      -1.693  11.628  19.678  0.00  0.00    +0.000 C 
ATOM     25  O   UNL     1      -1.486  11.966  20.852  0.00  0.00    +0.000 OA
BRANCH  19  26
ATOM     26  O   UNL     1      -0.001  11.961  17.963  0.00  0.00    +0.000 OA
ATOM     27  H   UNL     1       0.710  11.564  17.438  0.00  0.00    +0.000 HD
ENDBRANCH  19  26
BRANCH  22  28
ATOM     28  O   UNL     1      -3.730  11.929  16.738  0.00  0.00    +0.000 OA
ATOM     29  H   UNL     1      -4.441  11.496  16.230  0.00  0.00    +0.000 HD
ENDBRANCH  22  28
ENDBRANCH  18  19
ENDBRANCH  16  17
ENDBRANCH  14  16
ENDBRANCH  13  14
ENDBRANCH   1  13
BRANCH   3  30
ATOM     30  O   UNL     1       5.681   4.084  18.962  0.00  0.00    +0.000 OA
BRANCH  30  31
ATOM     31  C   UNL     1       6.352   5.230  18.617  0.00  0.00    +0.000 A 
ATOM     32  C   UNL     1       7.525   5.706  19.212  0.00  0.00    +0.000 A 
ATOM     33  C   UNL     1       8.146   6.869  18.743  0.00  0.00    +0.000 A 
ATOM     34  C   UNL     1       7.577   7.572  17.688  0.00  0.00    +0.000 A 
ATOM     35  C   UNL     1       6.403   7.126  17.094  0.00  0.00    +0.000 A 
ATOM     36  C   UNL     1       5.794   5.954  17.557  0.00  0.00    +0.000 A 
BRANCH  34  37
ATOM     37  O   UNL     1       8.151   8.712  17.208  0.00  0.00    +0.000 OA
ATOM     38  H   UNL     1       8.748   9.063  17.890  0.00  0.00    +0.000 HD
ENDBRANCH  34  37
ENDBRANCH  30  31
ENDBRANCH   3  30
TORSDOF 13
ENDMDL
MODEL 2
REMARK VINA RESULT:      -8.2      3.079      7.836
REMARK  Name = 
REMARK  13 active torsions:
REMARK  status: ('A' for Active; 'I' for Inactive)
REMARK    1  A    between atoms: C_2  and  C_3
REMARK    2  A    between atoms: C_2  and  O_14
REMARK    3  A    between atoms: C_4  and  C_5
REMARK    4  A    between atoms: C_5  and  O_6
REMARK    5  A    between atoms: C_9  and  O_10
REMARK    6  A    between atoms: O_14  and  C_15
REMARK    7  A    between atoms: C_15  and  C_16
REMARK    8  A    between atoms: C_18  and  O_19
REMARK    9  A    between atoms: O_19  and  C_20
REMARK   10  A    between atoms: C_23  and  O_24
REMARK   11  A    between atoms: C_27  and  O_28
REMARK   12  A    between atoms: C_29  and  O_30
REMARK   13  A    between atoms: C_31  and  O_32
REMARK                            x       y       z     vdW  Elec       q    Type
REMARK                         _______ _______ _______ _____ _____    ______ ____
ROOT
ATOM      1  C   UNL     1       5.470   6.150  17.892  0.00  0.00    +0.000 C 
ATOM      2  O   UNL     1       4.075   6.450  17.812  0.00  0.00    +0.000 OA
ATOM      3  C   UNL     1       3.394   6.194  19.048  0.00  0.00    +0.000 C 
ATOM      4  C   UNL     1       3.458   4.680  19.397  0.00  0.00    +0.000 C 
ATOM      5  C   UNL     1       4.909   4.152  19.298  0.00  0.00    +0.000 C 
ATOM      6  C   UNL     1       5.618   4.628  18.016  0.00  0.00    +0.000 C 
ENDROOT
BRANCH   4   7
ATOM      7  O   UNL     1       2.933   4.441  20.720  0.00  0.00    +0.000 OA
ATOM      8  H   UNL     1       3.257   5.131  21.321  0.00  0.00    +0.000 HD
ENDBRANCH   4   7
BRANCH   5   9
ATOM      9  O   UNL     1       4.923   2.720  19.387  0.00  0.00    +0.000 OA
ATOM     10  H   UNL     1       4.852   2.465  20.328  0.00  0.00    +0.000 HD
ENDBRANCH   5   9
BRANCH   6  11
ATOM     11  O   UNL     1       6.989   4.234  18.014  0.00  0.00    +0.000 OA
ATOM     12  H   UNL     1       7.506   4.875  17.494  0.00  0.00    +0.000 HD
ENDBRANCH   6  11
BRANCH   1  13
ATOM     13  C   UNL     1       6.195   6.700  16.652  0.00  0.00    +0.000 C 
BRANCH  13  14
ATOM     14  O   UNL     1       7.622   6.828  16.858  0.00  0.00    +0.000 OA
BRANCH  14  16
ATOM     15  O   UNL     1       8.236   6.876  19.073  0.00  0.00    +0.000 OA
ATOM     16  C   UNL     1       8.015   7.430  18.003  0.00  0.00    +0.000 C 
BRANCH  16  17
ATOM     17  C   UNL     1       8.186   8.886  17.755  0.00  0.00    +0.000 C 
ATOM     18  C   UNL     1       8.902   9.683  18.572  0.00  0.00    +0.000 C 
BRANCH  18  19
ATOM     19  C   UNL     1       9.189  11.149  18.309  0.00  0.00    +0.000 C 
ATOM     20  C   UNL     1       8.170  11.725  17.370  0.00  0.00    +0.000 C 
ATOM     21  C   UNL     1       7.748  12.991  17.425  0.00  0.00    +0.000 C 
ATOM     22  C   UNL     1       8.222  13.983  18.433  0.00  0.00    +0.000 C 
ATOM     23  C   UNL     1       9.079  13.456  19.584  0.00  0.00    +0.000 C 
ATOM     24  C   UNL     1       9.241  11.950  19.641  0.00  0.00    +0.000 C 
ATOM     25  O   UNL     1       9.515  11.419  20.727  0.00  0.00    +0.000 OA
BRANCH  19  26
ATOM     26  O   UNL     1      10.416  11.320  17.608  0.00  0.00    +0.000 OA
ATOM     27  H   UNL     1      10.998  10.565  17.779  0.00  0.00    +0.000 HD
ENDBRANCH  19  26
BRANCH  22  28
ATOM     28  O   UNL     1       8.963  14.965  17.713  0.00  0.00    +0.000 OA
ATOM     29  H   UNL     1       9.905  14.720  17.768  0.00  0.00    +0.000 HD
ENDBRANCH  22  28
ENDBRANCH  18  19
ENDBRANCH  16  17
ENDBRANCH  14  16
ENDBRANCH  13  14
ENDBRANCH   1  13
BRANCH   3  30
ATOM     30  O   UNL     1       2.022   6.610  18.972  0.00  0.00    +0.000 OA
BRANCH  30  31
ATOM     31  C   UNL     1       1.654   7.707  19.710  0.00  0.00    +0.000 A 
ATOM     32  C   UNL     1       1.449   7.734  21.094  0.00  0.00    +0.000 A 
ATOM     33  C   UNL     1       1.116   8.926  21.745  0.00  0.00    +0.000 A 
ATOM     34  C   UNL     1       0.965  10.093  21.006  0.00  0.00    +0.000 A 
ATOM     35  C   UNL     1       1.146  10.084  19.629  0.00  0.00    +0.000 A 
ATOM     36  C   UNL     1       1.494   8.892  18.983  0.00  0.00    +0.000 A 
BRANCH  34  37
ATOM     37  O   UNL     1       0.635  11.272  21.606  0.00  0.00    +0.000 OA
ATOM     38  H   UNL     1       1.074  11.993  21.123  0.00  0.00    +0.000 HD
ENDBRANCH  34  37
ENDBRANCH  30  31
ENDBRANCH   3  30
TORSDOF 13
ENDMDL
MODEL 3
REMARK VINA RESULT:      -8.2      5.054      8.621
REMARK  Name = 
REMARK  13 active torsions:
REMARK  status: ('A' for Active; 'I' for Inactive)
REMARK    1  A    between atoms: C_2  and  C_3
REMARK    2  A    between atoms: C_2  and  O_14
REMARK    3  A    between atoms: C_4  and  C_5
REMARK    4  A    between atoms: C_5  and  O_6
REMARK    5  A    between atoms: C_9  and  O_10
REMARK    6  A    between atoms: O_14  and  C_15
REMARK    7  A    between atoms: C_15  and  C_16
REMARK    8  A    between atoms: C_18  and  O_19
REMARK    9  A    between atoms: O_19  and  C_20
REMARK   10  A    between atoms: C_23  and  O_24
REMARK   11  A    between atoms: C_27  and  O_28
REMARK   12  A    between atoms: C_29  and  O_30
REMARK   13  A    between atoms: C_31  and  O_32
REMARK                            x       y       z     vdW  Elec       q    Type
REMARK                         _______ _______ _______ _____ _____    ______ ____
ROOT
ATOM      1  C   UNL     1       5.888   6.352  17.162  0.00  0.00    +0.000 C 
ATOM      2  O   UNL     1       4.481   6.170  17.335  0.00  0.00    +0.000 OA
ATOM      3  C   UNL     1       4.148   4.819  17.685  0.00  0.00    +0.000 C 
ATOM      4  C   UNL     1       4.538   3.851  16.532  0.00  0.00    +0.000 C 
ATOM      5  C   UNL     1       5.995   4.095  16.075  0.00  0.00    +0.000 C 
ATOM      6  C   UNL     1       6.308   5.593  15.897  0.00  0.00    +0.000 C 
ENDROOT
BRANCH   4   7
ATOM      7  O   UNL     1       4.372   2.477  16.944  0.00  0.00    +0.000 OA
ATOM      8  H   UNL     1       3.434   2.234  16.871  0.00  0.00    +0.000 HD
ENDBRANCH   4   7
BRANCH   5   9
ATOM      9  O   UNL     1       6.265   3.370  14.867  0.00  0.00    +0.000 OA
ATOM     10  H   UNL     1       7.145   2.953  14.942  0.00  0.00    +0.000 HD
ENDBRANCH   5   9
BRANCH   6  11
ATOM     11  O   UNL     1       7.689   5.795  15.601  0.00  0.00    +0.000 OA
ATOM     12  H   UNL     1       7.781   6.555  14.999  0.00  0.00    +0.000 HD
ENDBRANCH   6  11
BRANCH   1  13
ATOM     13  C   UNL     1       6.213   7.852  17.069  0.00  0.00    +0.000 C 
BRANCH  13  14
ATOM     14  O   UNL     1       7.635   8.102  16.956  0.00  0.00    +0.000 OA
BRANCH  14  16
ATOM     15  O   UNL     1       8.620   7.663  18.986  0.00  0.00    +0.000 OA
ATOM     16  C   UNL     1       8.282   8.434  18.095  0.00  0.00    +0.000 C 
BRANCH  16  17
ATOM     17  C   UNL     1       8.566   9.894  18.089  0.00  0.00    +0.000 C 
ATOM     18  C   UNL     1       9.762  10.402  18.445  0.00  0.00    +0.000 C 
BRANCH  18  19
ATOM     19  C   UNL     1      10.132  11.871  18.358  0.00  0.00    +0.000 C 
ATOM     20  C   UNL     1       8.959  12.683  17.891  0.00  0.00    +0.000 C 
ATOM     21  C   UNL     1       8.725  13.937  18.288  0.00  0.00    +0.000 C 
ATOM     22  C   UNL     1       9.586  14.679  19.252  0.00  0.00    +0.000 C 
ATOM     23  C   UNL     1      10.672  13.883  19.977  0.00  0.00    +0.000 C 
ATOM     24  C   UNL     1      10.664  12.388  19.726  0.00  0.00    +0.000 C 
ATOM     25  O   UNL     1      11.177  11.637  20.567  0.00  0.00    +0.000 OA
BRANCH  19  26
ATOM     26  O   UNL     1      11.113  12.101  17.353  0.00  0.00    +0.000 OA
ATOM     27  H   UNL     1      11.841  12.623  17.721  0.00  0.00    +0.000 HD
ENDBRANCH  19  26
BRANCH  22  28
ATOM     28  O   UNL     1      10.196  15.736  18.517  0.00  0.00    +0.000 OA
ATOM     29  H   UNL     1       9.496  16.177  18.002  0.00  0.00    +0.000 HD
ENDBRANCH  22  28
ENDBRANCH  18  19
ENDBRANCH  16  17
ENDBRANCH  14  16
ENDBRANCH  13  14
ENDBRANCH   1  13
BRANCH   3  30
ATOM     30  O   UNL     1       2.746   4.694  17.962  0.00  0.00    +0.000 OA
BRANCH  30  31
ATOM     31  C   UNL     1       2.387   4.154  19.172  0.00  0.00    +0.000 A 
ATOM     32  C   UNL     1       2.616   4.727  20.427  0.00  0.00    +0.000 A 
ATOM     33  C   UNL     1       2.164   4.101  21.594  0.00  0.00    +0.000 A 
ATOM     34  C   UNL     1       1.500   2.884  21.505  0.00  0.00    +0.000 A 
ATOM     35  C   UNL     1       1.278   2.289  20.270  0.00  0.00    +0.000 A 
ATOM     36  C   UNL     1       1.719   2.926  19.105  0.00  0.00    +0.000 A 
BRANCH  34  37
ATOM     37  O   UNL     1       1.050   2.242  22.621  0.00  0.00    +0.000 OA
ATOM     38  H   UNL     1       1.629   2.481  23.365  0.00  0.00    +0.000 HD
ENDBRANCH  34  37
ENDBRANCH  30  31
ENDBRANCH   3  30
TORSDOF 13
ENDMDL
MODEL 4
REMARK VINA RESULT:      -7.9      5.105      8.737
REMARK  Name = 
REMARK  13 active torsions:
REMARK  status: ('A' for Active; 'I' for Inactive)
REMARK    1  A    between atoms: C_2  and  C_3
REMARK    2  A    between atoms: C_2  and  O_14
REMARK    3  A    between atoms: C_4  and  C_5
REMARK    4  A    between atoms: C_5  and  O_6
REMARK    5  A    between atoms: C_9  and  O_10
REMARK    6  A    between atoms: O_14  and  C_15
REMARK    7  A    between atoms: C_15  and  C_16
REMARK    8  A    between atoms: C_18  and  O_19
REMARK    9  A    between atoms: O_19  and  C_20
REMARK   10  A    between atoms: C_23  and  O_24
REMARK   11  A    between atoms: C_27  and  O_28
REMARK   12  A    between atoms: C_29  and  O_30
REMARK   13  A    between atoms: C_31  and  O_32
REMARK                            x       y       z     vdW  Elec       q    Type
REMARK                         _______ _______ _______ _____ _____    ______ ____
ROOT
ATOM      1  C   UNL     1       5.834   6.335  17.101  0.00  0.00    +0.000 C 
ATOM      2  O   UNL     1       4.428   6.147  17.275  0.00  0.00    +0.000 OA
ATOM      3  C   UNL     1       4.103   4.797  17.634  0.00  0.00    +0.000 C 
ATOM      4  C   UNL     1       4.498   3.823  16.489  0.00  0.00    +0.000 C 
ATOM      5  C   UNL     1       5.954   4.071  16.030  0.00  0.00    +0.000 C 
ATOM      6  C   UNL     1       6.259   5.570  15.841  0.00  0.00    +0.000 C 
ENDROOT
BRANCH   4   7
ATOM      7  O   UNL     1       4.339   2.451  16.910  0.00  0.00    +0.000 OA
ATOM      8  H   UNL     1       3.620   2.043  16.400  0.00  0.00    +0.000 HD
ENDBRANCH   4   7
BRANCH   5   9
ATOM      9  O   UNL     1       6.228   3.339  14.827  0.00  0.00    +0.000 OA
ATOM     10  H   UNL     1       6.093   3.933  14.062  0.00  0.00    +0.000 HD
ENDBRANCH   5   9
BRANCH   6  11
ATOM     11  O   UNL     1       7.639   5.777  15.544  0.00  0.00    +0.000 OA
ATOM     12  H   UNL     1       7.718   6.431  14.827  0.00  0.00    +0.000 HD
ENDBRANCH   6  11
BRANCH   1  13
ATOM     13  C   UNL     1       6.151   7.836  16.998  0.00  0.00    +0.000 C 
BRANCH  13  14
ATOM     14  O   UNL     1       7.574   8.097  16.937  0.00  0.00    +0.000 OA
BRANCH  14  16
ATOM     15  O   UNL     1       8.531   7.375  18.898  0.00  0.00    +0.000 OA
ATOM     16  C   UNL     1       8.208   8.264  18.119  0.00  0.00    +0.000 C 
BRANCH  16  17
ATOM     17  C   UNL     1       8.501   9.708  18.317  0.00  0.00    +0.000 C 
ATOM     18  C   UNL     1       9.332  10.156  19.279  0.00  0.00    +0.000 C 
BRANCH  18  19
ATOM     19  C   UNL     1       9.740  11.606  19.456  0.00  0.00    +0.000 C 
ATOM     20  C   UNL     1      11.207  11.708  19.752  0.00  0.00    +0.000 C 
ATOM     21  C   UNL     1      11.972  12.729  19.353  0.00  0.00    +0.000 C 
ATOM     22  C   UNL     1      11.468  13.881  18.553  0.00  0.00    +0.000 C 
ATOM     23  C   UNL     1      10.050  13.777  17.989  0.00  0.00    +0.000 C 
ATOM     24  C   UNL     1       9.360  12.444  18.201  0.00  0.00    +0.000 C 
ATOM     25  O   UNL     1       8.445  12.115  17.434  0.00  0.00    +0.000 OA
BRANCH  19  26
ATOM     26  O   UNL     1       9.131  12.179  20.608  0.00  0.00    +0.000 OA
ATOM     27  H   UNL     1       9.682  12.902  20.943  0.00  0.00    +0.000 HD
ENDBRANCH  19  26
BRANCH  22  28
ATOM     28  O   UNL     1      11.549  15.025  19.399  0.00  0.00    +0.000 OA
ATOM     29  H   UNL     1      11.497  14.712  20.321  0.00  0.00    +0.000 HD
ENDBRANCH  22  28
ENDBRANCH  18  19
ENDBRANCH  16  17
ENDBRANCH  14  16
ENDBRANCH  13  14
ENDBRANCH   1  13
BRANCH   3  30
ATOM     30  O   UNL     1       2.701   4.666  17.913  0.00  0.00    +0.000 OA
BRANCH  30  31
ATOM     31  C   UNL     1       2.345   4.125  19.122  0.00  0.00    +0.000 A 
ATOM     32  C   UNL     1       2.756   4.581  20.379  0.00  0.00    +0.000 A 
ATOM     33  C   UNL     1       2.291   3.973  21.550  0.00  0.00    +0.000 A 
ATOM     34  C   UNL     1       1.428   2.888  21.462  0.00  0.00    +0.000 A 
ATOM     35  C   UNL     1       1.021   2.407  20.224  0.00  0.00    +0.000 A 
ATOM     36  C   UNL     1       1.477   3.028  19.056  0.00  0.00    +0.000 A 
BRANCH  34  37
ATOM     37  O   UNL     1       0.959   2.266  22.582  0.00  0.00    +0.000 OA
ATOM     38  H   UNL     1       0.016   2.482  22.678  0.00  0.00    +0.000 HD
ENDBRANCH  34  37
ENDBRANCH  30  31
ENDBRANCH   3  30
TORSDOF 13
ENDMDL
MODEL 5
REMARK VINA RESULT:      -7.9      2.939      8.332
REMARK  Name = 
REMARK  13 active torsions:
REMARK  status: ('A' for Active; 'I' for Inactive)
REMARK    1  A    between atoms: C_2  and  C_3
REMARK    2  A    between atoms: C_2  and  O_14
REMARK    3  A    between atoms: C_4  and  C_5
REMARK    4  A    between atoms: C_5  and  O_6
REMARK    5  A    between atoms: C_9  and  O_10
REMARK    6  A    between atoms: O_14  and  C_15
REMARK    7  A    between atoms: C_15  and  C_16
REMARK    8  A    between atoms: C_18  and  O_19
REMARK    9  A    between atoms: O_19  and  C_20
REMARK   10  A    between atoms: C_23  and  O_24
REMARK   11  A    between atoms: C_27  and  O_28
REMARK   12  A    between atoms: C_29  and  O_30
REMARK   13  A    between atoms: C_31  and  O_32
REMARK                            x       y       z     vdW  Elec       q    Type
REMARK                         _______ _______ _______ _____ _____    ______ ____
ROOT
ATOM      1  C   UNL     1       4.943   5.044  19.496  0.00  0.00    +0.000 C 
ATOM      2  O   UNL     1       4.055   5.994  18.902  0.00  0.00    +0.000 OA
ATOM      3  C   UNL     1       2.775   6.017  19.550  0.00  0.00    +0.000 C 
ATOM      4  C   UNL     1       2.061   4.646  19.386  0.00  0.00    +0.000 C 
ATOM      5  C   UNL     1       3.001   3.483  19.782  0.00  0.00    +0.000 C 
ATOM      6  C   UNL     1       4.410   3.640  19.180  0.00  0.00    +0.000 C 
ENDROOT
BRANCH   4   7
ATOM      7  O   UNL     1       0.857   4.602  20.181  0.00  0.00    +0.000 OA
ATOM      8  H   UNL     1       0.881   5.318  20.837  0.00  0.00    +0.000 HD
ENDBRANCH   4   7
BRANCH   5   9
ATOM      9  O   UNL     1       2.422   2.226  19.406  0.00  0.00    +0.000 OA
ATOM     10  H   UNL     1       2.638   1.564  20.092  0.00  0.00    +0.000 HD
ENDBRANCH   5   9
BRANCH   6  11
ATOM     11  O   UNL     1       5.289   2.626  19.664  0.00  0.00    +0.000 OA
ATOM     12  H   UNL     1       4.801   2.039  20.268  0.00  0.00    +0.000 HD
ENDBRANCH   6  11
BRANCH   1  13
ATOM     13  C   UNL     1       6.368   5.254  18.959  0.00  0.00    +0.000 C 
BRANCH  13  14
ATOM     14  O   UNL     1       6.665   6.649  18.713  0.00  0.00    +0.000 OA
BRANCH  14  16
ATOM     15  O   UNL     1       7.543   8.055  17.120  0.00  0.00    +0.000 OA
ATOM     16  C   UNL     1       7.136   6.958  17.484  0.00  0.00    +0.000 C 
BRANCH  16  17
ATOM     17  C   UNL     1       7.130   5.736  16.637  0.00  0.00    +0.000 C 
ATOM     18  C   UNL     1       6.380   5.628  15.523  0.00  0.00    +0.000 C 
BRANCH  18  19
ATOM     19  C   UNL     1       6.417   4.446  14.574  0.00  0.00    +0.000 C 
ATOM     20  C   UNL     1       5.032   4.099  14.110  0.00  0.00    +0.000 C 
ATOM     21  C   UNL     1       4.761   3.609  12.897  0.00  0.00    +0.000 C 
ATOM     22  C   UNL     1       5.793   3.361  11.850  0.00  0.00    +0.000 C 
ATOM     23  C   UNL     1       7.202   3.893  12.116  0.00  0.00    +0.000 C 
ATOM     24  C   UNL     1       7.357   4.733  13.368  0.00  0.00    +0.000 C 
ATOM     25  O   UNL     1       8.292   5.544  13.432  0.00  0.00    +0.000 OA
BRANCH  19  26
ATOM     26  O   UNL     1       6.848   3.261  15.236  0.00  0.00    +0.000 OA
ATOM     27  H   UNL     1       6.170   2.974  15.865  0.00  0.00    +0.000 HD
ENDBRANCH  19  26
BRANCH  22  28
ATOM     28  O   UNL     1       5.855   1.949  11.672  0.00  0.00    +0.000 OA
ATOM     29  H   UNL     1       5.631   1.535  12.526  0.00  0.00    +0.000 HD
ENDBRANCH  22  28
ENDBRANCH  18  19
ENDBRANCH  16  17
ENDBRANCH  14  16
ENDBRANCH  13  14
ENDBRANCH   1  13
BRANCH   3  30
ATOM     30  O   UNL     1       1.947   7.057  19.007  0.00  0.00    +0.000 OA
BRANCH  30  31
ATOM     31  C   UNL     1       1.547   8.055  19.859  0.00  0.00    +0.000 A 
ATOM     32  C   UNL     1       1.475   7.965  21.253  0.00  0.00    +0.000 A 
ATOM     33  C   UNL     1       1.092   9.068  22.023  0.00  0.00    +0.000 A 
ATOM     34  C   UNL     1       0.759  10.261  21.394  0.00  0.00    +0.000 A 
ATOM     35  C   UNL     1       0.807  10.367  20.010  0.00  0.00    +0.000 A 
ATOM     36  C   UNL     1       1.204   9.265  19.244  0.00  0.00    +0.000 A 
BRANCH  34  37
ATOM     37  O   UNL     1       0.376  11.355  22.112  0.00  0.00    +0.000 OA
ATOM     38  H   UNL     1      -0.149  11.933  21.532  0.00  0.00    +0.000 HD
ENDBRANCH  34  37
ENDBRANCH  30  31
ENDBRANCH   3  30
TORSDOF 13
ENDMDL
MODEL 6
REMARK VINA RESULT:      -7.9      0.983      1.086
REMARK  Name = 
REMARK  13 active torsions:
REMARK  status: ('A' for Active; 'I' for Inactive)
REMARK    1  A    between atoms: C_2  and  C_3
REMARK    2  A    between atoms: C_2  and  O_14
REMARK    3  A    between atoms: C_4  and  C_5
REMARK    4  A    between atoms: C_5  and  O_6
REMARK    5  A    between atoms: C_9  and  O_10
REMARK    6  A    between atoms: O_14  and  C_15
REMARK    7  A    between atoms: C_15  and  C_16
REMARK    8  A    between atoms: C_18  and  O_19
REMARK    9  A    between atoms: O_19  and  C_20
REMARK   10  A    between atoms: C_23  and  O_24
REMARK   11  A    between atoms: C_27  and  O_28
REMARK   12  A    between atoms: C_29  and  O_30
REMARK   13  A    between atoms: C_31  and  O_32
REMARK                            x       y       z     vdW  Elec       q    Type
REMARK                         _______ _______ _______ _____ _____    ______ ____
ROOT
ATOM      1  C   UNL     1       2.329   5.880  18.809  0.00  0.00    +0.000 C 
ATOM      2  O   UNL     1       3.654   5.877  18.273  0.00  0.00    +0.000 OA
ATOM      3  C   UNL     1       3.947   4.666  17.562  0.00  0.00    +0.000 C 
ATOM      4  C   UNL     1       3.903   3.448  18.526  0.00  0.00    +0.000 C 
ATOM      5  C   UNL     1       2.598   3.448  19.358  0.00  0.00    +0.000 C 
ATOM      6  C   UNL     1       2.275   4.839  19.935  0.00  0.00    +0.000 C 
ENDROOT
BRANCH   4   7
ATOM      7  O   UNL     1       4.021   2.212  17.791  0.00  0.00    +0.000 OA
ATOM      8  H   UNL     1       3.437   2.246  17.015  0.00  0.00    +0.000 HD
ENDBRANCH   4   7
BRANCH   5   9
ATOM      9  O   UNL     1       2.674   2.467  20.401  0.00  0.00    +0.000 OA
ATOM     10  H   UNL     1       3.613   2.325  20.630  0.00  0.00    +0.000 HD
ENDBRANCH   5   9
BRANCH   6  11
ATOM     11  O   UNL     1       1.005   4.840  20.586  0.00  0.00    +0.000 OA
ATOM     12  H   UNL     1       0.356   5.298  20.024  0.00  0.00    +0.000 HD
ENDBRANCH   6  11
BRANCH   1  13
ATOM     13  C   UNL     1       1.971   7.289  19.310  0.00  0.00    +0.000 C 
BRANCH  13  14
ATOM     14  O   UNL     1       1.808   7.340  20.748  0.00  0.00    +0.000 OA
BRANCH  14  16
ATOM     15  O   UNL     1       1.750   9.025  22.310  0.00  0.00    +0.000 OA
ATOM     16  C   UNL     1       1.371   8.510  21.264  0.00  0.00    +0.000 C 
BRANCH  16  17
ATOM     17  C   UNL     1       0.376   9.112  20.338  0.00  0.00    +0.000 C 
ATOM     18  C   UNL     1       0.438  10.398  19.940  0.00  0.00    +0.000 C 
BRANCH  18  19
ATOM     19  C   UNL     1      -0.491  11.029  18.922  0.00  0.00    +0.000 C 
ATOM     20  C   UNL     1      -0.866  10.034  17.863  0.00  0.00    +0.000 C 
ATOM     21  C   UNL     1      -2.053  10.021  17.248  0.00  0.00    +0.000 C 
ATOM     22  C   UNL     1      -3.154  10.980  17.547  0.00  0.00    +0.000 C 
ATOM     23  C   UNL     1      -2.981  11.887  18.766  0.00  0.00    +0.000 C 
ATOM     24  C   UNL     1      -1.755  11.614  19.614  0.00  0.00    +0.000 C 
ATOM     25  O   UNL     1      -1.760  11.964  20.803  0.00  0.00    +0.000 OA
BRANCH  19  26
ATOM     26  O   UNL     1       0.164  12.058  18.188  0.00  0.00    +0.000 OA
ATOM     27  H   UNL     1       0.919  12.390  18.696  0.00  0.00    +0.000 HD
ENDBRANCH  19  26
BRANCH  22  28
ATOM     28  O   UNL     1      -3.312  11.788  16.384  0.00  0.00    +0.000 OA
ATOM     29  H   UNL     1      -2.881  11.324  15.644  0.00  0.00    +0.000 HD
ENDBRANCH  22  28
ENDBRANCH  18  19
ENDBRANCH  16  17
ENDBRANCH  14  16
ENDBRANCH  13  14
ENDBRANCH   1  13
BRANCH   3  30
ATOM     30  O   UNL     1       5.239   4.739  16.940  0.00  0.00    +0.000 OA
BRANCH  30  31
ATOM     31  C   UNL     1       6.176   5.552  17.525  0.00  0.00    +0.000 A 
ATOM     32  C   UNL     1       6.981   5.221  18.621  0.00  0.00    +0.000 A 
ATOM     33  C   UNL     1       7.937   6.120  19.105  0.00  0.00    +0.000 A 
ATOM     34  C   UNL     1       8.073   7.365  18.505  0.00  0.00    +0.000 A 
ATOM     35  C   UNL     1       7.272   7.721  17.427  0.00  0.00    +0.000 A 
ATOM     36  C   UNL     1       6.327   6.812  16.936  0.00  0.00    +0.000 A 
BRANCH  34  37
ATOM     37  O   UNL     1       8.990   8.269  18.953  0.00  0.00    +0.000 OA
ATOM     38  H   UNL     1       8.580   8.795  19.660  0.00  0.00    +0.000 HD
ENDBRANCH  34  37
ENDBRANCH  30  31
ENDBRANCH   3  30
TORSDOF 13
ENDMDL
MODEL 7
REMARK VINA RESULT:      -7.8      1.339      1.921
REMARK  Name = 
REMARK  13 active torsions:
REMARK  status: ('A' for Active; 'I' for Inactive)
REMARK    1  A    between atoms: C_2  and  C_3
REMARK    2  A    between atoms: C_2  and  O_14
REMARK    3  A    between atoms: C_4  and  C_5
REMARK    4  A    between atoms: C_5  and  O_6
REMARK    5  A    between atoms: C_9  and  O_10
REMARK    6  A    between atoms: O_14  and  C_15
REMARK    7  A    between atoms: C_15  and  C_16
REMARK    8  A    between atoms: C_18  and  O_19
REMARK    9  A    between atoms: O_19  and  C_20
REMARK   10  A    between atoms: C_23  and  O_24
REMARK   11  A    between atoms: C_27  and  O_28
REMARK   12  A    between atoms: C_29  and  O_30
REMARK   13  A    between atoms: C_31  and  O_32
REMARK                            x       y       z     vdW  Elec       q    Type
REMARK                         _______ _______ _______ _____ _____    ______ ____
ROOT
ATOM      1  C   UNL     1       2.209   4.907  19.650  0.00  0.00    +0.000 C 
ATOM      2  O   UNL     1       3.625   4.805  19.818  0.00  0.00    +0.000 OA
ATOM      3  C   UNL     1       4.230   3.968  18.821  0.00  0.00    +0.000 C 
ATOM      4  C   UNL     1       3.706   2.510  18.949  0.00  0.00    +0.000 C 
ATOM      5  C   UNL     1       2.160   2.482  19.012  0.00  0.00    +0.000 C 
ATOM      6  C   UNL     1       1.596   3.539  19.980  0.00  0.00    +0.000 C 
ENDROOT
BRANCH   4   7
ATOM      7  O   UNL     1       4.170   1.704  17.845  0.00  0.00    +0.000 OA
ATOM      8  H   UNL     1       5.127   1.832  17.738  0.00  0.00    +0.000 HD
ENDBRANCH   4   7
BRANCH   5   9
ATOM      9  O   UNL     1       1.701   1.170  19.366  0.00  0.00    +0.000 OA
ATOM     10  H   UNL     1       0.982   1.257  20.021  0.00  0.00    +0.000 HD
ENDBRANCH   5   9
BRANCH   6  11
ATOM     11  O   UNL     1       0.171   3.578  19.922  0.00  0.00    +0.000 OA
ATOM     12  H   UNL     1      -0.105   4.230  19.254  0.00  0.00    +0.000 HD
ENDBRANCH   6  11
BRANCH   1  13
ATOM     13  C   UNL     1       1.655   6.020  20.553  0.00  0.00    +0.000 C 
BRANCH  13  14
ATOM     14  O   UNL     1       2.342   7.280  20.361  0.00  0.00    +0.000 OA
BRANCH  14  16
ATOM     15  O   UNL     1       2.563   7.600  18.096  0.00  0.00    +0.000 OA
ATOM     16  C   UNL     1       2.117   7.919  19.191  0.00  0.00    +0.000 C 
BRANCH  16  17
ATOM     17  C   UNL     1       1.194   9.060  19.427  0.00  0.00    +0.000 C 
ATOM     18  C   UNL     1       0.960  10.010  18.500  0.00  0.00    +0.000 C 
BRANCH  18  19
ATOM     19  C   UNL     1      -0.046  11.134  18.655  0.00  0.00    +0.000 C 
ATOM     20  C   UNL     1      -0.925  10.894  19.847  0.00  0.00    +0.000 C 
ATOM     21  C   UNL     1      -1.423  11.874  20.607  0.00  0.00    +0.000 C 
ATOM     22  C   UNL     1      -1.156  13.322  20.376  0.00  0.00    +0.000 C 
ATOM     23  C   UNL     1      -0.090  13.682  19.341  0.00  0.00    +0.000 C 
ATOM     24  C   UNL     1       0.674  12.509  18.757  0.00  0.00    +0.000 C 
ATOM     25  O   UNL     1       1.801  12.707  18.282  0.00  0.00    +0.000 OA
BRANCH  19  26
ATOM     26  O   UNL     1      -0.965  11.162  17.568  0.00  0.00    +0.000 OA
ATOM     27  H   UNL     1      -1.072  10.269  17.208  0.00  0.00    +0.000 HD
ENDBRANCH  19  26
BRANCH  22  28
ATOM     28  O   UNL     1      -2.397  13.903  19.985  0.00  0.00    +0.000 OA
ATOM     29  H   UNL     1      -3.087  13.546  20.574  0.00  0.00    +0.000 HD
ENDBRANCH  22  28
ENDBRANCH  18  19
ENDBRANCH  16  17
ENDBRANCH  14  16
ENDBRANCH  13  14
ENDBRANCH   1  13
BRANCH   3  30
ATOM     30  O   UNL     1       5.660   3.976  18.947  0.00  0.00    +0.000 OA
BRANCH  30  31
ATOM     31  C   UNL     1       6.317   5.129  18.601  0.00  0.00    +0.000 A 
ATOM     32  C   UNL     1       7.495   5.610  19.184  0.00  0.00    +0.000 A 
ATOM     33  C   UNL     1       8.100   6.782  18.716  0.00  0.00    +0.000 A 
ATOM     34  C   UNL     1       7.511   7.488  17.674  0.00  0.00    +0.000 A 
ATOM     35  C   UNL     1       6.333   7.038  17.092  0.00  0.00    +0.000 A 
ATOM     36  C   UNL     1       5.739   5.857  17.555  0.00  0.00    +0.000 A 
BRANCH  34  37
ATOM     37  O   UNL     1       8.069   8.636  17.195  0.00  0.00    +0.000 OA
ATOM     38  H   UNL     1       7.825   8.727  16.259  0.00  0.00    +0.000 HD
ENDBRANCH  34  37
ENDBRANCH  30  31
ENDBRANCH   3  30
TORSDOF 13
ENDMDL
MODEL 8
REMARK VINA RESULT:      -7.8      1.613      2.011
REMARK  Name = 
REMARK  13 active torsions:
REMARK  status: ('A' for Active; 'I' for Inactive)
REMARK    1  A    between atoms: C_2  and  C_3
REMARK    2  A    between atoms: C_2  and  O_14
REMARK    3  A    between atoms: C_4  and  C_5
REMARK    4  A    between atoms: C_5  and  O_6
REMARK    5  A    between atoms: C_9  and  O_10
REMARK    6  A    between atoms: O_14  and  C_15
REMARK    7  A    between atoms: C_15  and  C_16
REMARK    8  A    between atoms: C_18  and  O_19
REMARK    9  A    between atoms: O_19  and  C_20
REMARK   10  A    between atoms: C_23  and  O_24
REMARK   11  A    between atoms: C_27  and  O_28
REMARK   12  A    between atoms: C_29  and  O_30
REMARK   13  A    between atoms: C_31  and  O_32
REMARK                            x       y       z     vdW  Elec       q    Type
REMARK                         _______ _______ _______ _____ _____    ______ ____
ROOT
ATOM      1  C   UNL     1       2.227   6.175  19.469  0.00  0.00    +0.000 C 
ATOM      2  O   UNL     1       3.591   5.748  19.423  0.00  0.00    +0.000 OA
ATOM      3  C   UNL     1       3.724   4.415  18.912  0.00  0.00    +0.000 C 
ATOM      4  C   UNL     1       3.020   3.400  19.856  0.00  0.00    +0.000 C 
ATOM      5  C   UNL     1       1.580   3.860  20.186  0.00  0.00    +0.000 C 
ATOM      6  C   UNL     1       1.514   5.355  20.553  0.00  0.00    +0.000 C 
ENDROOT
BRANCH   4   7
ATOM      7  O   UNL     1       2.996   2.085  19.263  0.00  0.00    +0.000 OA
ATOM      8  H   UNL     1       3.887   1.860  18.950  0.00  0.00    +0.000 HD
ENDBRANCH   4   7
BRANCH   5   9
ATOM      9  O   UNL     1       1.028   3.052  21.235  0.00  0.00    +0.000 OA
ATOM     10  H   UNL     1       0.292   2.525  20.868  0.00  0.00    +0.000 HD
ENDBRANCH   5   9
BRANCH   6  11
ATOM     11  O   UNL     1       0.163   5.780  20.725  0.00  0.00    +0.000 OA
ATOM     12  H   UNL     1       0.110   6.743  20.591  0.00  0.00    +0.000 HD
ENDBRANCH   6  11
BRANCH   1  13
ATOM     13  C   UNL     1       2.161   7.684  19.751  0.00  0.00    +0.000 C 
BRANCH  13  14
ATOM     14  O   UNL     1       1.686   7.976  21.088  0.00  0.00    +0.000 OA
BRANCH  14  16
ATOM     15  O   UNL     1       1.130   9.862  22.277  0.00  0.00    +0.000 OA
ATOM     16  C   UNL     1       1.083   9.172  21.266  0.00  0.00    +0.000 C 
BRANCH  16  17
ATOM     17  C   UNL     1       0.375   9.554  20.015  0.00  0.00    +0.000 C 
ATOM     18  C   UNL     1      -0.415  10.642  19.931  0.00  0.00    +0.000 C 
BRANCH  18  19
ATOM     19  C   UNL     1      -1.075  11.128  18.655  0.00  0.00    +0.000 C 
ATOM     20  C   UNL     1      -1.123  10.029  17.634  0.00  0.00    +0.000 C 
ATOM     21  C   UNL     1      -2.109   9.892  16.743  0.00  0.00    +0.000 C 
ATOM     22  C   UNL     1      -3.288  10.800  16.661  0.00  0.00    +0.000 C 
ATOM     23  C   UNL     1      -3.473  11.812  17.792  0.00  0.00    +0.000 C 
ATOM     24  C   UNL     1      -2.497  11.687  18.946  0.00  0.00    +0.000 C 
ATOM     25  O   UNL     1      -2.824  12.130  20.056  0.00  0.00    +0.000 OA
BRANCH  19  26
ATOM     26  O   UNL     1      -0.295  12.135  18.018  0.00  0.00    +0.000 OA
ATOM     27  H   UNL     1       0.573  12.194  18.445  0.00  0.00    +0.000 HD
ENDBRANCH  19  26
BRANCH  22  28
ATOM     28  O   UNL     1      -3.173  11.500  15.425  0.00  0.00    +0.000 OA
ATOM     29  H   UNL     1      -3.964  11.292  14.895  0.00  0.00    +0.000 HD
ENDBRANCH  22  28
ENDBRANCH  18  19
ENDBRANCH  16  17
ENDBRANCH  14  16
ENDBRANCH  13  14
ENDBRANCH   1  13
BRANCH   3  30
ATOM     30  O   UNL     1       5.107   4.058  18.771  0.00  0.00    +0.000 OA
BRANCH  30  31
ATOM     31  C   UNL     1       5.703   4.306  17.560  0.00  0.00    +0.000 A 
ATOM     32  C   UNL     1       5.348   3.730  16.336  0.00  0.00    +0.000 A 
ATOM     33  C   UNL     1       6.003   4.095  15.155  0.00  0.00    +0.000 A 
ATOM     34  C   UNL     1       7.033   5.025  15.202  0.00  0.00    +0.000 A 
ATOM     35  C   UNL     1       7.414   5.597  16.410  0.00  0.00    +0.000 A 
ATOM     36  C   UNL     1       6.746   5.239  17.586  0.00  0.00    +0.000 A 
BRANCH  34  37
ATOM     37  O   UNL     1       7.698   5.402  14.072  0.00  0.00    +0.000 OA
ATOM     38  H   UNL     1       7.595   4.698  13.409  0.00  0.00    +0.000 HD
ENDBRANCH  34  37
ENDBRANCH  30  31
ENDBRANCH   3  30
TORSDOF 13
ENDMDL
MODEL 9
REMARK VINA RESULT:      -7.8      3.005      8.050
REMARK  Name = 
REMARK  13 active torsions:
REMARK  status: ('A' for Active; 'I' for Inactive)
REMARK    1  A    between atoms: C_2  and  C_3
REMARK    2  A    between atoms: C_2  and  O_14
REMARK    3  A    between atoms: C_4  and  C_5
REMARK    4  A    between atoms: C_5  and  O_6
REMARK    5  A    between atoms: C_9  and  O_10
REMARK    6  A    between atoms: O_14  and  C_15
REMARK    7  A    between atoms: C_15  and  C_16
REMARK    8  A    between atoms: C_18  and  O_19
REMARK    9  A    between atoms: O_19  and  C_20
REMARK   10  A    between atoms: C_23  and  O_24
REMARK   11  A    between atoms: C_27  and  O_28
REMARK   12  A    between atoms: C_29  and  O_30
REMARK   13  A    between atoms: C_31  and  O_32
REMARK                            x       y       z     vdW  Elec       q    Type
REMARK                         _______ _______ _______ _____ _____    ______ ____
ROOT
ATOM      1  C   UNL     1       4.503   4.491  19.419  0.00  0.00    +0.000 C 
ATOM      2  O   UNL     1       3.663   5.610  19.715  0.00  0.00    +0.000 OA
ATOM      3  C   UNL     1       2.451   5.217  20.374  0.00  0.00    +0.000 C 
ATOM      4  C   UNL     1       1.598   4.311  19.443  0.00  0.00    +0.000 C 
ATOM      5  C   UNL     1       2.452   3.164  18.853  0.00  0.00    +0.000 C 
ATOM      6  C   UNL     1       3.813   3.660  18.329  0.00  0.00    +0.000 C 
ENDROOT
BRANCH   4   7
ATOM      7  O   UNL     1       0.467   3.768  20.158  0.00  0.00    +0.000 OA
ATOM      8  H   UNL     1       0.401   2.817  19.974  0.00  0.00    +0.000 HD
ENDBRANCH   4   7
BRANCH   5   9
ATOM      9  O   UNL     1       1.725   2.483  17.821  0.00  0.00    +0.000 OA
ATOM     10  H   UNL     1       0.789   2.757  17.866  0.00  0.00    +0.000 HD
ENDBRANCH   5   9
BRANCH   6  11
ATOM     11  O   UNL     1       4.629   2.567  17.910  0.00  0.00    +0.000 OA
ATOM     12  H   UNL     1       5.136   2.234  18.672  0.00  0.00    +0.000 HD
ENDBRANCH   6  11
BRANCH   1  13
ATOM     13  C   UNL     1       5.891   4.983  18.976  0.00  0.00    +0.000 C 
BRANCH  13  14
ATOM     14  O   UNL     1       5.901   6.396  18.661  0.00  0.00    +0.000 OA
BRANCH  14  16
ATOM     15  O   UNL     1       7.014   7.873  17.295  0.00  0.00    +0.000 OA
ATOM     16  C   UNL     1       6.565   6.759  17.541  0.00  0.00    +0.000 C 
BRANCH  16  17
ATOM     17  C   UNL     1       6.714   5.575  16.654  0.00  0.00    +0.000 C 
ATOM     18  C   UNL     1       6.018   5.433  15.509  0.00  0.00    +0.000 C 
BRANCH  18  19
ATOM     19  C   UNL     1       6.208   4.296  14.523  0.00  0.00    +0.000 C 
ATOM     20  C   UNL     1       4.894   3.900  13.916  0.00  0.00    +0.000 C 
ATOM     21  C   UNL     1       4.764   3.449  12.665  0.00  0.00    +0.000 C 
ATOM     22  C   UNL     1       5.902   3.299  11.713  0.00  0.00    +0.000 C 
ATOM     23  C   UNL     1       7.249   3.890  12.133  0.00  0.00    +0.000 C 
ATOM     24  C   UNL     1       7.240   4.683  13.425  0.00  0.00    +0.000 C 
ATOM     25  O   UNL     1       8.118   5.537  13.609  0.00  0.00    +0.000 OA
BRANCH  19  26
ATOM     26  O   UNL     1       6.640   3.108  15.178  0.00  0.00    +0.000 OA
ATOM     27  H   UNL     1       7.563   3.205  15.456  0.00  0.00    +0.000 HD
ENDBRANCH  19  26
BRANCH  22  28
ATOM     28  O   UNL     1       6.058   1.901  11.489  0.00  0.00    +0.000 OA
ATOM     29  H   UNL     1       6.363   1.784  10.570  0.00  0.00    +0.000 HD
ENDBRANCH  22  28
ENDBRANCH  18  19
ENDBRANCH  16  17
ENDBRANCH  14  16
ENDBRANCH  13  14
ENDBRANCH   1  13
BRANCH   3  30
ATOM     30  O   UNL     1       1.684   6.367  20.760  0.00  0.00    +0.000 OA
BRANCH  30  31
ATOM     31  C   UNL     1       1.749   7.470  19.947  0.00  0.00    +0.000 A 
ATOM     32  C   UNL     1       2.336   7.523  18.679  0.00  0.00    +0.000 A 
ATOM     33  C   UNL     1       2.303   8.699  17.922  0.00  0.00    +0.000 A 
ATOM     34  C   UNL     1       1.699   9.835  18.446  0.00  0.00    +0.000 A 
ATOM     35  C   UNL     1       1.124   9.810  19.711  0.00  0.00    +0.000 A 
ATOM     36  C   UNL     1       1.147   8.626  20.458  0.00  0.00    +0.000 A 
BRANCH  34  37
ATOM     37  O   UNL     1       1.652  11.000  17.740  0.00  0.00    +0.000 OA
ATOM     38  H   UNL     1       2.100  11.690  18.259  0.00  0.00    +0.000 HD
ENDBRANCH  34  37
ENDBRANCH  30  31
ENDBRANCH   3  30
TORSDOF 13
ENDMDL
