MODEL 1
REMARK VINA RESULT:      -5.9      0.000      0.000
REMARK  Name = 
REMARK  29 active torsions:
REMARK  status: ('A' for Active; 'I' for Inactive)
REMARK    1  A    between atoms: C_1  and  C_2
REMARK    2  A    between atoms: C_2  and  C_3
REMARK    3  A    between atoms: C_3  and  C_4
REMARK    4  A    between atoms: C_4  and  C_5
REMARK    5  A    between atoms: C_5  and  C_6
REMARK    6  A    between atoms: C_6  and  C_7
REMARK    7  A    between atoms: C_7  and  C_8
REMARK    8  A    between atoms: C_8  and  C_9
REMARK    9  A    between atoms: C_10  and  C_11
REMARK   10  A    between atoms: C_11  and  C_12
REMARK   11  A    between atoms: C_12  and  C_13
REMARK   12  A    between atoms: C_13  and  C_14
REMARK   13  A    between atoms: C_14  and  C_15
REMARK   14  A    between atoms: C_15  and  C_16
REMARK   15  A    between atoms: C_16  and  C_17
REMARK   16  A    between atoms: C_17  and  C_18
REMARK   17  A    between atoms: C_18  and  C_19
REMARK   18  A    between atoms: C_18  and  O_31
REMARK   19  A    between atoms: C_19  and  O_20
REMARK   20  A    between atoms: O_20  and  P_21
REMARK   21  A    between atoms: P_21  and  O_24
REMARK   22  A    between atoms: O_24  and  C_25
REMARK   23  A    between atoms: C_25  and  C_26
REMARK   24  A    between atoms: C_26  and  N_27
REMARK   25  A    between atoms: N_27  and  C_28
REMARK   26  A    between atoms: N_27  and  C_29
REMARK   27  A    between atoms: N_27  and  C_30
REMARK   28  A    between atoms: O_31  and  C_32
REMARK   29  A    between atoms: C_32  and  C_33
REMARK                            x       y       z     vdW  Elec       q    Type
REMARK                         _______ _______ _______ _____ _____    ______ ____
ROOT
ATOM      1  C   UNL     1       2.231   6.257  18.127  0.00  0.00    +0.000 C 
ENDROOT
BRANCH   1   2
ATOM      2  C   UNL     1       2.848   7.559  17.629  0.00  0.00    +0.000 C 
BRANCH   2   3
ATOM      3  O   UNL     1       4.253   7.649  17.931  0.00  0.00    +0.000 OA
BRANCH   3   4
ATOM      4  C   UNL     1       5.109   6.892  17.079  0.00  0.00    +0.000 C 
ATOM      5  C   UNL     1       6.568   6.844  17.510  0.00  0.00    +0.000 C 
ENDBRANCH   3   4
ENDBRANCH   2   3
BRANCH   2   6
ATOM      6  C   UNL     1       2.072   8.859  17.936  0.00  0.00    +0.000 C 
BRANCH   6   7
ATOM      7  O   UNL     1       1.795   9.378  19.254  0.00  0.00    +0.000 OA
BRANCH   7   8
ATOM      8  P   UNL     1       0.666  10.582  19.081  0.00  0.00    +0.000 P 
ATOM      9  O   UNL     1      -0.155  10.632  20.358  0.00  0.00    +0.000 OA
ATOM     10  O   UNL     1       1.318  11.843  18.573  0.00  0.00    +0.000 OA
BRANCH   8  11
ATOM     11  O   UNL     1      -0.329  10.095  17.856  0.00  0.00    +0.000 OA
BRANCH  11  12
ATOM     12  C   UNL     1      -1.605  10.509  18.275  0.00  0.00    +0.000 C 
BRANCH  12  13
ATOM     13  C   UNL     1      -2.415  11.645  17.727  0.00  0.00    +0.000 C 
BRANCH  13  14
ATOM     14  N   UNL     1      -3.571  10.959  16.848  0.00  0.00    +0.000 N 
ATOM     15  C   UNL     1      -4.812  11.840  16.836  0.00  0.00    +0.000 C 
ATOM     16  C   UNL     1      -3.124  10.769  15.376  0.00  0.00    +0.000 C 
ATOM     17  C   UNL     1      -3.886   9.622  17.444  0.00  0.00    +0.000 C 
ENDBRANCH  13  14
ENDBRANCH  12  13
ENDBRANCH  11  12
ENDBRANCH   8  11
ENDBRANCH   7   8
ENDBRANCH   6   7
ENDBRANCH   2   6
ENDBRANCH   1   2
BRANCH   1  18
ATOM     18  C   UNL     1       2.502   6.058  19.607  0.00  0.00    +0.000 C 
BRANCH  18  19
ATOM     19  C   UNL     1       1.626   4.959  20.187  0.00  0.00    +0.000 C 
BRANCH  19  20
ATOM     20  C   UNL     1       2.530   3.944  20.858  0.00  0.00    +0.000 C 
BRANCH  20  21
ATOM     21  C   UNL     1       3.655   3.486  19.944  0.00  0.00    +0.000 C 
BRANCH  21  22
ATOM     22  C   UNL     1       3.345   2.119  19.336  0.00  0.00    +0.000 C 
BRANCH  22  23
ATOM     23  C   UNL     1       3.612   2.026  17.831  0.00  0.00    +0.000 C 
BRANCH  23  25
ATOM     24  C   UNL     1       4.362   3.939  16.376  0.00  0.00    +0.000 C 
ATOM     25  C   UNL     1       3.427   3.345  17.130  0.00  0.00    +0.000 C 
BRANCH  24  26
ATOM     26  C   UNL     1       5.699   3.318  16.130  0.00  0.00    +0.000 C 
BRANCH  26  27
ATOM     27  C   UNL     1       6.513   4.056  15.083  0.00  0.00    +0.000 C 
BRANCH  27  28
ATOM     28  C   UNL     1       5.672   4.206  13.820  0.00  0.00    +0.000 C 
BRANCH  28  29
ATOM     29  C   UNL     1       6.366   3.562  12.633  0.00  0.00    +0.000 C 
BRANCH  29  30
ATOM     30  C   UNL     1       5.391   2.693  11.851  0.00  0.00    +0.000 C 
BRANCH  30  31
ATOM     31  C   UNL     1       4.061   3.417  11.684  0.00  0.00    +0.000 C 
BRANCH  31  33
ATOM     32  C   UNL     1       2.911   4.354   9.670  0.00  0.00    +0.000 C 
ATOM     33  C   UNL     1       3.421   3.091  10.341  0.00  0.00    +0.000 C 
ENDBRANCH  31  33
ENDBRANCH  30  31
ENDBRANCH  29  30
ENDBRANCH  28  29
ENDBRANCH  27  28
ENDBRANCH  26  27
ENDBRANCH  24  26
ENDBRANCH  23  25
ENDBRANCH  22  23
ENDBRANCH  21  22
ENDBRANCH  20  21
ENDBRANCH  19  20
ENDBRANCH  18  19
ENDBRANCH   1  18
TORSDOF 24
ENDMDL
MODEL 2
REMARK VINA RESULT:      -5.6      2.407      4.165
REMARK  Name = 
REMARK  29 active torsions:
REMARK  status: ('A' for Active; 'I' for Inactive)
REMARK    1  A    between atoms: C_1  and  C_2
REMARK    2  A    between atoms: C_2  and  C_3
REMARK    3  A    between atoms: C_3  and  C_4
REMARK    4  A    between atoms: C_4  and  C_5
REMARK    5  A    between atoms: C_5  and  C_6
REMARK    6  A    between atoms: C_6  and  C_7
REMARK    7  A    between atoms: C_7  and  C_8
REMARK    8  A    between atoms: C_8  and  C_9
REMARK    9  A    between atoms: C_10  and  C_11
REMARK   10  A    between atoms: C_11  and  C_12
REMARK   11  A    between atoms: C_12  and  C_13
REMARK   12  A    between atoms: C_13  and  C_14
REMARK   13  A    between atoms: C_14  and  C_15
REMARK   14  A    between atoms: C_15  and  C_16
REMARK   15  A    between atoms: C_16  and  C_17
REMARK   16  A    between atoms: C_17  and  C_18
REMARK   17  A    between atoms: C_18  and  C_19
REMARK   18  A    between atoms: C_18  and  O_31
REMARK   19  A    between atoms: C_19  and  O_20
REMARK   20  A    between atoms: O_20  and  P_21
REMARK   21  A    between atoms: P_21  and  O_24
REMARK   22  A    between atoms: O_24  and  C_25
REMARK   23  A    between atoms: C_25  and  C_26
REMARK   24  A    between atoms: C_26  and  N_27
REMARK   25  A    between atoms: N_27  and  C_28
REMARK   26  A    between atoms: N_27  and  C_29
REMARK   27  A    between atoms: N_27  and  C_30
REMARK   28  A    between atoms: O_31  and  C_32
REMARK   29  A    between atoms: C_32  and  C_33
REMARK                            x       y       z     vdW  Elec       q    Type
REMARK                         _______ _______ _______ _____ _____    ______ ____
ROOT
ATOM      1  C   UNL     1       1.799   7.168  18.947  0.00  0.00    +0.000 C 
ENDROOT
BRANCH   1   2
ATOM      2  C   UNL     1       1.688   8.506  19.670  0.00  0.00    +0.000 C 
BRANCH   2   3
ATOM      3  O   UNL     1       1.429   8.347  21.077  0.00  0.00    +0.000 OA
BRANCH   3   4
ATOM      4  C   UNL     1       0.088   8.613  21.482  0.00  0.00    +0.000 C 
ATOM      5  C   UNL     1      -0.049   9.418  22.766  0.00  0.00    +0.000 C 
ENDBRANCH   3   4
ENDBRANCH   2   3
BRANCH   2   6
ATOM      6  C   UNL     1       0.806   9.586  19.004  0.00  0.00    +0.000 C 
BRANCH   6   7
ATOM      7  O   UNL     1       0.995  11.012  19.124  0.00  0.00    +0.000 OA
BRANCH   7   8
ATOM      8  P   UNL     1      -0.501  11.719  18.993  0.00  0.00    +0.000 P 
ATOM      9  O   UNL     1      -1.121  11.748  20.379  0.00  0.00    +0.000 OA
ATOM     10  O   UNL     1      -0.410  12.996  18.197  0.00  0.00    +0.000 OA
BRANCH   8  11
ATOM     11  O   UNL     1      -1.401  10.699  18.054  0.00  0.00    +0.000 OA
BRANCH  11  12
ATOM     12  C   UNL     1      -2.724  11.116  18.279  0.00  0.00    +0.000 C 
BRANCH  12  13
ATOM     13  C   UNL     1      -3.942  10.729  17.495  0.00  0.00    +0.000 C 
BRANCH  13  14
ATOM     14  N   UNL     1      -5.162  11.506  18.196  0.00  0.00    +0.000 N 
ATOM     15  C   UNL     1      -5.807  12.466  17.207  0.00  0.00    +0.000 C 
ATOM     16  C   UNL     1      -6.261  10.521  18.669  0.00  0.00    +0.000 C 
ATOM     17  C   UNL     1      -4.629  12.254  19.378  0.00  0.00    +0.000 C 
ENDBRANCH  13  14
ENDBRANCH  12  13
ENDBRANCH  11  12
ENDBRANCH   8  11
ENDBRANCH   7   8
ENDBRANCH   6   7
ENDBRANCH   2   6
ENDBRANCH   1   2
BRANCH   1  18
ATOM     18  C   UNL     1       2.738   6.228  19.681  0.00  0.00    +0.000 C 
BRANCH  18  19
ATOM     19  C   UNL     1       2.016   5.478  20.788  0.00  0.00    +0.000 C 
BRANCH  19  20
ATOM     20  C   UNL     1       0.949   4.612  20.149  0.00  0.00    +0.000 C 
BRANCH  20  21
ATOM     21  C   UNL     1       1.300   3.134  20.208  0.00  0.00    +0.000 C 
BRANCH  21  22
ATOM     22  C   UNL     1       1.106   2.471  18.845  0.00  0.00    +0.000 C 
BRANCH  22  23
ATOM     23  C   UNL     1       2.394   1.926  18.223  0.00  0.00    +0.000 C 
BRANCH  23  25
ATOM     24  C   UNL     1       4.411   3.430  18.131  0.00  0.00    +0.000 C 
ATOM     25  C   UNL     1       3.628   2.570  18.796  0.00  0.00    +0.000 C 
BRANCH  24  26
ATOM     26  C   UNL     1       4.108   3.866  16.734  0.00  0.00    +0.000 C 
BRANCH  26  27
ATOM     27  C   UNL     1       5.278   3.674  15.785  0.00  0.00    +0.000 C 
BRANCH  27  28
ATOM     28  C   UNL     1       6.541   4.218  16.443  0.00  0.00    +0.000 C 
BRANCH  28  29
ATOM     29  C   UNL     1       6.866   5.604  15.918  0.00  0.00    +0.000 C 
BRANCH  29  30
ATOM     30  C   UNL     1       6.019   6.654  16.624  0.00  0.00    +0.000 C 
BRANCH  30  31
ATOM     31  C   UNL     1       6.443   6.776  18.082  0.00  0.00    +0.000 C 
BRANCH  31  33
ATOM     32  C   UNL     1       8.103   8.637  17.875  0.00  0.00    +0.000 C 
ATOM     33  C   UNL     1       7.912   7.166  18.197  0.00  0.00    +0.000 C 
ENDBRANCH  31  33
ENDBRANCH  30  31
ENDBRANCH  29  30
ENDBRANCH  28  29
ENDBRANCH  27  28
ENDBRANCH  26  27
ENDBRANCH  24  26
ENDBRANCH  23  25
ENDBRANCH  22  23
ENDBRANCH  21  22
ENDBRANCH  20  21
ENDBRANCH  19  20
ENDBRANCH  18  19
ENDBRANCH   1  18
TORSDOF 24
ENDMDL
MODEL 3
REMARK VINA RESULT:      -5.6      3.526      6.217
REMARK  Name = 
REMARK  29 active torsions:
REMARK  status: ('A' for Active; 'I' for Inactive)
REMARK    1  A    between atoms: C_1  and  C_2
REMARK    2  A    between atoms: C_2  and  C_3
REMARK    3  A    between atoms: C_3  and  C_4
REMARK    4  A    between atoms: C_4  and  C_5
REMARK    5  A    between atoms: C_5  and  C_6
REMARK    6  A    between atoms: C_6  and  C_7
REMARK    7  A    between atoms: C_7  and  C_8
REMARK    8  A    between atoms: C_8  and  C_9
REMARK    9  A    between atoms: C_10  and  C_11
REMARK   10  A    between atoms: C_11  and  C_12
REMARK   11  A    between atoms: C_12  and  C_13
REMARK   12  A    between atoms: C_13  and  C_14
REMARK   13  A    between atoms: C_14  and  C_15
REMARK   14  A    between atoms: C_15  and  C_16
REMARK   15  A    between atoms: C_16  and  C_17
REMARK   16  A    between atoms: C_17  and  C_18
REMARK   17  A    between atoms: C_18  and  C_19
REMARK   18  A    between atoms: C_18  and  O_31
REMARK   19  A    between atoms: C_19  and  O_20
REMARK   20  A    between atoms: O_20  and  P_21
REMARK   21  A    between atoms: P_21  and  O_24
REMARK   22  A    between atoms: O_24  and  C_25
REMARK   23  A    between atoms: C_25  and  C_26
REMARK   24  A    between atoms: C_26  and  N_27
REMARK   25  A    between atoms: N_27  and  C_28
REMARK   26  A    between atoms: N_27  and  C_29
REMARK   27  A    between atoms: N_27  and  C_30
REMARK   28  A    between atoms: O_31  and  C_32
REMARK   29  A    between atoms: C_32  and  C_33
REMARK                            x       y       z     vdW  Elec       q    Type
REMARK                         _______ _______ _______ _____ _____    ______ ____
ROOT
ATOM      1  C   UNL     1       0.767  10.144  21.448  0.00  0.00    +0.000 C 
ENDROOT
BRANCH   1   2
ATOM      2  C   UNL     1      -0.553  10.878  21.244  0.00  0.00    +0.000 C 
BRANCH   2   3
ATOM      3  O   UNL     1      -0.567  11.651  20.029  0.00  0.00    +0.000 OA
BRANCH   3   4
ATOM      4  C   UNL     1      -1.721  11.477  19.210  0.00  0.00    +0.000 C 
ATOM      5  C   UNL     1      -1.686  10.258  18.300  0.00  0.00    +0.000 C 
ENDBRANCH   3   4
ENDBRANCH   2   3
BRANCH   2   6
ATOM      6  C   UNL     1      -1.120  11.643  22.461  0.00  0.00    +0.000 C 
BRANCH   6   7
ATOM      7  O   UNL     1      -1.422  13.054  22.497  0.00  0.00    +0.000 OA
BRANCH   7   8
ATOM      8  P   UNL     1      -2.821  13.235  23.371  0.00  0.00    +0.000 P 
ATOM      9  O   UNL     1      -3.294  11.850  23.777  0.00  0.00    +0.000 OA
ATOM     10  O   UNL     1      -2.646  14.295  24.429  0.00  0.00    +0.000 OA
BRANCH   8  11
ATOM     11  O   UNL     1      -3.931  13.863  22.321  0.00  0.00    +0.000 OA
BRANCH  11  12
ATOM     12  C   UNL     1      -4.564  12.729  21.784  0.00  0.00    +0.000 C 
BRANCH  12  13
ATOM     13  C   UNL     1      -5.177  12.592  20.422  0.00  0.00    +0.000 C 
BRANCH  13  14
ATOM     14  N   UNL     1      -6.740  12.330  20.684  0.00  0.00    +0.000 N 
ATOM     15  C   UNL     1      -7.104  10.905  20.291  0.00  0.00    +0.000 C 
ATOM     16  C   UNL     1      -7.100  12.503  22.182  0.00  0.00    +0.000 C 
ATOM     17  C   UNL     1      -7.526  13.311  19.872  0.00  0.00    +0.000 C 
ENDBRANCH  13  14
ENDBRANCH  12  13
ENDBRANCH  11  12
ENDBRANCH   8  11
ENDBRANCH   7   8
ENDBRANCH   6   7
ENDBRANCH   2   6
ENDBRANCH   1   2
BRANCH   1  18
ATOM     18  C   UNL     1       0.593   8.648  21.264  0.00  0.00    +0.000 C 
BRANCH  18  19
ATOM     19  C   UNL     1       1.596   8.091  20.268  0.00  0.00    +0.000 C 
BRANCH  19  20
ATOM     20  C   UNL     1       1.551   8.954  19.024  0.00  0.00    +0.000 C 
BRANCH  20  21
ATOM     21  C   UNL     1       2.153   8.251  17.817  0.00  0.00    +0.000 C 
BRANCH  21  22
ATOM     22  C   UNL     1       3.419   7.489  18.203  0.00  0.00    +0.000 C 
BRANCH  22  23
ATOM     23  C   UNL     1       4.101   6.772  17.035  0.00  0.00    +0.000 C 
BRANCH  23  25
ATOM     24  C   UNL     1       6.417   6.037  17.694  0.00  0.00    +0.000 C 
ATOM     25  C   UNL     1       5.601   6.900  17.076  0.00  0.00    +0.000 C 
BRANCH  24  26
ATOM     26  C   UNL     1       5.906   4.818  18.392  0.00  0.00    +0.000 C 
BRANCH  26  27
ATOM     27  C   UNL     1       5.149   3.879  17.471  0.00  0.00    +0.000 C 
BRANCH  27  28
ATOM     28  C   UNL     1       3.895   3.389  18.187  0.00  0.00    +0.000 C 
BRANCH  28  29
ATOM     29  C   UNL     1       2.700   3.412  17.252  0.00  0.00    +0.000 C 
BRANCH  29  30
ATOM     30  C   UNL     1       1.507   4.075  17.928  0.00  0.00    +0.000 C 
BRANCH  30  31
ATOM     31  C   UNL     1       1.892   4.550  19.323  0.00  0.00    +0.000 C 
BRANCH  31  33
ATOM     32  C   UNL     1       1.399   2.734  20.972  0.00  0.00    +0.000 C 
ATOM     33  C   UNL     1       0.909   4.039  20.369  0.00  0.00    +0.000 C 
ENDBRANCH  31  33
ENDBRANCH  30  31
ENDBRANCH  29  30
ENDBRANCH  28  29
ENDBRANCH  27  28
ENDBRANCH  26  27
ENDBRANCH  24  26
ENDBRANCH  23  25
ENDBRANCH  22  23
ENDBRANCH  21  22
ENDBRANCH  20  21
ENDBRANCH  19  20
ENDBRANCH  18  19
ENDBRANCH   1  18
TORSDOF 24
ENDMDL
MODEL 4
REMARK VINA RESULT:      -5.6      2.056      3.525
REMARK  Name = 
REMARK  29 active torsions:
REMARK  status: ('A' for Active; 'I' for Inactive)
REMARK    1  A    between atoms: C_1  and  C_2
REMARK    2  A    between atoms: C_2  and  C_3
REMARK    3  A    between atoms: C_3  and  C_4
REMARK    4  A    between atoms: C_4  and  C_5
REMARK    5  A    between atoms: C_5  and  C_6
REMARK    6  A    between atoms: C_6  and  C_7
REMARK    7  A    between atoms: C_7  and  C_8
REMARK    8  A    between atoms: C_8  and  C_9
REMARK    9  A    between atoms: C_10  and  C_11
REMARK   10  A    between atoms: C_11  and  C_12
REMARK   11  A    between atoms: C_12  and  C_13
REMARK   12  A    between atoms: C_13  and  C_14
REMARK   13  A    between atoms: C_14  and  C_15
REMARK   14  A    between atoms: C_15  and  C_16
REMARK   15  A    between atoms: C_16  and  C_17
REMARK   16  A    between atoms: C_17  and  C_18
REMARK   17  A    between atoms: C_18  and  C_19
REMARK   18  A    between atoms: C_18  and  O_31
REMARK   19  A    between atoms: C_19  and  O_20
REMARK   20  A    between atoms: O_20  and  P_21
REMARK   21  A    between atoms: P_21  and  O_24
REMARK   22  A    between atoms: O_24  and  C_25
REMARK   23  A    between atoms: C_25  and  C_26
REMARK   24  A    between atoms: C_26  and  N_27
REMARK   25  A    between atoms: N_27  and  C_28
REMARK   26  A    between atoms: N_27  and  C_29
REMARK   27  A    between atoms: N_27  and  C_30
REMARK   28  A    between atoms: O_31  and  C_32
REMARK   29  A    between atoms: C_32  and  C_33
REMARK                            x       y       z     vdW  Elec       q    Type
REMARK                         _______ _______ _______ _____ _____    ______ ____
ROOT
ATOM      1  C   UNL     1       2.026   7.856  19.324  0.00  0.00    +0.000 C 
ENDROOT
BRANCH   1   2
ATOM      2  C   UNL     1       1.280   8.945  20.085  0.00  0.00    +0.000 C 
BRANCH   2   3
ATOM      3  O   UNL     1       0.969   8.553  21.435  0.00  0.00    +0.000 OA
BRANCH   3   4
ATOM      4  C   UNL     1       0.797   9.628  22.356  0.00  0.00    +0.000 C 
ATOM      5  C   UNL     1      -0.585   9.720  22.988  0.00  0.00    +0.000 C 
ENDBRANCH   3   4
ENDBRANCH   2   3
BRANCH   2   6
ATOM      6  C   UNL     1       0.096   9.620  19.356  0.00  0.00    +0.000 C 
BRANCH   6   7
ATOM      7  O   UNL     1       0.210  10.633  18.334  0.00  0.00    +0.000 OA
BRANCH   7   8
ATOM      8  P   UNL     1      -0.995  11.741  18.606  0.00  0.00    +0.000 P 
ATOM      9  O   UNL     1      -1.663  11.384  19.922  0.00  0.00    +0.000 OA
ATOM     10  O   UNL     1      -0.477  13.142  18.397  0.00  0.00    +0.000 OA
BRANCH   8  11
ATOM     11  O   UNL     1      -2.099  11.514  17.397  0.00  0.00    +0.000 OA
BRANCH  11  12
ATOM     12  C   UNL     1      -3.317  11.357  18.080  0.00  0.00    +0.000 C 
BRANCH  12  13
ATOM     13  C   UNL     1      -4.613  10.854  17.520  0.00  0.00    +0.000 C 
BRANCH  13  14
ATOM     14  N   UNL     1      -5.747  11.797  18.157  0.00  0.00    +0.000 N 
ATOM     15  C   UNL     1      -6.251  12.785  17.115  0.00  0.00    +0.000 C 
ATOM     16  C   UNL     1      -6.965  10.969  18.639  0.00  0.00    +0.000 C 
ATOM     17  C   UNL     1      -5.154  12.526  19.323  0.00  0.00    +0.000 C 
ENDBRANCH  13  14
ENDBRANCH  12  13
ENDBRANCH  11  12
ENDBRANCH   8  11
ENDBRANCH   7   8
ENDBRANCH   6   7
ENDBRANCH   2   6
ENDBRANCH   1   2
BRANCH   1  18
ATOM     18  C   UNL     1       2.514   6.769  20.265  0.00  0.00    +0.000 C 
BRANCH  18  19
ATOM     19  C   UNL     1       1.487   5.658  20.408  0.00  0.00    +0.000 C 
BRANCH  19  20
ATOM     20  C   UNL     1       2.187   4.445  20.986  0.00  0.00    +0.000 C 
BRANCH  20  21
ATOM     21  C   UNL     1       1.866   3.176  20.213  0.00  0.00    +0.000 C 
BRANCH  21  22
ATOM     22  C   UNL     1       0.968   3.477  19.014  0.00  0.00    +0.000 C 
BRANCH  22  23
ATOM     23  C   UNL     1       1.712   4.028  17.795  0.00  0.00    +0.000 C 
BRANCH  23  25
ATOM     24  C   UNL     1       4.096   3.362  17.335  0.00  0.00    +0.000 C 
ATOM     25  C   UNL     1       2.784   3.092  17.303  0.00  0.00    +0.000 C 
BRANCH  24  26
ATOM     26  C   UNL     1       4.634   4.635  17.903  0.00  0.00    +0.000 C 
BRANCH  26  27
ATOM     27  C   UNL     1       4.200   5.864  17.124  0.00  0.00    +0.000 C 
BRANCH  27  28
ATOM     28  C   UNL     1       5.334   6.284  16.195  0.00  0.00    +0.000 C 
BRANCH  28  29
ATOM     29  C   UNL     1       6.624   5.578  16.569  0.00  0.00    +0.000 C 
BRANCH  29  30
ATOM     30  C   UNL     1       7.058   4.634  15.455  0.00  0.00    +0.000 C 
BRANCH  30  31
ATOM     31  C   UNL     1       6.244   4.901  14.195  0.00  0.00    +0.000 C 
BRANCH  31  33
ATOM     32  C   UNL     1       6.690   3.538  12.145  0.00  0.00    +0.000 C 
ATOM     33  C   UNL     1       5.929   3.606  13.458  0.00  0.00    +0.000 C 
ENDBRANCH  31  33
ENDBRANCH  30  31
ENDBRANCH  29  30
ENDBRANCH  28  29
ENDBRANCH  27  28
ENDBRANCH  26  27
ENDBRANCH  24  26
ENDBRANCH  23  25
ENDBRANCH  22  23
ENDBRANCH  21  22
ENDBRANCH  20  21
ENDBRANCH  19  20
ENDBRANCH  18  19
ENDBRANCH   1  18
TORSDOF 24
ENDMDL
MODEL 5
REMARK VINA RESULT:      -5.6      1.824      3.213
REMARK  Name = 
REMARK  29 active torsions:
REMARK  status: ('A' for Active; 'I' for Inactive)
REMARK    1  A    between atoms: C_1  and  C_2
REMARK    2  A    between atoms: C_2  and  C_3
REMARK    3  A    between atoms: C_3  and  C_4
REMARK    4  A    between atoms: C_4  and  C_5
REMARK    5  A    between atoms: C_5  and  C_6
REMARK    6  A    between atoms: C_6  and  C_7
REMARK    7  A    between atoms: C_7  and  C_8
REMARK    8  A    between atoms: C_8  and  C_9
REMARK    9  A    between atoms: C_10  and  C_11
REMARK   10  A    between atoms: C_11  and  C_12
REMARK   11  A    between atoms: C_12  and  C_13
REMARK   12  A    between atoms: C_13  and  C_14
REMARK   13  A    between atoms: C_14  and  C_15
REMARK   14  A    between atoms: C_15  and  C_16
REMARK   15  A    between atoms: C_16  and  C_17
REMARK   16  A    between atoms: C_17  and  C_18
REMARK   17  A    between atoms: C_18  and  C_19
REMARK   18  A    between atoms: C_18  and  O_31
REMARK   19  A    between atoms: C_19  and  O_20
REMARK   20  A    between atoms: O_20  and  P_21
REMARK   21  A    between atoms: P_21  and  O_24
REMARK   22  A    between atoms: O_24  and  C_25
REMARK   23  A    between atoms: C_25  and  C_26
REMARK   24  A    between atoms: C_26  and  N_27
REMARK   25  A    between atoms: N_27  and  C_28
REMARK   26  A    between atoms: N_27  and  C_29
REMARK   27  A    between atoms: N_27  and  C_30
REMARK   28  A    between atoms: O_31  and  C_32
REMARK   29  A    between atoms: C_32  and  C_33
REMARK                            x       y       z     vdW  Elec       q    Type
REMARK                         _______ _______ _______ _____ _____    ______ ____
ROOT
ATOM      1  C   UNL     1       1.863   7.707  21.207  0.00  0.00    +0.000 C 
ENDROOT
BRANCH   1   2
ATOM      2  C   UNL     1       1.031   8.912  20.784  0.00  0.00    +0.000 C 
BRANCH   2   3
ATOM      3  O   UNL     1      -0.335   8.817  21.226  0.00  0.00    +0.000 OA
BRANCH   3   4
ATOM      4  C   UNL     1      -0.527   8.921  22.635  0.00  0.00    +0.000 C 
ATOM      5  C   UNL     1      -0.902  10.310  23.133  0.00  0.00    +0.000 C 
ENDBRANCH   3   4
ENDBRANCH   2   3
BRANCH   2   6
ATOM      6  C   UNL     1       1.167   9.370  19.314  0.00  0.00    +0.000 C 
BRANCH   6   7
ATOM      7  O   UNL     1       0.202  10.165  18.592  0.00  0.00    +0.000 OA
BRANCH   7   8
ATOM      8  P   UNL     1       0.509  11.755  18.952  0.00  0.00    +0.000 P 
ATOM      9  O   UNL     1       0.474  11.901  20.463  0.00  0.00    +0.000 OA
ATOM     10  O   UNL     1       1.715  12.242  18.190  0.00  0.00    +0.000 OA
BRANCH   8  11
ATOM     11  O   UNL     1      -0.760  12.611  18.329  0.00  0.00    +0.000 OA
BRANCH  11  12
ATOM     12  C   UNL     1      -1.855  11.744  18.479  0.00  0.00    +0.000 C 
BRANCH  12  13
ATOM     13  C   UNL     1      -3.305  12.119  18.555  0.00  0.00    +0.000 C 
BRANCH  13  14
ATOM     14  N   UNL     1      -4.083  10.975  17.737  0.00  0.00    +0.000 N 
ATOM     15  C   UNL     1      -3.180   9.765  17.543  0.00  0.00    +0.000 C 
ATOM     16  C   UNL     1      -5.344  10.494  18.500  0.00  0.00    +0.000 C 
ATOM     17  C   UNL     1      -4.493  11.538  16.412  0.00  0.00    +0.000 C 
ENDBRANCH  13  14
ENDBRANCH  12  13
ENDBRANCH  11  12
ENDBRANCH   8  11
ENDBRANCH   7   8
ENDBRANCH   6   7
ENDBRANCH   2   6
ENDBRANCH   1   2
BRANCH   1  18
ATOM     18  C   UNL     1       1.907   6.662  20.107  0.00  0.00    +0.000 C 
BRANCH  18  19
ATOM     19  C   UNL     1       1.218   5.377  20.536  0.00  0.00    +0.000 C 
BRANCH  19  20
ATOM     20  C   UNL     1       2.288   4.378  20.927  0.00  0.00    +0.000 C 
BRANCH  20  21
ATOM     21  C   UNL     1       1.812   2.942  20.778  0.00  0.00    +0.000 C 
BRANCH  21  22
ATOM     22  C   UNL     1       0.860   2.800  19.592  0.00  0.00    +0.000 C 
BRANCH  22  23
ATOM     23  C   UNL     1       1.522   3.006  18.227  0.00  0.00    +0.000 C 
BRANCH  23  25
ATOM     24  C   UNL     1       3.936   2.726  17.570  0.00  0.00    +0.000 C 
ATOM     25  C   UNL     1       2.803   2.229  18.084  0.00  0.00    +0.000 C 
BRANCH  24  26
ATOM     26  C   UNL     1       4.045   4.142  17.105  0.00  0.00    +0.000 C 
BRANCH  26  27
ATOM     27  C   UNL     1       5.483   4.610  16.961  0.00  0.00    +0.000 C 
BRANCH  27  28
ATOM     28  C   UNL     1       5.660   5.240  15.584  0.00  0.00    +0.000 C 
BRANCH  28  29
ATOM     29  C   UNL     1       5.590   4.183  14.497  0.00  0.00    +0.000 C 
BRANCH  29  30
ATOM     30  C   UNL     1       6.643   4.444  13.429  0.00  0.00    +0.000 C 
BRANCH  30  31
ATOM     31  C   UNL     1       6.386   3.563  12.213  0.00  0.00    +0.000 C 
BRANCH  31  33
ATOM     32  C   UNL     1       4.161   3.352  11.089  0.00  0.00    +0.000 C 
ATOM     33  C   UNL     1       5.004   2.924  12.278  0.00  0.00    +0.000 C 
ENDBRANCH  31  33
ENDBRANCH  30  31
ENDBRANCH  29  30
ENDBRANCH  28  29
ENDBRANCH  27  28
ENDBRANCH  26  27
ENDBRANCH  24  26
ENDBRANCH  23  25
ENDBRANCH  22  23
ENDBRANCH  21  22
ENDBRANCH  20  21
ENDBRANCH  19  20
ENDBRANCH  18  19
ENDBRANCH   1  18
TORSDOF 24
ENDMDL
MODEL 6
REMARK VINA RESULT:      -5.5      3.110      5.636
REMARK  Name = 
REMARK  29 active torsions:
REMARK  status: ('A' for Active; 'I' for Inactive)
REMARK    1  A    between atoms: C_1  and  C_2
REMARK    2  A    between atoms: C_2  and  C_3
REMARK    3  A    between atoms: C_3  and  C_4
REMARK    4  A    between atoms: C_4  and  C_5
REMARK    5  A    between atoms: C_5  and  C_6
REMARK    6  A    between atoms: C_6  and  C_7
REMARK    7  A    between atoms: C_7  and  C_8
REMARK    8  A    between atoms: C_8  and  C_9
REMARK    9  A    between atoms: C_10  and  C_11
REMARK   10  A    between atoms: C_11  and  C_12
REMARK   11  A    between atoms: C_12  and  C_13
REMARK   12  A    between atoms: C_13  and  C_14
REMARK   13  A    between atoms: C_14  and  C_15
REMARK   14  A    between atoms: C_15  and  C_16
REMARK   15  A    between atoms: C_16  and  C_17
REMARK   16  A    between atoms: C_17  and  C_18
REMARK   17  A    between atoms: C_18  and  C_19
REMARK   18  A    between atoms: C_18  and  O_31
REMARK   19  A    between atoms: C_19  and  O_20
REMARK   20  A    between atoms: O_20  and  P_21
REMARK   21  A    between atoms: P_21  and  O_24
REMARK   22  A    between atoms: O_24  and  C_25
REMARK   23  A    between atoms: C_25  and  C_26
REMARK   24  A    between atoms: C_26  and  N_27
REMARK   25  A    between atoms: N_27  and  C_28
REMARK   26  A    between atoms: N_27  and  C_29
REMARK   27  A    between atoms: N_27  and  C_30
REMARK   28  A    between atoms: O_31  and  C_32
REMARK   29  A    between atoms: C_32  and  C_33
REMARK                            x       y       z     vdW  Elec       q    Type
REMARK                         _______ _______ _______ _____ _____    ______ ____
ROOT
ATOM      1  C   UNL     1       2.597   6.651  18.906  0.00  0.00    +0.000 C 
ENDROOT
BRANCH   1   2
ATOM      2  C   UNL     1       2.095   7.877  19.659  0.00  0.00    +0.000 C 
BRANCH   2   3
ATOM      3  O   UNL     1       1.337   7.527  20.831  0.00  0.00    +0.000 OA
BRANCH   3   4
ATOM      4  C   UNL     1       1.106   8.594  21.748  0.00  0.00    +0.000 C 
ATOM      5  C   UNL     1      -0.327   8.719  22.244  0.00  0.00    +0.000 C 
ENDBRANCH   3   4
ENDBRANCH   2   3
BRANCH   2   6
ATOM      6  C   UNL     1       1.434   8.991  18.814  0.00  0.00    +0.000 C 
BRANCH   6   7
ATOM      7  O   UNL     1       1.916  10.345  18.689  0.00  0.00    +0.000 OA
BRANCH   7   8
ATOM      8  P   UNL     1       0.664  11.353  19.101  0.00  0.00    +0.000 P 
ATOM      9  O   UNL     1       0.759  12.589  18.225  0.00  0.00    +0.000 OA
ATOM     10  O   UNL     1      -0.632  10.583  19.155  0.00  0.00    +0.000 OA
BRANCH   8  11
ATOM     11  O   UNL     1       0.949  11.813  20.662  0.00  0.00    +0.000 OA
BRANCH  11  12
ATOM     12  C   UNL     1      -0.274  12.366  21.077  0.00  0.00    +0.000 C 
BRANCH  12  13
ATOM     13  C   UNL     1      -0.921  12.230  22.423  0.00  0.00    +0.000 C 
BRANCH  13  14
ATOM     14  N   UNL     1      -2.297  13.053  22.319  0.00  0.00    +0.000 N 
ATOM     15  C   UNL     1      -2.056  14.519  22.652  0.00  0.00    +0.000 C 
ATOM     16  C   UNL     1      -2.883  12.995  20.885  0.00  0.00    +0.000 C 
ATOM     17  C   UNL     1      -3.278  12.455  23.278  0.00  0.00    +0.000 C 
ENDBRANCH  13  14
ENDBRANCH  12  13
ENDBRANCH  11  12
ENDBRANCH   8  11
ENDBRANCH   7   8
ENDBRANCH   6   7
ENDBRANCH   2   6
ENDBRANCH   1   2
BRANCH   1  18
ATOM     18  C   UNL     1       4.108   6.676  18.769  0.00  0.00    +0.000 C 
BRANCH  18  19
ATOM     19  C   UNL     1       4.749   5.494  19.476  0.00  0.00    +0.000 C 
BRANCH  19  20
ATOM     20  C   UNL     1       6.245   5.566  19.250  0.00  0.00    +0.000 C 
BRANCH  20  21
ATOM     21  C   UNL     1       6.592   5.873  17.802  0.00  0.00    +0.000 C 
BRANCH  21  22
ATOM     22  C   UNL     1       7.305   4.692  17.146  0.00  0.00    +0.000 C 
BRANCH  22  23
ATOM     23  C   UNL     1       6.514   4.028  16.017  0.00  0.00    +0.000 C 
BRANCH  23  25
ATOM     24  C   UNL     1       4.027   4.038  16.407  0.00  0.00    +0.000 C 
ATOM     25  C   UNL     1       5.125   4.592  15.877  0.00  0.00    +0.000 C 
BRANCH  24  26
ATOM     26  C   UNL     1       4.081   2.794  17.233  0.00  0.00    +0.000 C 
BRANCH  26  27
ATOM     27  C   UNL     1       2.710   2.208  17.517  0.00  0.00    +0.000 C 
BRANCH  27  28
ATOM     28  C   UNL     1       1.756   3.340  17.885  0.00  0.00    +0.000 C 
BRANCH  28  29
ATOM     29  C   UNL     1       0.671   2.844  18.823  0.00  0.00    +0.000 C 
BRANCH  29  30
ATOM     30  C   UNL     1       0.692   3.631  20.126  0.00  0.00    +0.000 C 
BRANCH  30  31
ATOM     31  C   UNL     1       1.300   2.787  21.238  0.00  0.00    +0.000 C 
BRANCH  31  33
ATOM     32  C   UNL     1       3.721   2.241  20.916  0.00  0.00    +0.000 C 
ATOM     33  C   UNL     1       2.733   3.215  21.534  0.00  0.00    +0.000 C 
ENDBRANCH  31  33
ENDBRANCH  30  31
ENDBRANCH  29  30
ENDBRANCH  28  29
ENDBRANCH  27  28
ENDBRANCH  26  27
ENDBRANCH  24  26
ENDBRANCH  23  25
ENDBRANCH  22  23
ENDBRANCH  21  22
ENDBRANCH  20  21
ENDBRANCH  19  20
ENDBRANCH  18  19
ENDBRANCH   1  18
TORSDOF 24
ENDMDL
MODEL 7
REMARK VINA RESULT:      -5.5      3.130      5.510
REMARK  Name = 
REMARK  29 active torsions:
REMARK  status: ('A' for Active; 'I' for Inactive)
REMARK    1  A    between atoms: C_1  and  C_2
REMARK    2  A    between atoms: C_2  and  C_3
REMARK    3  A    between atoms: C_3  and  C_4
REMARK    4  A    between atoms: C_4  and  C_5
REMARK    5  A    between atoms: C_5  and  C_6
REMARK    6  A    between atoms: C_6  and  C_7
REMARK    7  A    between atoms: C_7  and  C_8
REMARK    8  A    between atoms: C_8  and  C_9
REMARK    9  A    between atoms: C_10  and  C_11
REMARK   10  A    between atoms: C_11  and  C_12
REMARK   11  A    between atoms: C_12  and  C_13
REMARK   12  A    between atoms: C_13  and  C_14
REMARK   13  A    between atoms: C_14  and  C_15
REMARK   14  A    between atoms: C_15  and  C_16
REMARK   15  A    between atoms: C_16  and  C_17
REMARK   16  A    between atoms: C_17  and  C_18
REMARK   17  A    between atoms: C_18  and  C_19
REMARK   18  A    between atoms: C_18  and  O_31
REMARK   19  A    between atoms: C_19  and  O_20
REMARK   20  A    between atoms: O_20  and  P_21
REMARK   21  A    between atoms: P_21  and  O_24
REMARK   22  A    between atoms: O_24  and  C_25
REMARK   23  A    between atoms: C_25  and  C_26
REMARK   24  A    between atoms: C_26  and  N_27
REMARK   25  A    between atoms: N_27  and  C_28
REMARK   26  A    between atoms: N_27  and  C_29
REMARK   27  A    between atoms: N_27  and  C_30
REMARK   28  A    between atoms: O_31  and  C_32
REMARK   29  A    between atoms: C_32  and  C_33
REMARK                            x       y       z     vdW  Elec       q    Type
REMARK                         _______ _______ _______ _____ _____    ______ ____
ROOT
ATOM      1  C   UNL     1       0.674  10.115  20.397  0.00  0.00    +0.000 C 
ENDROOT
BRANCH   1   2
ATOM      2  C   UNL     1       0.487  11.560  20.847  0.00  0.00    +0.000 C 
BRANCH   2   3
ATOM      3  O   UNL     1       1.741  12.221  21.097  0.00  0.00    +0.000 OA
BRANCH   3   4
ATOM      4  C   UNL     1       1.758  13.620  20.819  0.00  0.00    +0.000 C 
ATOM      5  C   UNL     1       2.953  14.100  20.008  0.00  0.00    +0.000 C 
ENDBRANCH   3   4
ENDBRANCH   2   3
BRANCH   2   6
ATOM      6  C   UNL     1      -0.569  11.817  21.946  0.00  0.00    +0.000 C 
BRANCH   6   7
ATOM      7  O   UNL     1      -1.997  11.850  21.743  0.00  0.00    +0.000 OA
BRANCH   7   8
ATOM      8  P   UNL     1      -2.649  12.737  22.985  0.00  0.00    +0.000 P 
ATOM      9  O   UNL     1      -3.397  11.778  23.894  0.00  0.00    +0.000 OA
ATOM     10  O   UNL     1      -1.609  13.656  23.575  0.00  0.00    +0.000 OA
BRANCH   8  11
ATOM     11  O   UNL     1      -3.757  13.744  22.286  0.00  0.00    +0.000 OA
BRANCH  11  12
ATOM     12  C   UNL     1      -4.508  12.893  21.458  0.00  0.00    +0.000 C 
BRANCH  12  13
ATOM     13  C   UNL     1      -5.986  12.940  21.211  0.00  0.00    +0.000 C 
BRANCH  13  14
ATOM     14  N   UNL     1      -6.185  12.388  19.715  0.00  0.00    +0.000 N 
ATOM     15  C   UNL     1      -6.852  13.449  18.851  0.00  0.00    +0.000 C 
ATOM     16  C   UNL     1      -4.827  12.039  19.056  0.00  0.00    +0.000 C 
ATOM     17  C   UNL     1      -7.035  11.156  19.776  0.00  0.00    +0.000 C 
ENDBRANCH  13  14
ENDBRANCH  12  13
ENDBRANCH  11  12
ENDBRANCH   8  11
ENDBRANCH   7   8
ENDBRANCH   6   7
ENDBRANCH   2   6
ENDBRANCH   1   2
BRANCH   1  18
ATOM     18  C   UNL     1       0.479   9.982  18.898  0.00  0.00    +0.000 C 
BRANCH  18  19
ATOM     19  C   UNL     1       1.803   9.764  18.185  0.00  0.00    +0.000 C 
BRANCH  19  20
ATOM     20  C   UNL     1       1.877   8.310  17.766  0.00  0.00    +0.000 C 
BRANCH  20  21
ATOM     21  C   UNL     1       2.728   7.482  18.715  0.00  0.00    +0.000 C 
BRANCH  21  22
ATOM     22  C   UNL     1       2.161   6.072  18.872  0.00  0.00    +0.000 C 
BRANCH  22  23
ATOM     23  C   UNL     1       1.943   5.641  20.324  0.00  0.00    +0.000 C 
BRANCH  23  25
ATOM     24  C   UNL     1       1.469   3.187  20.630  0.00  0.00    +0.000 C 
ATOM     25  C   UNL     1       1.040   4.442  20.440  0.00  0.00    +0.000 C 
BRANCH  24  26
ATOM     26  C   UNL     1       2.918   2.855  20.778  0.00  0.00    +0.000 C 
BRANCH  26  27
ATOM     27  C   UNL     1       3.513   2.225  19.531  0.00  0.00    +0.000 C 
BRANCH  27  28
ATOM     28  C   UNL     1       4.399   3.252  18.833  0.00  0.00    +0.000 C 
BRANCH  28  29
ATOM     29  C   UNL     1       4.029   3.370  17.366  0.00  0.00    +0.000 C 
BRANCH  29  30
ATOM     30  C   UNL     1       4.718   4.574  16.737  0.00  0.00    +0.000 C 
BRANCH  30  31
ATOM     31  C   UNL     1       5.548   4.136  15.538  0.00  0.00    +0.000 C 
BRANCH  31  33
ATOM     32  C   UNL     1       7.219   5.273  17.012  0.00  0.00    +0.000 C 
ATOM     33  C   UNL     1       6.997   4.584  15.677  0.00  0.00    +0.000 C 
ENDBRANCH  31  33
ENDBRANCH  30  31
ENDBRANCH  29  30
ENDBRANCH  28  29
ENDBRANCH  27  28
ENDBRANCH  26  27
ENDBRANCH  24  26
ENDBRANCH  23  25
ENDBRANCH  22  23
ENDBRANCH  21  22
ENDBRANCH  20  21
ENDBRANCH  19  20
ENDBRANCH  18  19
ENDBRANCH   1  18
TORSDOF 24
ENDMDL
MODEL 8
REMARK VINA RESULT:      -5.3      3.285      5.666
REMARK  Name = 
REMARK  29 active torsions:
REMARK  status: ('A' for Active; 'I' for Inactive)
REMARK    1  A    between atoms: C_1  and  C_2
REMARK    2  A    between atoms: C_2  and  C_3
REMARK    3  A    between atoms: C_3  and  C_4
REMARK    4  A    between atoms: C_4  and  C_5
REMARK    5  A    between atoms: C_5  and  C_6
REMARK    6  A    between atoms: C_6  and  C_7
REMARK    7  A    between atoms: C_7  and  C_8
REMARK    8  A    between atoms: C_8  and  C_9
REMARK    9  A    between atoms: C_10  and  C_11
REMARK   10  A    between atoms: C_11  and  C_12
REMARK   11  A    between atoms: C_12  and  C_13
REMARK   12  A    between atoms: C_13  and  C_14
REMARK   13  A    between atoms: C_14  and  C_15
REMARK   14  A    between atoms: C_15  and  C_16
REMARK   15  A    between atoms: C_16  and  C_17
REMARK   16  A    between atoms: C_17  and  C_18
REMARK   17  A    between atoms: C_18  and  C_19
REMARK   18  A    between atoms: C_18  and  O_31
REMARK   19  A    between atoms: C_19  and  O_20
REMARK   20  A    between atoms: O_20  and  P_21
REMARK   21  A    between atoms: P_21  and  O_24
REMARK   22  A    between atoms: O_24  and  C_25
REMARK   23  A    between atoms: C_25  and  C_26
REMARK   24  A    between atoms: C_26  and  N_27
REMARK   25  A    between atoms: N_27  and  C_28
REMARK   26  A    between atoms: N_27  and  C_29
REMARK   27  A    between atoms: N_27  and  C_30
REMARK   28  A    between atoms: O_31  and  C_32
REMARK   29  A    between atoms: C_32  and  C_33
REMARK                            x       y       z     vdW  Elec       q    Type
REMARK                         _______ _______ _______ _____ _____    ______ ____
ROOT
ATOM      1  C   UNL     1       1.301   9.400  20.817  0.00  0.00    +0.000 C 
ENDROOT
BRANCH   1   2
ATOM      2  C   UNL     1      -0.082   9.831  20.342  0.00  0.00    +0.000 C 
BRANCH   2   3
ATOM      3  O   UNL     1      -0.171   9.895  18.906  0.00  0.00    +0.000 OA
BRANCH   3   4
ATOM      4  C   UNL     1      -1.031  10.911  18.395  0.00  0.00    +0.000 C 
ATOM      5  C   UNL     1      -2.192  10.407  17.550  0.00  0.00    +0.000 C 
ENDBRANCH   3   4
ENDBRANCH   2   3
BRANCH   2   6
ATOM      6  C   UNL     1      -0.713  11.052  21.048  0.00  0.00    +0.000 C 
BRANCH   6   7
ATOM      7  O   UNL     1      -0.215  11.672  22.253  0.00  0.00    +0.000 OA
BRANCH   7   8
ATOM      8  P   UNL     1      -1.381  12.729  22.779  0.00  0.00    +0.000 P 
ATOM      9  O   UNL     1      -2.574  11.908  23.237  0.00  0.00    +0.000 OA
ATOM     10  O   UNL     1      -0.782  13.747  23.717  0.00  0.00    +0.000 OA
BRANCH   8  11
ATOM     11  O   UNL     1      -1.839  13.595  21.449  0.00  0.00    +0.000 OA
BRANCH  11  12
ATOM     12  C   UNL     1      -0.679  14.305  21.096  0.00  0.00    +0.000 C 
BRANCH  12  13
ATOM     13  C   UNL     1      -0.105  14.479  19.722  0.00  0.00    +0.000 C 
BRANCH  13  14
ATOM     14  N   UNL     1       1.484  14.320  19.900  0.00  0.00    +0.000 N 
ATOM     15  C   UNL     1       1.936  12.967  19.368  0.00  0.00    +0.000 C 
ATOM     16  C   UNL     1       2.253  15.409  19.111  0.00  0.00    +0.000 C 
ATOM     17  C   UNL     1       1.809  14.443  21.356  0.00  0.00    +0.000 C 
ENDBRANCH  13  14
ENDBRANCH  12  13
ENDBRANCH  11  12
ENDBRANCH   8  11
ENDBRANCH   7   8
ENDBRANCH   6   7
ENDBRANCH   2   6
ENDBRANCH   1   2
BRANCH   1  18
ATOM     18  C   UNL     1       1.227   8.106  21.605  0.00  0.00    +0.000 C 
BRANCH  18  19
ATOM     19  C   UNL     1       1.027   6.910  20.689  0.00  0.00    +0.000 C 
BRANCH  19  20
ATOM     20  C   UNL     1       2.327   6.661  19.951  0.00  0.00    +0.000 C 
BRANCH  20  21
ATOM     21  C   UNL     1       2.954   5.328  20.329  0.00  0.00    +0.000 C 
BRANCH  21  22
ATOM     22  C   UNL     1       2.007   4.505  21.200  0.00  0.00    +0.000 C 
BRANCH  22  23
ATOM     23  C   UNL     1       2.037   3.002  20.915  0.00  0.00    +0.000 C 
BRANCH  23  25
ATOM     24  C   UNL     1       1.261   2.360  18.608  0.00  0.00    +0.000 C 
ATOM     25  C   UNL     1       1.004   2.586  19.902  0.00  0.00    +0.000 C 
BRANCH  24  26
ATOM     26  C   UNL     1       2.639   2.473  18.038  0.00  0.00    +0.000 C 
BRANCH  26  27
ATOM     27  C   UNL     1       2.777   3.608  17.039  0.00  0.00    +0.000 C 
BRANCH  27  28
ATOM     28  C   UNL     1       4.258   3.875  16.797  0.00  0.00    +0.000 C 
BRANCH  28  29
ATOM     29  C   UNL     1       4.551   5.363  16.849  0.00  0.00    +0.000 C 
BRANCH  29  30
ATOM     30  C   UNL     1       5.367   5.704  18.089  0.00  0.00    +0.000 C 
BRANCH  30  31
ATOM     31  C   UNL     1       6.839   5.396  17.848  0.00  0.00    +0.000 C 
BRANCH  31  33
ATOM     32  C   UNL     1       7.619   7.731  17.405  0.00  0.00    +0.000 C 
ATOM     33  C   UNL     1       7.727   6.535  18.333  0.00  0.00    +0.000 C 
ENDBRANCH  31  33
ENDBRANCH  30  31
ENDBRANCH  29  30
ENDBRANCH  28  29
ENDBRANCH  27  28
ENDBRANCH  26  27
ENDBRANCH  24  26
ENDBRANCH  23  25
ENDBRANCH  22  23
ENDBRANCH  21  22
ENDBRANCH  20  21
ENDBRANCH  19  20
ENDBRANCH  18  19
ENDBRANCH   1  18
TORSDOF 24
ENDMDL
MODEL 9
REMARK VINA RESULT:      -5.3      3.879      6.460
REMARK  Name = 
REMARK  29 active torsions:
REMARK  status: ('A' for Active; 'I' for Inactive)
REMARK    1  A    between atoms: C_1  and  C_2
REMARK    2  A    between atoms: C_2  and  C_3
REMARK    3  A    between atoms: C_3  and  C_4
REMARK    4  A    between atoms: C_4  and  C_5
REMARK    5  A    between atoms: C_5  and  C_6
REMARK    6  A    between atoms: C_6  and  C_7
REMARK    7  A    between atoms: C_7  and  C_8
REMARK    8  A    between atoms: C_8  and  C_9
REMARK    9  A    between atoms: C_10  and  C_11
REMARK   10  A    between atoms: C_11  and  C_12
REMARK   11  A    between atoms: C_12  and  C_13
REMARK   12  A    between atoms: C_13  and  C_14
REMARK   13  A    between atoms: C_14  and  C_15
REMARK   14  A    between atoms: C_15  and  C_16
REMARK   15  A    between atoms: C_16  and  C_17
REMARK   16  A    between atoms: C_17  and  C_18
REMARK   17  A    between atoms: C_18  and  C_19
REMARK   18  A    between atoms: C_18  and  O_31
REMARK   19  A    between atoms: C_19  and  O_20
REMARK   20  A    between atoms: O_20  and  P_21
REMARK   21  A    between atoms: P_21  and  O_24
REMARK   22  A    between atoms: O_24  and  C_25
REMARK   23  A    between atoms: C_25  and  C_26
REMARK   24  A    between atoms: C_26  and  N_27
REMARK   25  A    between atoms: N_27  and  C_28
REMARK   26  A    between atoms: N_27  and  C_29
REMARK   27  A    between atoms: N_27  and  C_30
REMARK   28  A    between atoms: O_31  and  C_32
REMARK   29  A    between atoms: C_32  and  C_33
REMARK                            x       y       z     vdW  Elec       q    Type
REMARK                         _______ _______ _______ _____ _____    ______ ____
ROOT
ATOM      1  C   UNL     1       1.631   8.648  18.920  0.00  0.00    +0.000 C 
ENDROOT
BRANCH   1   2
ATOM      2  C   UNL     1       1.286   9.358  20.224  0.00  0.00    +0.000 C 
BRANCH   2   3
ATOM      3  O   UNL     1       0.654   8.481  21.174  0.00  0.00    +0.000 OA
BRANCH   3   4
ATOM      4  C   UNL     1      -0.408   9.063  21.926  0.00  0.00    +0.000 C 
ATOM      5  C   UNL     1      -0.057   9.423  23.363  0.00  0.00    +0.000 C 
ENDBRANCH   3   4
ENDBRANCH   2   3
BRANCH   2   6
ATOM      6  C   UNL     1       0.591  10.734  20.106  0.00  0.00    +0.000 C 
BRANCH   6   7
ATOM      7  O   UNL     1      -0.136  11.208  18.952  0.00  0.00    +0.000 OA
BRANCH   7   8
ATOM      8  P   UNL     1      -0.497  12.805  19.222  0.00  0.00    +0.000 P 
ATOM      9  O   UNL     1      -0.635  13.482  17.869  0.00  0.00    +0.000 OA
ATOM     10  O   UNL     1      -1.614  12.928  20.227  0.00  0.00    +0.000 OA
BRANCH   8  11
ATOM     11  O   UNL     1       0.826  13.445  19.978  0.00  0.00    +0.000 OA
BRANCH  11  12
ATOM     12  C   UNL     1       1.383  14.301  19.013  0.00  0.00    +0.000 C 
BRANCH  12  13
ATOM     13  C   UNL     1       2.834  14.621  18.813  0.00  0.00    +0.000 C 
BRANCH  13  14
ATOM     14  N   UNL     1       2.946  16.214  18.986  0.00  0.00    +0.000 N 
ATOM     15  C   UNL     1       2.133  16.915  17.906  0.00  0.00    +0.000 C 
ATOM     16  C   UNL     1       2.389  16.675  20.357  0.00  0.00    +0.000 C 
ATOM     17  C   UNL     1       4.389  16.599  18.885  0.00  0.00    +0.000 C 
ENDBRANCH  13  14
ENDBRANCH  12  13
ENDBRANCH  11  12
ENDBRANCH   8  11
ENDBRANCH   7   8
ENDBRANCH   6   7
ENDBRANCH   2   6
ENDBRANCH   1   2
BRANCH   1  18
ATOM     18  C   UNL     1       2.449   7.397  19.181  0.00  0.00    +0.000 C 
BRANCH  18  19
ATOM     19  C   UNL     1       2.840   6.710  17.883  0.00  0.00    +0.000 C 
BRANCH  19  20
ATOM     20  C   UNL     1       3.865   7.580  17.182  0.00  0.00    +0.000 C 
BRANCH  20  21
ATOM     21  C   UNL     1       5.110   6.800  16.794  0.00  0.00    +0.000 C 
BRANCH  21  22
ATOM     22  C   UNL     1       5.942   6.448  18.026  0.00  0.00    +0.000 C 
BRANCH  22  23
ATOM     23  C   UNL     1       6.381   4.983  18.091  0.00  0.00    +0.000 C 
BRANCH  23  25
ATOM     24  C   UNL     1       4.501   3.451  18.764  0.00  0.00    +0.000 C 
ATOM     25  C   UNL     1       5.576   4.183  19.080  0.00  0.00    +0.000 C 
BRANCH  24  26
ATOM     26  C   UNL     1       4.003   3.332  17.360  0.00  0.00    +0.000 C 
BRANCH  26  27
ATOM     27  C   UNL     1       2.494   3.190  17.275  0.00  0.00    +0.000 C 
BRANCH  27  28
ATOM     28  C   UNL     1       2.074   1.927  18.020  0.00  0.00    +0.000 C 
BRANCH  28  29
ATOM     29  C   UNL     1       0.739   2.132  18.713  0.00  0.00    +0.000 C 
BRANCH  29  30
ATOM     30  C   UNL     1       0.836   3.256  19.736  0.00  0.00    +0.000 C 
BRANCH  30  31
ATOM     31  C   UNL     1       1.131   2.684  21.116  0.00  0.00    +0.000 C 
BRANCH  31  33
ATOM     32  C   UNL     1       2.426   4.823  21.183  0.00  0.00    +0.000 C 
ATOM     33  C   UNL     1       2.259   3.446  21.800  0.00  0.00    +0.000 C 
ENDBRANCH  31  33
ENDBRANCH  30  31
ENDBRANCH  29  30
ENDBRANCH  28  29
ENDBRANCH  27  28
ENDBRANCH  26  27
ENDBRANCH  24  26
ENDBRANCH  23  25
ENDBRANCH  22  23
ENDBRANCH  21  22
ENDBRANCH  20  21
ENDBRANCH  19  20
ENDBRANCH  18  19
ENDBRANCH   1  18
TORSDOF 24
ENDMDL
