MODEL 1
REMARK VINA RESULT:      -9.3      0.000      0.000
REMARK  Name = 
REMARK  11 active torsions:
REMARK  status: ('A' for Active; 'I' for Inactive)
REMARK    1  A    between atoms: C_1  and  O_2
REMARK    2  A    between atoms: O_2  and  C_3
REMARK    3  A    between atoms: C_9  and  O_10
REMARK    4  A    between atoms: O_10  and  C_11
REMARK    5  A    between atoms: C_16  and  N_17
REMARK    6  A    between atoms: C_23  and  C_24
REMARK    7  A    between atoms: C_24  and  C_25
REMARK    8  A    between atoms: C_24  and  C_26
REMARK    9  A    between atoms: C_24  and  C_27
REMARK   10  A    between atoms: C_33  and  O_34
REMARK   11  A    between atoms: O_34  and  C_35
REMARK                            x       y       z     vdW  Elec       q    Type
REMARK                         _______ _______ _______ _____ _____    ______ ____
ROOT
ATOM      1  C   UNL     1       2.186   7.765  19.326  0.00  0.00    +0.000 A 
ATOM      2  C   UNL     1       2.176   8.239  18.007  0.00  0.00    +0.000 A 
ATOM      3  C   UNL     1       1.565   9.451  17.711  0.00  0.00    +0.000 A 
ATOM      4  C   UNL     1       0.876  10.143  18.699  0.00  0.00    +0.000 A 
ATOM      5  F   UNL     1       0.427  11.365  18.384  0.00  0.00    +0.000 F 
ATOM      6  C   UNL     1       0.745   9.616  19.987  0.00  0.00    +0.000 A 
ATOM      7  C   UNL     1       1.433   8.428  20.303  0.00  0.00    +0.000 A 
ENDROOT
BRANCH   6   8
ATOM      8  N   UNL     1      -0.022  10.205  21.011  0.00  0.00    +0.000 N 
ATOM      9  C   UNL     1       0.113  10.060  22.369  0.00  0.00    +0.000 C 
ATOM     10  O   UNL     1       0.956   9.390  22.960  0.00  0.00    +0.000 OA
ATOM     11  N   UNL     1      -0.731  10.819  23.141  0.00  0.00    +0.000 N 
ATOM     12  C   UNL     1      -1.761  11.626  22.718  0.00  0.00    +0.000 A 
ATOM     13  C   UNL     1      -2.485  12.511  23.543  0.00  0.00    +0.000 A 
ATOM     14  C   UNL     1      -3.406  13.097  22.703  0.00  0.00    +0.000 A 
ATOM     15  O   UNL     1      -3.237  12.594  21.453  0.00  0.00    +0.000 OA
ATOM     16  N   UNL     1      -2.203  11.690  21.457  0.00  0.00    +0.000 NA
ATOM     17  H   UNL     1      -0.667  10.936  20.729  0.00  0.00    +0.000 HD
ATOM     18  H   UNL     1      -0.534  10.771  24.132  0.00  0.00    +0.000 HD
BRANCH  14  19
ATOM     19  C   UNL     1      -4.481  14.128  22.894  0.00  0.00    +0.000 C 
ATOM     20  C   UNL     1      -4.776  14.804  21.544  0.00  0.00    +0.000 C 
ATOM     21  C   UNL     1      -5.783  13.498  23.424  0.00  0.00    +0.000 C 
ATOM     22  C   UNL     1      -3.997  15.179  23.907  0.00  0.00    +0.000 C 
ENDBRANCH  14  19
ENDBRANCH   6   8
BRANCH   1  23
ATOM     23  O   UNL     1       2.904   6.646  19.690  0.00  0.00    +0.000 OA
BRANCH  23  30
ATOM     24  C   UNL     1       5.918   4.780  16.034  0.00  0.00    +0.000 A 
ATOM     25  C   UNL     1       4.831   3.915  16.258  0.00  0.00    +0.000 A 
ATOM     26  C   UNL     1       3.823   4.202  17.161  0.00  0.00    +0.000 A 
ATOM     27  N   UNL     1       2.768   3.379  17.210  0.00  0.00    +0.000 NA
ATOM     28  C   UNL     1       1.763   3.725  18.018  0.00  0.00    +0.000 A 
ATOM     29  N   UNL     1       1.740   4.794  18.810  0.00  0.00    +0.000 NA
ATOM     30  C   UNL     1       2.852   5.563  18.805  0.00  0.00    +0.000 A 
ATOM     31  C   UNL     1       3.938   5.340  17.956  0.00  0.00    +0.000 A 
ATOM     32  C   UNL     1       5.092   6.152  17.839  0.00  0.00    +0.000 A 
ATOM     33  C   UNL     1       6.069   5.896  16.864  0.00  0.00    +0.000 A 
BRANCH  24  35
ATOM     34  C   UNL     1       6.283   4.008  13.818  0.00  0.00    +0.000 C 
ATOM     35  O   UNL     1       6.824   4.532  15.034  0.00  0.00    +0.000 OA
ENDBRANCH  24  35
BRANCH  33  36
ATOM     36  O   UNL     1       7.056   6.841  16.876  0.00  0.00    +0.000 OA
ATOM     37  C   UNL     1       7.772   7.099  18.074  0.00  0.00    +0.000 C 
ENDBRANCH  33  36
ENDBRANCH  23  30
ENDBRANCH   1  23
TORSDOF 6
ENDMDL
MODEL 2
REMARK VINA RESULT:      -9.0      4.617      9.072
REMARK  Name = 
REMARK  11 active torsions:
REMARK  status: ('A' for Active; 'I' for Inactive)
REMARK    1  A    between atoms: C_1  and  O_2
REMARK    2  A    between atoms: O_2  and  C_3
REMARK    3  A    between atoms: C_9  and  O_10
REMARK    4  A    between atoms: O_10  and  C_11
REMARK    5  A    between atoms: C_16  and  N_17
REMARK    6  A    between atoms: C_23  and  C_24
REMARK    7  A    between atoms: C_24  and  C_25
REMARK    8  A    between atoms: C_24  and  C_26
REMARK    9  A    between atoms: C_24  and  C_27
REMARK   10  A    between atoms: C_33  and  O_34
REMARK   11  A    between atoms: O_34  and  C_35
REMARK                            x       y       z     vdW  Elec       q    Type
REMARK                         _______ _______ _______ _____ _____    ______ ____
ROOT
ATOM      1  C   UNL     1       4.316   4.333  16.446  0.00  0.00    +0.000 A 
ATOM      2  C   UNL     1       4.798   3.791  15.246  0.00  0.00    +0.000 A 
ATOM      3  C   UNL     1       6.115   4.013  14.865  0.00  0.00    +0.000 A 
ATOM      4  C   UNL     1       6.925   4.855  15.617  0.00  0.00    +0.000 A 
ATOM      5  F   UNL     1       8.218   4.920  15.273  0.00  0.00    +0.000 F 
ATOM      6  C   UNL     1       6.422   5.526  16.735  0.00  0.00    +0.000 A 
ATOM      7  C   UNL     1       5.112   5.235  17.164  0.00  0.00    +0.000 A 
ENDROOT
BRANCH   6   8
ATOM      8  N   UNL     1       7.147   6.472  17.486  0.00  0.00    +0.000 N 
ATOM      9  C   UNL     1       7.864   6.277  18.640  0.00  0.00    +0.000 C 
ATOM     10  O   UNL     1       8.027   5.217  19.237  0.00  0.00    +0.000 OA
ATOM     11  N   UNL     1       8.541   7.372  19.119  0.00  0.00    +0.000 N 
ATOM     12  C   UNL     1       8.502   8.660  18.640  0.00  0.00    +0.000 A 
ATOM     13  C   UNL     1       9.346   9.705  19.067  0.00  0.00    +0.000 A 
ATOM     14  C   UNL     1       8.951  10.798  18.328  0.00  0.00    +0.000 A 
ATOM     15  O   UNL     1       7.935  10.424  17.507  0.00  0.00    +0.000 OA
ATOM     16  N   UNL     1       7.666   9.089  17.689  0.00  0.00    +0.000 NA
ATOM     17  H   UNL     1       7.278   7.383  17.059  0.00  0.00    +0.000 HD
ATOM     18  H   UNL     1       9.143   7.169  19.905  0.00  0.00    +0.000 HD
BRANCH  14  19
ATOM     19  C   UNL     1       9.408  12.227  18.254  0.00  0.00    +0.000 C 
ATOM     20  C   UNL     1      10.765  12.286  17.532  0.00  0.00    +0.000 C 
ATOM     21  C   UNL     1       8.402  13.105  17.486  0.00  0.00    +0.000 C 
ATOM     22  C   UNL     1       9.554  12.783  19.681  0.00  0.00    +0.000 C 
ENDBRANCH  14  19
ENDBRANCH   6   8
BRANCH   1  23
ATOM     23  O   UNL     1       3.067   4.018  16.934  0.00  0.00    +0.000 OA
BRANCH  23  30
ATOM     24  C   UNL     1       1.822   7.787  20.126  0.00  0.00    +0.000 A 
ATOM     25  C   UNL     1       1.900   6.566  20.820  0.00  0.00    +0.000 A 
ATOM     26  C   UNL     1       2.273   5.382  20.209  0.00  0.00    +0.000 A 
ATOM     27  N   UNL     1       2.439   4.301  20.980  0.00  0.00    +0.000 NA
ATOM     28  C   UNL     1       2.893   3.194  20.387  0.00  0.00    +0.000 A 
ATOM     29  N   UNL     1       3.151   3.063  19.088  0.00  0.00    +0.000 NA
ATOM     30  C   UNL     1       2.894   4.143  18.318  0.00  0.00    +0.000 A 
ATOM     31  C   UNL     1       2.482   5.375  18.832  0.00  0.00    +0.000 A 
ATOM     32  C   UNL     1       2.278   6.566  18.095  0.00  0.00    +0.000 A 
ATOM     33  C   UNL     1       1.978   7.779  18.735  0.00  0.00    +0.000 A 
BRANCH  24  35
ATOM     34  C   UNL     1       1.086   8.837  22.125  0.00  0.00    +0.000 C 
ATOM     35  O   UNL     1       1.585   8.964  20.790  0.00  0.00    +0.000 OA
ENDBRANCH  24  35
BRANCH  33  36
ATOM     36  O   UNL     1       1.897   8.814  17.848  0.00  0.00    +0.000 OA
ATOM     37  C   UNL     1       0.780   9.688  17.882  0.00  0.00    +0.000 C 
ENDBRANCH  33  36
ENDBRANCH  23  30
ENDBRANCH   1  23
TORSDOF 6
ENDMDL
MODEL 3
REMARK VINA RESULT:      -8.8      0.954      1.323
REMARK  Name = 
REMARK  11 active torsions:
REMARK  status: ('A' for Active; 'I' for Inactive)
REMARK    1  A    between atoms: C_1  and  O_2
REMARK    2  A    between atoms: O_2  and  C_3
REMARK    3  A    between atoms: C_9  and  O_10
REMARK    4  A    between atoms: O_10  and  C_11
REMARK    5  A    between atoms: C_16  and  N_17
REMARK    6  A    between atoms: C_23  and  C_24
REMARK    7  A    between atoms: C_24  and  C_25
REMARK    8  A    between atoms: C_24  and  C_26
REMARK    9  A    between atoms: C_24  and  C_27
REMARK   10  A    between atoms: C_33  and  O_34
REMARK   11  A    between atoms: O_34  and  C_35
REMARK                            x       y       z     vdW  Elec       q    Type
REMARK                         _______ _______ _______ _____ _____    ______ ____
ROOT
ATOM      1  C   UNL     1       2.151   7.646  19.456  0.00  0.00    +0.000 A 
ATOM      2  C   UNL     1       2.288   8.138  18.150  0.00  0.00    +0.000 A 
ATOM      3  C   UNL     1       1.815   9.405  17.835  0.00  0.00    +0.000 A 
ATOM      4  C   UNL     1       1.117  10.144  18.781  0.00  0.00    +0.000 A 
ATOM      5  F   UNL     1       0.808  11.407  18.459  0.00  0.00    +0.000 F 
ATOM      6  C   UNL     1       0.838   9.613  20.044  0.00  0.00    +0.000 A 
ATOM      7  C   UNL     1       1.388   8.362  20.387  0.00  0.00    +0.000 A 
ENDROOT
BRANCH   6   8
ATOM      8  N   UNL     1       0.051  10.255  21.019  0.00  0.00    +0.000 N 
ATOM      9  C   UNL     1      -0.376   9.768  22.229  0.00  0.00    +0.000 C 
ATOM     10  O   UNL     1      -0.131   8.664  22.708  0.00  0.00    +0.000 OA
ATOM     11  N   UNL     1      -1.073  10.648  23.020  0.00  0.00    +0.000 N 
ATOM     12  C   UNL     1      -1.483  11.922  22.702  0.00  0.00    +0.000 A 
ATOM     13  C   UNL     1      -2.046  12.839  23.612  0.00  0.00    +0.000 A 
ATOM     14  C   UNL     1      -2.301  13.965  22.860  0.00  0.00    +0.000 A 
ATOM     15  O   UNL     1      -1.907  13.733  21.581  0.00  0.00    +0.000 OA
ATOM     16  N   UNL     1      -1.383  12.467  21.485  0.00  0.00    +0.000 NA
ATOM     17  H   UNL     1      -0.112  11.248  20.885  0.00  0.00    +0.000 HD
ATOM     18  H   UNL     1      -1.277  10.294  23.944  0.00  0.00    +0.000 HD
BRANCH  14  19
ATOM     19  C   UNL     1      -2.881  15.315  23.170  0.00  0.00    +0.000 C 
ATOM     20  C   UNL     1      -3.347  15.340  24.635  0.00  0.00    +0.000 C 
ATOM     21  C   UNL     1      -1.847  16.438  22.962  0.00  0.00    +0.000 C 
ATOM     22  C   UNL     1      -4.078  15.574  22.239  0.00  0.00    +0.000 C 
ENDBRANCH  14  19
ENDBRANCH   6   8
BRANCH   1  23
ATOM     23  O   UNL     1       2.733   6.460  19.849  0.00  0.00    +0.000 OA
BRANCH  23  30
ATOM     24  C   UNL     1       6.340   4.676  16.728  0.00  0.00    +0.000 A 
ATOM     25  C   UNL     1       5.185   3.876  16.646  0.00  0.00    +0.000 A 
ATOM     26  C   UNL     1       4.027   4.162  17.348  0.00  0.00    +0.000 A 
ATOM     27  N   UNL     1       2.944   3.415  17.106  0.00  0.00    +0.000 NA
ATOM     28  C   UNL     1       1.812   3.768  17.720  0.00  0.00    +0.000 A 
ATOM     29  N   UNL     1       1.682   4.771  18.585  0.00  0.00    +0.000 NA
ATOM     30  C   UNL     1       2.809   5.456  18.877  0.00  0.00    +0.000 A 
ATOM     31  C   UNL     1       4.035   5.224  18.250  0.00  0.00    +0.000 A 
ATOM     32  C   UNL     1       5.230   5.958  18.445  0.00  0.00    +0.000 A 
ATOM     33  C   UNL     1       6.374   5.710  17.670  0.00  0.00    +0.000 A 
BRANCH  24  35
ATOM     34  C   UNL     1       7.264   4.824  14.545  0.00  0.00    +0.000 C 
ATOM     35  O   UNL     1       7.420   4.442  15.915  0.00  0.00    +0.000 OA
ENDBRANCH  24  35
BRANCH  33  36
ATOM     36  O   UNL     1       7.385   6.578  17.968  0.00  0.00    +0.000 OA
ATOM     37  C   UNL     1       7.381   7.884  17.414  0.00  0.00    +0.000 C 
ENDBRANCH  33  36
ENDBRANCH  23  30
ENDBRANCH   1  23
TORSDOF 6
ENDMDL
MODEL 4
REMARK VINA RESULT:      -8.4      2.703     11.121
REMARK  Name = 
REMARK  11 active torsions:
REMARK  status: ('A' for Active; 'I' for Inactive)
REMARK    1  A    between atoms: C_1  and  O_2
REMARK    2  A    between atoms: O_2  and  C_3
REMARK    3  A    between atoms: C_9  and  O_10
REMARK    4  A    between atoms: O_10  and  C_11
REMARK    5  A    between atoms: C_16  and  N_17
REMARK    6  A    between atoms: C_23  and  C_24
REMARK    7  A    between atoms: C_24  and  C_25
REMARK    8  A    between atoms: C_24  and  C_26
REMARK    9  A    between atoms: C_24  and  C_27
REMARK   10  A    between atoms: C_33  and  O_34
REMARK   11  A    between atoms: O_34  and  C_35
REMARK                            x       y       z     vdW  Elec       q    Type
REMARK                         _______ _______ _______ _____ _____    ______ ____
ROOT
ATOM      1  C   UNL     1       1.975   7.309  19.743  0.00  0.00    +0.000 A 
ATOM      2  C   UNL     1       1.387   6.446  20.678  0.00  0.00    +0.000 A 
ATOM      3  C   UNL     1       1.897   5.166  20.857  0.00  0.00    +0.000 A 
ATOM      4  C   UNL     1       2.922   4.705  20.041  0.00  0.00    +0.000 A 
ATOM      5  F   UNL     1       3.458   3.517  20.353  0.00  0.00    +0.000 F 
ATOM      6  C   UNL     1       3.423   5.494  19.002  0.00  0.00    +0.000 A 
ATOM      7  C   UNL     1       2.960   6.818  18.876  0.00  0.00    +0.000 A 
ENDROOT
BRANCH   6   8
ATOM      8  N   UNL     1       4.387   5.061  18.070  0.00  0.00    +0.000 N 
ATOM      9  C   UNL     1       5.679   4.662  18.301  0.00  0.00    +0.000 C 
ATOM     10  O   UNL     1       6.245   4.587  19.389  0.00  0.00    +0.000 OA
ATOM     11  N   UNL     1       6.375   4.213  17.206  0.00  0.00    +0.000 N 
ATOM     12  C   UNL     1       5.968   4.215  15.892  0.00  0.00    +0.000 A 
ATOM     13  C   UNL     1       6.656   3.588  14.834  0.00  0.00    +0.000 A 
ATOM     14  C   UNL     1       5.892   3.851  13.717  0.00  0.00    +0.000 A 
ATOM     15  O   UNL     1       4.812   4.585  14.092  0.00  0.00    +0.000 OA
ATOM     16  N   UNL     1       4.850   4.799  15.448  0.00  0.00    +0.000 NA
ATOM     17  H   UNL     1       4.055   4.886  17.127  0.00  0.00    +0.000 HD
ATOM     18  H   UNL     1       7.282   3.827  17.428  0.00  0.00    +0.000 HD
BRANCH  14  19
ATOM     19  C   UNL     1       6.014   3.491  12.264  0.00  0.00    +0.000 C 
ATOM     20  C   UNL     1       6.417   2.012  12.142  0.00  0.00    +0.000 C 
ATOM     21  C   UNL     1       4.684   3.703  11.515  0.00  0.00    +0.000 C 
ATOM     22  C   UNL     1       7.089   4.379  11.615  0.00  0.00    +0.000 C 
ENDBRANCH  14  19
ENDBRANCH   6   8
BRANCH   1  23
ATOM     23  O   UNL     1       1.598   8.630  19.637  0.00  0.00    +0.000 OA
BRANCH  23  30
ATOM     24  C   UNL     1      -1.826  12.270  20.621  0.00  0.00    +0.000 A 
ATOM     25  C   UNL     1      -1.419  11.647  21.816  0.00  0.00    +0.000 A 
ATOM     26  C   UNL     1      -0.453  10.656  21.850  0.00  0.00    +0.000 A 
ATOM     27  N   UNL     1      -0.045  10.216  23.046  0.00  0.00    +0.000 NA
ATOM     28  C   UNL     1       0.954   9.331  23.060  0.00  0.00    +0.000 A 
ATOM     29  N   UNL     1       1.548   8.818  21.986  0.00  0.00    +0.000 NA
ATOM     30  C   UNL     1       1.061   9.214  20.790  0.00  0.00    +0.000 A 
ATOM     31  C   UNL     1       0.065  10.183  20.647  0.00  0.00    +0.000 A 
ATOM     32  C   UNL     1      -0.430  10.705  19.427  0.00  0.00    +0.000 A 
ATOM     33  C   UNL     1      -1.350  11.764  19.406  0.00  0.00    +0.000 A 
BRANCH  24  35
ATOM     34  C   UNL     1      -2.070  14.627  20.779  0.00  0.00    +0.000 C 
ATOM     35  O   UNL     1      -2.682  13.341  20.639  0.00  0.00    +0.000 OA
ENDBRANCH  24  35
BRANCH  33  36
ATOM     36  O   UNL     1      -1.636  12.161  18.131  0.00  0.00    +0.000 OA
ATOM     37  C   UNL     1      -2.417  11.327  17.290  0.00  0.00    +0.000 C 
ENDBRANCH  33  36
ENDBRANCH  23  30
ENDBRANCH   1  23
TORSDOF 6
ENDMDL
MODEL 5
REMARK VINA RESULT:      -8.4      2.990     10.827
REMARK  Name = 
REMARK  11 active torsions:
REMARK  status: ('A' for Active; 'I' for Inactive)
REMARK    1  A    between atoms: C_1  and  O_2
REMARK    2  A    between atoms: O_2  and  C_3
REMARK    3  A    between atoms: C_9  and  O_10
REMARK    4  A    between atoms: O_10  and  C_11
REMARK    5  A    between atoms: C_16  and  N_17
REMARK    6  A    between atoms: C_23  and  C_24
REMARK    7  A    between atoms: C_24  and  C_25
REMARK    8  A    between atoms: C_24  and  C_26
REMARK    9  A    between atoms: C_24  and  C_27
REMARK   10  A    between atoms: C_33  and  O_34
REMARK   11  A    between atoms: O_34  and  C_35
REMARK                            x       y       z     vdW  Elec       q    Type
REMARK                         _______ _______ _______ _____ _____    ______ ____
ROOT
ATOM      1  C   UNL     1      -0.885  11.508  19.948  0.00  0.00    +0.000 A 
ATOM      2  C   UNL     1      -0.893  11.605  21.347  0.00  0.00    +0.000 A 
ATOM      3  C   UNL     1      -0.048  10.802  22.102  0.00  0.00    +0.000 A 
ATOM      4  C   UNL     1       0.730   9.833  21.482  0.00  0.00    +0.000 A 
ATOM      5  F   UNL     1       1.620   9.187  22.246  0.00  0.00    +0.000 F 
ATOM      6  C   UNL     1       0.643   9.616  20.103  0.00  0.00    +0.000 A 
ATOM      7  C   UNL     1      -0.153  10.485  19.332  0.00  0.00    +0.000 A 
ENDROOT
BRANCH   6   8
ATOM      8  N   UNL     1       1.319   8.588  19.417  0.00  0.00    +0.000 N 
ATOM      9  C   UNL     1       2.076   8.678  18.276  0.00  0.00    +0.000 C 
ATOM     10  O   UNL     1       2.327   9.694  17.635  0.00  0.00    +0.000 OA
ATOM     11  N   UNL     1       2.687   7.518  17.868  0.00  0.00    +0.000 N 
ATOM     12  C   UNL     1       2.548   6.260  18.404  0.00  0.00    +0.000 A 
ATOM     13  C   UNL     1       3.329   5.140  18.050  0.00  0.00    +0.000 A 
ATOM     14  C   UNL     1       2.841   4.114  18.828  0.00  0.00    +0.000 A 
ATOM     15  O   UNL     1       1.833   4.596  19.602  0.00  0.00    +0.000 OA
ATOM     16  N   UNL     1       1.661   5.935  19.351  0.00  0.00    +0.000 NA
ATOM     17  H   UNL     1       1.376   7.692  19.890  0.00  0.00    +0.000 HD
ATOM     18  H   UNL     1       3.322   7.642  17.090  0.00  0.00    +0.000 HD
BRANCH  14  19
ATOM     19  C   UNL     1       3.196   2.663  18.981  0.00  0.00    +0.000 C 
ATOM     20  C   UNL     1       1.953   1.885  19.446  0.00  0.00    +0.000 C 
ATOM     21  C   UNL     1       3.690   2.056  17.654  0.00  0.00    +0.000 C 
ATOM     22  C   UNL     1       4.315   2.527  20.028  0.00  0.00    +0.000 C 
ENDBRANCH  14  19
ENDBRANCH   6   8
BRANCH   1  23
ATOM     23  O   UNL     1      -1.596  12.383  19.156  0.00  0.00    +0.000 OA
BRANCH  23  30
ATOM     24  C   UNL     1      -6.473  12.453  20.622  0.00  0.00    +0.000 A 
ATOM     25  C   UNL     1      -6.360  11.910  19.329  0.00  0.00    +0.000 A 
ATOM     26  C   UNL     1      -5.141  11.721  18.702  0.00  0.00    +0.000 A 
ATOM     27  N   UNL     1      -5.131  11.082  17.526  0.00  0.00    +0.000 NA
ATOM     28  C   UNL     1      -3.938  10.824  16.984  0.00  0.00    +0.000 A 
ATOM     29  N   UNL     1      -2.763  11.187  17.493  0.00  0.00    +0.000 NA
ATOM     30  C   UNL     1      -2.805  11.905  18.637  0.00  0.00    +0.000 A 
ATOM     31  C   UNL     1      -3.986  12.179  19.330  0.00  0.00    +0.000 A 
ATOM     32  C   UNL     1      -4.093  12.849  20.573  0.00  0.00    +0.000 A 
ATOM     33  C   UNL     1      -5.324  12.964  21.237  0.00  0.00    +0.000 A 
BRANCH  24  35
ATOM     34  C   UNL     1      -7.915  11.466  22.230  0.00  0.00    +0.000 C 
ATOM     35  O   UNL     1      -7.683  12.498  21.267  0.00  0.00    +0.000 OA
ENDBRANCH  24  35
BRANCH  33  36
ATOM     36  O   UNL     1      -5.190  13.576  22.450  0.00  0.00    +0.000 OA
ATOM     37  C   UNL     1      -4.389  12.979  23.457  0.00  0.00    +0.000 C 
ENDBRANCH  33  36
ENDBRANCH  23  30
ENDBRANCH   1  23
TORSDOF 6
ENDMDL
MODEL 6
REMARK VINA RESULT:      -8.4      3.230     10.861
REMARK  Name = 
REMARK  11 active torsions:
REMARK  status: ('A' for Active; 'I' for Inactive)
REMARK    1  A    between atoms: C_1  and  O_2
REMARK    2  A    between atoms: O_2  and  C_3
REMARK    3  A    between atoms: C_9  and  O_10
REMARK    4  A    between atoms: O_10  and  C_11
REMARK    5  A    between atoms: C_16  and  N_17
REMARK    6  A    between atoms: C_23  and  C_24
REMARK    7  A    between atoms: C_24  and  C_25
REMARK    8  A    between atoms: C_24  and  C_26
REMARK    9  A    between atoms: C_24  and  C_27
REMARK   10  A    between atoms: C_33  and  O_34
REMARK   11  A    between atoms: O_34  and  C_35
REMARK                            x       y       z     vdW  Elec       q    Type
REMARK                         _______ _______ _______ _____ _____    ______ ____
ROOT
ATOM      1  C   UNL     1       2.223   5.519  20.566  0.00  0.00    +0.000 A 
ATOM      2  C   UNL     1       1.834   4.327  21.193  0.00  0.00    +0.000 A 
ATOM      3  C   UNL     1       2.526   3.151  20.935  0.00  0.00    +0.000 A 
ATOM      4  C   UNL     1       3.535   3.131  19.981  0.00  0.00    +0.000 A 
ATOM      5  F   UNL     1       4.251   2.003  19.877  0.00  0.00    +0.000 F 
ATOM      6  C   UNL     1       3.840   4.273  19.235  0.00  0.00    +0.000 A 
ATOM      7  C   UNL     1       3.193   5.482  19.556  0.00  0.00    +0.000 A 
ENDROOT
BRANCH   6   8
ATOM      8  N   UNL     1       4.776   4.307  18.182  0.00  0.00    +0.000 N 
ATOM      9  C   UNL     1       6.132   4.509  18.251  0.00  0.00    +0.000 C 
ATOM     10  O   UNL     1       6.801   4.684  19.266  0.00  0.00    +0.000 OA
ATOM     11  N   UNL     1       6.815   4.414  17.064  0.00  0.00    +0.000 N 
ATOM     12  C   UNL     1       6.291   4.244  15.804  0.00  0.00    +0.000 A 
ATOM     13  C   UNL     1       7.049   3.984  14.643  0.00  0.00    +0.000 A 
ATOM     14  C   UNL     1       6.119   3.893  13.632  0.00  0.00    +0.000 A 
ATOM     15  O   UNL     1       4.881   4.082  14.160  0.00  0.00    +0.000 OA
ATOM     16  N   UNL     1       4.986   4.285  15.515  0.00  0.00    +0.000 NA
ATOM     17  H   UNL     1       4.441   4.010  17.271  0.00  0.00    +0.000 HD
ATOM     18  H   UNL     1       7.819   4.460  17.165  0.00  0.00    +0.000 HD
BRANCH  14  19
ATOM     19  C   UNL     1       6.206   3.629  12.156  0.00  0.00    +0.000 C 
ATOM     20  C   UNL     1       4.794   3.681  11.549  0.00  0.00    +0.000 C 
ATOM     21  C   UNL     1       7.087   4.674  11.444  0.00  0.00    +0.000 C 
ATOM     22  C   UNL     1       6.819   2.236  11.930  0.00  0.00    +0.000 C 
ENDBRANCH  14  19
ENDBRANCH   6   8
BRANCH   1  23
ATOM     23  O   UNL     1       1.663   6.733  20.902  0.00  0.00    +0.000 OA
BRANCH  23  30
ATOM     24  C   UNL     1       0.327  11.638  20.604  0.00  0.00    +0.000 A 
ATOM     25  C   UNL     1       0.933  11.224  19.403  0.00  0.00    +0.000 A 
ATOM     26  C   UNL     1       1.346   9.921  19.186  0.00  0.00    +0.000 A 
ATOM     27  N   UNL     1       1.795   9.598  17.967  0.00  0.00    +0.000 NA
ATOM     28  C   UNL     1       2.097   8.316  17.750  0.00  0.00    +0.000 A 
ATOM     29  N   UNL     1       2.032   7.342  18.655  0.00  0.00    +0.000 NA
ATOM     30  C   UNL     1       1.657   7.710  19.900  0.00  0.00    +0.000 A 
ATOM     31  C   UNL     1       1.254   9.005  20.231  0.00  0.00    +0.000 A 
ATOM     32  C   UNL     1       0.770   9.438  21.490  0.00  0.00    +0.000 A 
ATOM     33  C   UNL     1       0.280  10.740  21.675  0.00  0.00    +0.000 A 
BRANCH  24  35
ATOM     34  C   UNL     1       0.499  13.937  20.033  0.00  0.00    +0.000 C 
ATOM     35  O   UNL     1      -0.195  12.900  20.733  0.00  0.00    +0.000 OA
ENDBRANCH  24  35
BRANCH  33  36
ATOM     36  O   UNL     1      -0.206  10.922  22.939  0.00  0.00    +0.000 OA
ATOM     37  C   UNL     1      -1.579  11.225  23.130  0.00  0.00    +0.000 C 
ENDBRANCH  33  36
ENDBRANCH  23  30
ENDBRANCH   1  23
TORSDOF 6
ENDMDL
MODEL 7
REMARK VINA RESULT:      -8.3      2.829     10.640
REMARK  Name = 
REMARK  11 active torsions:
REMARK  status: ('A' for Active; 'I' for Inactive)
REMARK    1  A    between atoms: C_1  and  O_2
REMARK    2  A    between atoms: O_2  and  C_3
REMARK    3  A    between atoms: C_9  and  O_10
REMARK    4  A    between atoms: O_10  and  C_11
REMARK    5  A    between atoms: C_16  and  N_17
REMARK    6  A    between atoms: C_23  and  C_24
REMARK    7  A    between atoms: C_24  and  C_25
REMARK    8  A    between atoms: C_24  and  C_26
REMARK    9  A    between atoms: C_24  and  C_27
REMARK   10  A    between atoms: C_33  and  O_34
REMARK   11  A    between atoms: O_34  and  C_35
REMARK                            x       y       z     vdW  Elec       q    Type
REMARK                         _______ _______ _______ _____ _____    ______ ____
ROOT
ATOM      1  C   UNL     1      -0.951  11.784  21.656  0.00  0.00    +0.000 A 
ATOM      2  C   UNL     1      -1.140  11.185  22.909  0.00  0.00    +0.000 A 
ATOM      3  C   UNL     1      -0.439  10.032  23.239  0.00  0.00    +0.000 A 
ATOM      4  C   UNL     1       0.371   9.415  22.294  0.00  0.00    +0.000 A 
ATOM      5  F   UNL     1       1.122   8.389  22.715  0.00  0.00    +0.000 F 
ATOM      6  C   UNL     1       0.459   9.912  20.990  0.00  0.00    +0.000 A 
ATOM      7  C   UNL     1      -0.189  11.125  20.684  0.00  0.00    +0.000 A 
ENDROOT
BRANCH   6   8
ATOM      8  N   UNL     1       1.176   9.288  19.950  0.00  0.00    +0.000 N 
ATOM      9  C   UNL     1       1.333   9.705  18.652  0.00  0.00    +0.000 C 
ATOM     10  O   UNL     1       0.886  10.731  18.147  0.00  0.00    +0.000 OA
ATOM     11  N   UNL     1       2.155   8.932  17.869  0.00  0.00    +0.000 N 
ATOM     12  C   UNL     1       2.753   7.738  18.198  0.00  0.00    +0.000 A 
ATOM     13  C   UNL     1       3.719   7.077  17.413  0.00  0.00    +0.000 A 
ATOM     14  C   UNL     1       4.025   5.937  18.124  0.00  0.00    +0.000 A 
ATOM     15  O   UNL     1       3.288   5.925  19.265  0.00  0.00    +0.000 OA
ATOM     16  N   UNL     1       2.508   7.054  19.320  0.00  0.00    +0.000 NA
ATOM     17  H   UNL     1       1.766   8.506  20.215  0.00  0.00    +0.000 HD
ATOM     18  H   UNL     1       2.336   9.325  16.955  0.00  0.00    +0.000 HD
BRANCH  14  19
ATOM     19  C   UNL     1       4.966   4.789  17.897  0.00  0.00    +0.000 C 
ATOM     20  C   UNL     1       6.415   5.293  18.015  0.00  0.00    +0.000 C 
ATOM     21  C   UNL     1       4.749   3.666  18.929  0.00  0.00    +0.000 C 
ATOM     22  C   UNL     1       4.728   4.215  16.490  0.00  0.00    +0.000 C 
ENDBRANCH  14  19
ENDBRANCH   6   8
BRANCH   1  23
ATOM     23  O   UNL     1      -1.511  13.004  21.343  0.00  0.00    +0.000 OA
BRANCH  23  30
ATOM     24  C   UNL     1      -5.799  12.036  18.771  0.00  0.00    +0.000 A 
ATOM     25  C   UNL     1      -6.099  12.431  20.088  0.00  0.00    +0.000 A 
ATOM     26  C   UNL     1      -5.123  12.808  20.995  0.00  0.00    +0.000 A 
ATOM     27  N   UNL     1      -5.518  13.287  22.181  0.00  0.00    +0.000 NA
ATOM     28  C   UNL     1      -4.567  13.735  23.003  0.00  0.00    +0.000 A 
ATOM     29  N   UNL     1      -3.258  13.704  22.762  0.00  0.00    +0.000 NA
ATOM     30  C   UNL     1      -2.881  13.138  21.595  0.00  0.00    +0.000 A 
ATOM     31  C   UNL     1      -3.785  12.695  20.626  0.00  0.00    +0.000 A 
ATOM     32  C   UNL     1      -3.460  12.173  19.351  0.00  0.00    +0.000 A 
ATOM     33  C   UNL     1      -4.457  11.869  18.411  0.00  0.00    +0.000 A 
BRANCH  24  35
ATOM     34  C   UNL     1      -7.247  12.944  17.123  0.00  0.00    +0.000 C 
ATOM     35  O   UNL     1      -6.796  11.803  17.859  0.00  0.00    +0.000 OA
ENDBRANCH  24  35
BRANCH  33  36
ATOM     36  O   UNL     1      -3.924  11.452  17.225  0.00  0.00    +0.000 OA
ATOM     37  C   UNL     1      -2.519  11.293  17.100  0.00  0.00    +0.000 C 
ENDBRANCH  33  36
ENDBRANCH  23  30
ENDBRANCH   1  23
TORSDOF 6
ENDMDL
MODEL 8
REMARK VINA RESULT:      -8.3      1.393      1.549
REMARK  Name = 
REMARK  11 active torsions:
REMARK  status: ('A' for Active; 'I' for Inactive)
REMARK    1  A    between atoms: C_1  and  O_2
REMARK    2  A    between atoms: O_2  and  C_3
REMARK    3  A    between atoms: C_9  and  O_10
REMARK    4  A    between atoms: O_10  and  C_11
REMARK    5  A    between atoms: C_16  and  N_17
REMARK    6  A    between atoms: C_23  and  C_24
REMARK    7  A    between atoms: C_24  and  C_25
REMARK    8  A    between atoms: C_24  and  C_26
REMARK    9  A    between atoms: C_24  and  C_27
REMARK   10  A    between atoms: C_33  and  O_34
REMARK   11  A    between atoms: O_34  and  C_35
REMARK                            x       y       z     vdW  Elec       q    Type
REMARK                         _______ _______ _______ _____ _____    ______ ____
ROOT
ATOM      1  C   UNL     1       1.917   7.769  19.766  0.00  0.00    +0.000 A 
ATOM      2  C   UNL     1       1.992   7.882  18.370  0.00  0.00    +0.000 A 
ATOM      3  C   UNL     1       1.695   9.092  17.756  0.00  0.00    +0.000 A 
ATOM      4  C   UNL     1       1.227  10.160  18.511  0.00  0.00    +0.000 A 
ATOM      5  F   UNL     1       1.089  11.334  17.881  0.00  0.00    +0.000 F 
ATOM      6  C   UNL     1       1.002  10.025  19.884  0.00  0.00    +0.000 A 
ATOM      7  C   UNL     1       1.380   8.824  20.515  0.00  0.00    +0.000 A 
ENDROOT
BRANCH   6   8
ATOM      8  N   UNL     1       0.434  11.025  20.697  0.00  0.00    +0.000 N 
ATOM      9  C   UNL     1       0.988  12.214  21.102  0.00  0.00    +0.000 C 
ATOM     10  O   UNL     1       2.100  12.647  20.809  0.00  0.00    +0.000 OA
ATOM     11  N   UNL     1       0.172  13.039  21.835  0.00  0.00    +0.000 N 
ATOM     12  C   UNL     1      -1.095  12.773  22.300  0.00  0.00    +0.000 A 
ATOM     13  C   UNL     1      -1.949  13.719  22.902  0.00  0.00    +0.000 A 
ATOM     14  C   UNL     1      -3.092  13.014  23.205  0.00  0.00    +0.000 A 
ATOM     15  O   UNL     1      -2.930  11.727  22.802  0.00  0.00    +0.000 OA
ATOM     16  N   UNL     1      -1.693  11.579  22.224  0.00  0.00    +0.000 NA
ATOM     17  H   UNL     1      -0.556  10.932  20.902  0.00  0.00    +0.000 HD
ATOM     18  H   UNL     1       0.572  13.948  22.023  0.00  0.00    +0.000 HD
BRANCH  14  19
ATOM     19  C   UNL     1      -4.402  13.378  23.842  0.00  0.00    +0.000 C 
ATOM     20  C   UNL     1      -4.328  14.825  24.359  0.00  0.00    +0.000 C 
ATOM     21  C   UNL     1      -5.569  13.272  22.842  0.00  0.00    +0.000 C 
ATOM     22  C   UNL     1      -4.674  12.420  25.016  0.00  0.00    +0.000 C 
ENDBRANCH  14  19
ENDBRANCH   6   8
BRANCH   1  23
ATOM     23  O   UNL     1       2.342   6.637  20.426  0.00  0.00    +0.000 OA
BRANCH  23  30
ATOM     24  C   UNL     1       5.219   4.167  17.026  0.00  0.00    +0.000 A 
ATOM     25  C   UNL     1       4.120   3.372  17.404  0.00  0.00    +0.000 A 
ATOM     26  C   UNL     1       3.142   3.817  18.277  0.00  0.00    +0.000 A 
ATOM     27  N   UNL     1       2.073   3.037  18.475  0.00  0.00    +0.000 NA
ATOM     28  C   UNL     1       1.097   3.526  19.244  0.00  0.00    +0.000 A 
ATOM     29  N   UNL     1       1.118   4.702  19.865  0.00  0.00    +0.000 NA
ATOM     30  C   UNL     1       2.244   5.434  19.717  0.00  0.00    +0.000 A 
ATOM     31  C   UNL     1       3.302   5.059  18.887  0.00  0.00    +0.000 A 
ATOM     32  C   UNL     1       4.469   5.816  18.621  0.00  0.00    +0.000 A 
ATOM     33  C   UNL     1       5.414   5.391  17.674  0.00  0.00    +0.000 A 
BRANCH  24  35
ATOM     34  C   UNL     1       5.893   4.308  14.754  0.00  0.00    +0.000 C 
ATOM     35  O   UNL     1       6.092   3.748  16.055  0.00  0.00    +0.000 OA
ENDBRANCH  24  35
BRANCH  33  36
ATOM     36  O   UNL     1       6.420   6.303  17.519  0.00  0.00    +0.000 OA
ATOM     37  C   UNL     1       7.566   6.238  18.353  0.00  0.00    +0.000 C 
ENDBRANCH  33  36
ENDBRANCH  23  30
ENDBRANCH   1  23
TORSDOF 6
ENDMDL
MODEL 9
REMARK VINA RESULT:      -8.3      4.593      9.373
REMARK  Name = 
REMARK  11 active torsions:
REMARK  status: ('A' for Active; 'I' for Inactive)
REMARK    1  A    between atoms: C_1  and  O_2
REMARK    2  A    between atoms: O_2  and  C_3
REMARK    3  A    between atoms: C_9  and  O_10
REMARK    4  A    between atoms: O_10  and  C_11
REMARK    5  A    between atoms: C_16  and  N_17
REMARK    6  A    between atoms: C_23  and  C_24
REMARK    7  A    between atoms: C_24  and  C_25
REMARK    8  A    between atoms: C_24  and  C_26
REMARK    9  A    between atoms: C_24  and  C_27
REMARK   10  A    between atoms: C_33  and  O_34
REMARK   11  A    between atoms: O_34  and  C_35
REMARK                            x       y       z     vdW  Elec       q    Type
REMARK                         _______ _______ _______ _____ _____    ______ ____
ROOT
ATOM      1  C   UNL     1       0.724  13.248  19.561  0.00  0.00    +0.000 A 
ATOM      2  C   UNL     1      -0.383  13.403  18.714  0.00  0.00    +0.000 A 
ATOM      3  C   UNL     1      -1.112  12.290  18.316  0.00  0.00    +0.000 A 
ATOM      4  C   UNL     1      -0.687  11.016  18.670  0.00  0.00    +0.000 A 
ATOM      5  F   UNL     1      -1.504   9.997  18.371  0.00  0.00    +0.000 F 
ATOM      6  C   UNL     1       0.497  10.827  19.389  0.00  0.00    +0.000 A 
ATOM      7  C   UNL     1       1.189  11.961  19.860  0.00  0.00    +0.000 A 
ENDROOT
BRANCH   6   8
ATOM      8  N   UNL     1       1.047   9.568  19.697  0.00  0.00    +0.000 N 
ATOM      9  C   UNL     1       1.093   8.930  20.911  0.00  0.00    +0.000 C 
ATOM     10  O   UNL     1       0.637   9.337  21.976  0.00  0.00    +0.000 OA
ATOM     11  N   UNL     1       1.625   7.664  20.906  0.00  0.00    +0.000 N 
ATOM     12  C   UNL     1       2.211   7.002  19.852  0.00  0.00    +0.000 A 
ATOM     13  C   UNL     1       2.587   5.644  19.861  0.00  0.00    +0.000 A 
ATOM     14  C   UNL     1       3.127   5.422  18.614  0.00  0.00    +0.000 A 
ATOM     15  O   UNL     1       3.071   6.579  17.904  0.00  0.00    +0.000 OA
ATOM     16  N   UNL     1       2.486   7.559  18.668  0.00  0.00    +0.000 NA
ATOM     17  H   UNL     1       1.323   8.991  18.908  0.00  0.00    +0.000 HD
ATOM     18  H   UNL     1       1.544   7.182  21.791  0.00  0.00    +0.000 HD
BRANCH  14  19
ATOM     19  C   UNL     1       3.715   4.221  17.931  0.00  0.00    +0.000 C 
ATOM     20  C   UNL     1       4.629   3.476  18.919  0.00  0.00    +0.000 C 
ATOM     21  C   UNL     1       2.621   3.252  17.444  0.00  0.00    +0.000 C 
ATOM     22  C   UNL     1       4.535   4.686  16.714  0.00  0.00    +0.000 C 
ENDBRANCH  14  19
ENDBRANCH   6   8
BRANCH   1  23
ATOM     23  O   UNL     1       1.384  14.332  20.098  0.00  0.00    +0.000 OA
BRANCH  23  30
ATOM     24  C   UNL     1       6.335  14.558  21.269  0.00  0.00    +0.000 A 
ATOM     25  C   UNL     1       6.139  14.882  19.914  0.00  0.00    +0.000 A 
ATOM     26  C   UNL     1       4.883  14.952  19.337  0.00  0.00    +0.000 A 
ATOM     27  N   UNL     1       4.794  15.391  18.076  0.00  0.00    +0.000 NA
ATOM     28  C   UNL     1       3.567  15.543  17.570  0.00  0.00    +0.000 A 
ATOM     29  N   UNL     1       2.431  15.254  18.198  0.00  0.00    +0.000 NA
ATOM     30  C   UNL     1       2.551  14.733  19.439  0.00  0.00    +0.000 A 
ATOM     31  C   UNL     1       3.775  14.589  20.098  0.00  0.00    +0.000 A 
ATOM     32  C   UNL     1       3.965  14.132  21.424  0.00  0.00    +0.000 A 
ATOM     33  C   UNL     1       5.234  14.141  22.025  0.00  0.00    +0.000 A 
BRANCH  24  35
ATOM     34  C   UNL     1       8.635  13.983  21.125  0.00  0.00    +0.000 C 
ATOM     35  O   UNL     1       7.580  14.633  21.841  0.00  0.00    +0.000 OA
ENDBRANCH  24  35
BRANCH  33  36
ATOM     36  O   UNL     1       5.181  13.732  23.327  0.00  0.00    +0.000 OA
ATOM     37  C   UNL     1       5.214  14.694  24.370  0.00  0.00    +0.000 C 
ENDBRANCH  33  36
ENDBRANCH  23  30
ENDBRANCH   1  23
TORSDOF 6
ENDMDL
