MODEL 1
REMARK VINA RESULT:      -7.3      0.000      0.000
REMARK  Name = 
REMARK  9 active torsions:
REMARK  status: ('A' for Active; 'I' for Inactive)
REMARK    1  A    between atoms: C_1  and  O_2
REMARK    2  A    between atoms: O_2  and  C_3
REMARK    3  A    between atoms: C_8  and  C_9
REMARK    4  A    between atoms: C_12  and  C_13
REMARK    5  A    between atoms: C_21  and  S_22
REMARK    6  A    between atoms: S_22  and  C_25
REMARK    7  A    between atoms: C_25  and  C_26
REMARK    8  A    between atoms: C_25  and  C_27
REMARK    9  A    between atoms: C_25  and  C_28
REMARK                            x       y       z     vdW  Elec       q    Type
REMARK                         _______ _______ _______ _____ _____    ______ ____
ROOT
ATOM      1  C   UNL     1       3.823   4.087  18.527  0.00  0.00    +0.000 A 
ATOM      2  C   UNL     1       3.095   4.036  19.667  0.00  0.00    +0.000 A 
ATOM      3  C   UNL     1       2.360   5.165  20.106  0.00  0.00    +0.000 A 
ATOM      4  N   UNL     1       1.503   5.281  21.094  0.00  0.00    +0.000 NA
ATOM      5  C   UNL     1       1.065   6.570  21.033  0.00  0.00    +0.000 A 
ATOM      6  C   UNL     1       1.673   7.281  20.010  0.00  0.00    +0.000 A 
ATOM      7  N   UNL     1       2.464   6.337  19.363  0.00  0.00    +0.000 N 
ATOM      8  C   UNL     1       3.265   6.427  18.224  0.00  0.00    +0.000 A 
ATOM      9  C   UNL     1       3.975   5.356  17.808  0.00  0.00    +0.000 A 
ENDROOT
BRANCH   6  10
ATOM     10  C   UNL     1       1.541   8.701  19.681  0.00  0.00    +0.000 A 
ATOM     11  C   UNL     1       1.922   9.168  18.417  0.00  0.00    +0.000 A 
ATOM     12  C   UNL     1       1.728  10.507  18.065  0.00  0.00    +0.000 A 
ATOM     13  C   UNL     1       1.156  11.416  18.972  0.00  0.00    +0.000 A 
ATOM     14  C   UNL     1       0.802  10.960  20.246  0.00  0.00    +0.000 A 
ATOM     15 CL   UNL     1       0.187  11.979  21.502  0.00  0.00    +0.000 Cl
ATOM     16  C   UNL     1       0.967   9.609  20.578  0.00  0.00    +0.000 A 
BRANCH  13  17
ATOM     17  C   UNL     1       0.957  12.802  18.476  0.00  0.00    +0.000 C 
ATOM     18  N   UNL     1      -0.244  13.119  17.915  0.00  0.00    +0.000 N 
ATOM     19  O   UNL     1       1.864  13.624  18.522  0.00  0.00    +0.000 OA
ATOM     20  H   UNL     1      -1.045  12.499  17.935  0.00  0.00    +0.000 HD
ATOM     21  H   UNL     1      -0.379  14.073  17.618  0.00  0.00    +0.000 HD
ENDBRANCH  13  17
ENDBRANCH   6  10
BRANCH   9  22
ATOM     22  S   UNL     1       5.215   5.644  16.584  0.00  0.00    +0.000 S 
ATOM     23  O   UNL     1       5.266   4.463  15.737  0.00  0.00    +0.000 OA
ATOM     24  O   UNL     1       5.002   6.930  15.944  0.00  0.00    +0.000 OA
BRANCH  22  25
ATOM     25  C   UNL     1       6.809   5.716  17.478  0.00  0.00    +0.000 C 
ATOM     26  C   UNL     1       6.602   5.568  18.991  0.00  0.00    +0.000 C 
ATOM     27  C   UNL     1       7.678   4.544  16.966  0.00  0.00    +0.000 C 
ATOM     28  C   UNL     1       7.548   7.026  17.184  0.00  0.00    +0.000 C 
ENDBRANCH  22  25
ENDBRANCH   9  22
BRANCH   1  30
ATOM     29  C   UNL     1       3.615   1.784  18.007  0.00  0.00    +0.000 C 
ATOM     30  O   UNL     1       4.376   2.988  17.910  0.00  0.00    +0.000 OA
ENDBRANCH   1  30
TORSDOF 5
ENDMDL
MODEL 2
REMARK VINA RESULT:      -6.9      6.586      9.236
REMARK  Name = 
REMARK  9 active torsions:
REMARK  status: ('A' for Active; 'I' for Inactive)
REMARK    1  A    between atoms: C_1  and  O_2
REMARK    2  A    between atoms: O_2  and  C_3
REMARK    3  A    between atoms: C_8  and  C_9
REMARK    4  A    between atoms: C_12  and  C_13
REMARK    5  A    between atoms: C_21  and  S_22
REMARK    6  A    between atoms: S_22  and  C_25
REMARK    7  A    between atoms: C_25  and  C_26
REMARK    8  A    between atoms: C_25  and  C_27
REMARK    9  A    between atoms: C_25  and  C_28
REMARK                            x       y       z     vdW  Elec       q    Type
REMARK                         _______ _______ _______ _____ _____    ______ ____
ROOT
ATOM      1  C   UNL     1      10.120  15.410  18.779  0.00  0.00    +0.000 A 
ATOM      2  C   UNL     1       9.666  16.669  18.974  0.00  0.00    +0.000 A 
ATOM      3  C   UNL     1       8.281  16.920  19.140  0.00  0.00    +0.000 A 
ATOM      4  N   UNL     1       7.658  18.030  19.464  0.00  0.00    +0.000 NA
ATOM      5  C   UNL     1       6.340  17.689  19.528  0.00  0.00    +0.000 A 
ATOM      6  C   UNL     1       6.128  16.356  19.215  0.00  0.00    +0.000 A 
ATOM      7  N   UNL     1       7.408  15.842  19.034  0.00  0.00    +0.000 N 
ATOM      8  C   UNL     1       7.855  14.547  18.766  0.00  0.00    +0.000 A 
ATOM      9  C   UNL     1       9.173  14.306  18.597  0.00  0.00    +0.000 A 
ENDROOT
BRANCH   6  10
ATOM     10  C   UNL     1       4.859  15.638  19.085  0.00  0.00    +0.000 A 
ATOM     11  C   UNL     1       4.396  15.254  17.821  0.00  0.00    +0.000 A 
ATOM     12  C   UNL     1       3.225  14.501  17.692  0.00  0.00    +0.000 A 
ATOM     13  C   UNL     1       2.482  14.120  18.823  0.00  0.00    +0.000 A 
ATOM     14  C   UNL     1       2.926  14.529  20.085  0.00  0.00    +0.000 A 
ATOM     15 CL   UNL     1       2.067  14.229  21.556  0.00  0.00    +0.000 Cl
ATOM     16  C   UNL     1       4.119  15.252  20.209  0.00  0.00    +0.000 A 
BRANCH  13  17
ATOM     17  C   UNL     1       1.281  13.285  18.570  0.00  0.00    +0.000 C 
ATOM     18  N   UNL     1       1.464  11.977  18.235  0.00  0.00    +0.000 N 
ATOM     19  O   UNL     1       0.155  13.770  18.611  0.00  0.00    +0.000 OA
ATOM     20  H   UNL     1       2.365  11.518  18.274  0.00  0.00    +0.000 HD
ATOM     21  H   UNL     1       0.638  11.412  18.103  0.00  0.00    +0.000 HD
ENDBRANCH  13  17
ENDBRANCH   6  10
BRANCH   9  22
ATOM     22  S   UNL     1       9.619  12.735  17.925  0.00  0.00    +0.000 S 
ATOM     23  O   UNL     1       8.401  12.122  17.419  0.00  0.00    +0.000 OA
ATOM     24  O   UNL     1      10.739  12.877  17.011  0.00  0.00    +0.000 OA
BRANCH  22  25
ATOM     25  C   UNL     1      10.171  11.713  19.337  0.00  0.00    +0.000 C 
ATOM     26  C   UNL     1       9.480  10.343  19.331  0.00  0.00    +0.000 C 
ATOM     27  C   UNL     1      11.697  11.514  19.194  0.00  0.00    +0.000 C 
ATOM     28  C   UNL     1       9.902  12.421  20.670  0.00  0.00    +0.000 C 
ENDBRANCH  22  25
ENDBRANCH   9  22
BRANCH   1  30
ATOM     29  C   UNL     1      12.117  15.362  20.057  0.00  0.00    +0.000 C 
ATOM     30  O   UNL     1      11.447  15.047  18.836  0.00  0.00    +0.000 OA
ENDBRANCH   1  30
TORSDOF 5
ENDMDL
MODEL 3
REMARK VINA RESULT:      -6.8      3.553      8.256
REMARK  Name = 
REMARK  9 active torsions:
REMARK  status: ('A' for Active; 'I' for Inactive)
REMARK    1  A    between atoms: C_1  and  O_2
REMARK    2  A    between atoms: O_2  and  C_3
REMARK    3  A    between atoms: C_8  and  C_9
REMARK    4  A    between atoms: C_12  and  C_13
REMARK    5  A    between atoms: C_21  and  S_22
REMARK    6  A    between atoms: S_22  and  C_25
REMARK    7  A    between atoms: C_25  and  C_26
REMARK    8  A    between atoms: C_25  and  C_27
REMARK    9  A    between atoms: C_25  and  C_28
REMARK                            x       y       z     vdW  Elec       q    Type
REMARK                         _______ _______ _______ _____ _____    ______ ____
ROOT
ATOM      1  C   UNL     1      -0.202  13.565  21.492  0.00  0.00    +0.000 A 
ATOM      2  C   UNL     1      -0.823  12.712  22.340  0.00  0.00    +0.000 A 
ATOM      3  C   UNL     1      -0.551  11.322  22.294  0.00  0.00    +0.000 A 
ATOM      4  N   UNL     1      -0.940  10.361  23.099  0.00  0.00    +0.000 NA
ATOM      5  C   UNL     1      -0.350   9.232  22.613  0.00  0.00    +0.000 A 
ATOM      6  C   UNL     1       0.398   9.483  21.473  0.00  0.00    +0.000 A 
ATOM      7  N   UNL     1       0.321  10.863  21.313  0.00  0.00    +0.000 N 
ATOM      8  C   UNL     1       0.916  11.720  20.387  0.00  0.00    +0.000 A 
ATOM      9  C   UNL     1       0.652  13.044  20.421  0.00  0.00    +0.000 A 
ENDROOT
BRANCH   6  10
ATOM     10  C   UNL     1       1.100   8.529  20.613  0.00  0.00    +0.000 A 
ATOM     11  C   UNL     1       1.513   8.911  19.331  0.00  0.00    +0.000 A 
ATOM     12  C   UNL     1       2.252   8.033  18.531  0.00  0.00    +0.000 A 
ATOM     13  C   UNL     1       2.590   6.749  18.990  0.00  0.00    +0.000 A 
ATOM     14  C   UNL     1       2.153   6.353  20.259  0.00  0.00    +0.000 A 
ATOM     15 CL   UNL     1       2.399   4.772  20.918  0.00  0.00    +0.000 Cl
ATOM     16  C   UNL     1       1.444   7.250  21.068  0.00  0.00    +0.000 A 
BRANCH  13  17
ATOM     17  C   UNL     1       3.414   5.919  18.075  0.00  0.00    +0.000 C 
ATOM     18  N   UNL     1       2.871   4.772  17.580  0.00  0.00    +0.000 N 
ATOM     19  O   UNL     1       4.570   6.230  17.812  0.00  0.00    +0.000 OA
ATOM     20  H   UNL     1       1.897   4.524  17.702  0.00  0.00    +0.000 HD
ATOM     21  H   UNL     1       3.428   4.238  16.930  0.00  0.00    +0.000 HD
ENDBRANCH  13  17
ENDBRANCH   6  10
BRANCH   9  22
ATOM     22  S   UNL     1       1.159  13.997  19.023  0.00  0.00    +0.000 S 
ATOM     23  O   UNL     1       1.627  13.062  18.012  0.00  0.00    +0.000 OA
ATOM     24  O   UNL     1       0.117  14.938  18.650  0.00  0.00    +0.000 OA
BRANCH  22  25
ATOM     25  C   UNL     1       2.619  14.958  19.562  0.00  0.00    +0.000 C 
ATOM     26  C   UNL     1       3.227  14.369  20.841  0.00  0.00    +0.000 C 
ATOM     27  C   UNL     1       3.663  14.888  18.423  0.00  0.00    +0.000 C 
ATOM     28  C   UNL     1       2.257  16.429  19.792  0.00  0.00    +0.000 C 
ENDBRANCH  22  25
ENDBRANCH   9  22
BRANCH   1  30
ATOM     29  C   UNL     1      -0.096  15.436  22.944  0.00  0.00    +0.000 C 
ATOM     30  O   UNL     1      -0.230  14.935  21.613  0.00  0.00    +0.000 OA
ENDBRANCH   1  30
TORSDOF 5
ENDMDL
MODEL 4
REMARK VINA RESULT:      -6.8      6.672      9.329
REMARK  Name = 
REMARK  9 active torsions:
REMARK  status: ('A' for Active; 'I' for Inactive)
REMARK    1  A    between atoms: C_1  and  O_2
REMARK    2  A    between atoms: O_2  and  C_3
REMARK    3  A    between atoms: C_8  and  C_9
REMARK    4  A    between atoms: C_12  and  C_13
REMARK    5  A    between atoms: C_21  and  S_22
REMARK    6  A    between atoms: S_22  and  C_25
REMARK    7  A    between atoms: C_25  and  C_26
REMARK    8  A    between atoms: C_25  and  C_27
REMARK    9  A    between atoms: C_25  and  C_28
REMARK                            x       y       z     vdW  Elec       q    Type
REMARK                         _______ _______ _______ _____ _____    ______ ____
ROOT
ATOM      1  C   UNL     1       9.920  15.516  18.171  0.00  0.00    +0.000 A 
ATOM      2  C   UNL     1       9.322  16.729  18.220  0.00  0.00    +0.000 A 
ATOM      3  C   UNL     1       7.987  16.859  18.678  0.00  0.00    +0.000 A 
ATOM      4  N   UNL     1       7.282  17.939  18.922  0.00  0.00    +0.000 NA
ATOM      5  C   UNL     1       6.084  17.482  19.384  0.00  0.00    +0.000 A 
ATOM      6  C   UNL     1       6.026  16.097  19.406  0.00  0.00    +0.000 A 
ATOM      7  N   UNL     1       7.299  15.698  19.013  0.00  0.00    +0.000 N 
ATOM      8  C   UNL     1       7.878  14.433  18.902  0.00  0.00    +0.000 A 
ATOM      9  C   UNL     1       9.147  14.304  18.457  0.00  0.00    +0.000 A 
ENDROOT
BRANCH   6  10
ATOM     10  C   UNL     1       4.893  15.235  19.745  0.00  0.00    +0.000 A 
ATOM     11  C   UNL     1       4.534  15.040  21.084  0.00  0.00    +0.000 A 
ATOM     12  C   UNL     1       3.407  14.281  21.416  0.00  0.00    +0.000 A 
ATOM     13  C   UNL     1       2.616  13.690  20.416  0.00  0.00    +0.000 A 
ATOM     14  C   UNL     1       2.989  13.857  19.079  0.00  0.00    +0.000 A 
ATOM     15 CL   UNL     1       2.178  13.107  17.747  0.00  0.00    +0.000 Cl
ATOM     16  C   UNL     1       4.098  14.648  18.753  0.00  0.00    +0.000 A 
BRANCH  13  17
ATOM     17  C   UNL     1       1.419  12.944  20.881  0.00  0.00    +0.000 C 
ATOM     18  N   UNL     1       0.236  13.614  20.973  0.00  0.00    +0.000 N 
ATOM     19  O   UNL     1       1.502  11.769  21.223  0.00  0.00    +0.000 OA
ATOM     20  H   UNL     1       0.106  14.555  20.621  0.00  0.00    +0.000 HD
ATOM     21  H   UNL     1      -0.576  13.086  21.253  0.00  0.00    +0.000 HD
ENDBRANCH  13  17
ENDBRANCH   6  10
BRANCH   9  22
ATOM     22  S   UNL     1       9.680  12.679  18.020  0.00  0.00    +0.000 S 
ATOM     23  O   UNL     1       8.486  11.885  17.774  0.00  0.00    +0.000 OA
ATOM     24  O   UNL     1      10.682  12.742  16.969  0.00  0.00    +0.000 OA
BRANCH  22  25
ATOM     25  C   UNL     1      10.473  11.981  19.513  0.00  0.00    +0.000 C 
ATOM     26  C   UNL     1      10.430  12.978  20.678  0.00  0.00    +0.000 C 
ATOM     27  C   UNL     1       9.685  10.709  19.902  0.00  0.00    +0.000 C 
ATOM     28  C   UNL     1      11.924  11.579  19.231  0.00  0.00    +0.000 C 
ENDBRANCH  22  25
ENDBRANCH   9  22
BRANCH   1  30
ATOM     29  C   UNL     1      12.133  16.137  18.754  0.00  0.00    +0.000 C 
ATOM     30  O   UNL     1      11.266  15.323  17.961  0.00  0.00    +0.000 OA
ENDBRANCH   1  30
TORSDOF 5
ENDMDL
MODEL 5
REMARK VINA RESULT:      -6.8      3.575      8.259
REMARK  Name = 
REMARK  9 active torsions:
REMARK  status: ('A' for Active; 'I' for Inactive)
REMARK    1  A    between atoms: C_1  and  O_2
REMARK    2  A    between atoms: O_2  and  C_3
REMARK    3  A    between atoms: C_8  and  C_9
REMARK    4  A    between atoms: C_12  and  C_13
REMARK    5  A    between atoms: C_21  and  S_22
REMARK    6  A    between atoms: S_22  and  C_25
REMARK    7  A    between atoms: C_25  and  C_26
REMARK    8  A    between atoms: C_25  and  C_27
REMARK    9  A    between atoms: C_25  and  C_28
REMARK                            x       y       z     vdW  Elec       q    Type
REMARK                         _______ _______ _______ _____ _____    ______ ____
ROOT
ATOM      1  C   UNL     1      -0.077  13.619  21.477  0.00  0.00    +0.000 A 
ATOM      2  C   UNL     1      -0.733  12.750  22.281  0.00  0.00    +0.000 A 
ATOM      3  C   UNL     1      -0.489  11.357  22.191  0.00  0.00    +0.000 A 
ATOM      4  N   UNL     1      -0.915  10.376  22.953  0.00  0.00    +0.000 NA
ATOM      5  C   UNL     1      -0.338   9.254  22.439  0.00  0.00    +0.000 A 
ATOM      6  C   UNL     1       0.439   9.528  21.324  0.00  0.00    +0.000 A 
ATOM      7  N   UNL     1       0.394  10.914  21.212  0.00  0.00    +0.000 N 
ATOM      8  C   UNL     1       1.026  11.790  20.329  0.00  0.00    +0.000 A 
ATOM      9  C   UNL     1       0.789  13.118  20.405  0.00  0.00    +0.000 A 
ENDROOT
BRANCH   6  10
ATOM     10  C   UNL     1       1.139   8.591  20.445  0.00  0.00    +0.000 A 
ATOM     11  C   UNL     1       1.513   8.983  19.154  0.00  0.00    +0.000 A 
ATOM     12  C   UNL     1       2.251   8.122  18.335  0.00  0.00    +0.000 A 
ATOM     13  C   UNL     1       2.624   6.843  18.783  0.00  0.00    +0.000 A 
ATOM     14  C   UNL     1       2.226   6.437  20.060  0.00  0.00    +0.000 A 
ATOM     15 CL   UNL     1       2.519   4.860  20.709  0.00  0.00    +0.000 Cl
ATOM     16  C   UNL     1       1.519   7.318  20.888  0.00  0.00    +0.000 A 
BRANCH  13  17
ATOM     17  C   UNL     1       3.443   6.033  17.846  0.00  0.00    +0.000 C 
ATOM     18  N   UNL     1       4.571   6.593  17.324  0.00  0.00    +0.000 N 
ATOM     19  O   UNL     1       3.088   4.908  17.509  0.00  0.00    +0.000 OA
ATOM     20  H   UNL     1       4.943   7.480  17.639  0.00  0.00    +0.000 HD
ATOM     21  H   UNL     1       5.137   6.017  16.720  0.00  0.00    +0.000 HD
ENDBRANCH  13  17
ENDBRANCH   6  10
BRANCH   9  22
ATOM     22  S   UNL     1       1.345  14.109  19.053  0.00  0.00    +0.000 S 
ATOM     23  O   UNL     1       1.794  13.200  18.010  0.00  0.00    +0.000 OA
ATOM     24  O   UNL     1       0.340  15.098  18.707  0.00  0.00    +0.000 OA
BRANCH  22  25
ATOM     25  C   UNL     1       2.830  14.997  19.647  0.00  0.00    +0.000 C 
ATOM     26  C   UNL     1       2.495  16.448  20.015  0.00  0.00    +0.000 C 
ATOM     27  C   UNL     1       3.338  14.256  20.905  0.00  0.00    +0.000 C 
ATOM     28  C   UNL     1       3.943  14.975  18.594  0.00  0.00    +0.000 C 
ENDBRANCH  22  25
ENDBRANCH   9  22
BRANCH   1  30
ATOM     29  C   UNL     1      -0.170  15.435  22.998  0.00  0.00    +0.000 C 
ATOM     30  O   UNL     1      -0.078  14.985  21.646  0.00  0.00    +0.000 OA
ENDBRANCH   1  30
TORSDOF 5
ENDMDL
MODEL 6
REMARK VINA RESULT:      -6.8      1.467      1.800
REMARK  Name = 
REMARK  9 active torsions:
REMARK  status: ('A' for Active; 'I' for Inactive)
REMARK    1  A    between atoms: C_1  and  O_2
REMARK    2  A    between atoms: O_2  and  C_3
REMARK    3  A    between atoms: C_8  and  C_9
REMARK    4  A    between atoms: C_12  and  C_13
REMARK    5  A    between atoms: C_21  and  S_22
REMARK    6  A    between atoms: S_22  and  C_25
REMARK    7  A    between atoms: C_25  and  C_26
REMARK    8  A    between atoms: C_25  and  C_27
REMARK    9  A    between atoms: C_25  and  C_28
REMARK                            x       y       z     vdW  Elec       q    Type
REMARK                         _______ _______ _______ _____ _____    ______ ____
ROOT
ATOM      1  C   UNL     1       4.418   3.757  19.328  0.00  0.00    +0.000 A 
ATOM      2  C   UNL     1       3.398   3.698  20.215  0.00  0.00    +0.000 A 
ATOM      3  C   UNL     1       2.526   4.802  20.388  0.00  0.00    +0.000 A 
ATOM      4  N   UNL     1       1.420   4.900  21.088  0.00  0.00    +0.000 NA
ATOM      5  C   UNL     1       0.969   6.165  20.860  0.00  0.00    +0.000 A 
ATOM      6  C   UNL     1       1.816   6.881  20.028  0.00  0.00    +0.000 A 
ATOM      7  N   UNL     1       2.793   5.960  19.665  0.00  0.00    +0.000 N 
ATOM      8  C   UNL     1       3.881   6.061  18.798  0.00  0.00    +0.000 A 
ATOM      9  C   UNL     1       4.721   5.014  18.637  0.00  0.00    +0.000 A 
ENDROOT
BRANCH   6  10
ATOM     10  C   UNL     1       1.729   8.285  19.625  0.00  0.00    +0.000 A 
ATOM     11  C   UNL     1       2.122   8.673  18.339  0.00  0.00    +0.000 A 
ATOM     12  C   UNL     1       1.971   9.998  17.918  0.00  0.00    +0.000 A 
ATOM     13  C   UNL     1       1.431  10.971  18.776  0.00  0.00    +0.000 A 
ATOM     14  C   UNL     1       1.066  10.593  20.072  0.00  0.00    +0.000 A 
ATOM     15 CL   UNL     1       0.487  11.695  21.274  0.00  0.00    +0.000 Cl
ATOM     16  C   UNL     1       1.186   9.257  20.475  0.00  0.00    +0.000 A 
BRANCH  13  17
ATOM     17  C   UNL     1       1.276  12.335  18.209  0.00  0.00    +0.000 C 
ATOM     18  N   UNL     1       2.355  12.908  17.605  0.00  0.00    +0.000 N 
ATOM     19  O   UNL     1       0.222  12.950  18.325  0.00  0.00    +0.000 OA
ATOM     20  H   UNL     1       3.213  12.406  17.413  0.00  0.00    +0.000 HD
ATOM     21  H   UNL     1       2.224  13.819  17.191  0.00  0.00    +0.000 HD
ENDBRANCH  13  17
ENDBRANCH   6  10
BRANCH   9  22
ATOM     22  S   UNL     1       6.246   5.332  17.806  0.00  0.00    +0.000 S 
ATOM     23  O   UNL     1       6.551   6.742  17.991  0.00  0.00    +0.000 OA
ATOM     24  O   UNL     1       7.249   4.361  18.206  0.00  0.00    +0.000 OA
BRANCH  22  25
ATOM     25  C   UNL     1       5.914   5.098  16.023  0.00  0.00    +0.000 C 
ATOM     26  C   UNL     1       4.953   3.926  15.788  0.00  0.00    +0.000 C 
ATOM     27  C   UNL     1       5.267   6.401  15.500  0.00  0.00    +0.000 C 
ATOM     28  C   UNL     1       7.215   4.863  15.246  0.00  0.00    +0.000 C 
ENDBRANCH  22  25
ENDBRANCH   9  22
BRANCH   1  30
ATOM     29  C   UNL     1       4.454   1.435  18.849  0.00  0.00    +0.000 C 
ATOM     30  O   UNL     1       5.165   2.671  18.932  0.00  0.00    +0.000 OA
ENDBRANCH   1  30
TORSDOF 5
ENDMDL
MODEL 7
REMARK VINA RESULT:      -6.6      3.649      8.785
REMARK  Name = 
REMARK  9 active torsions:
REMARK  status: ('A' for Active; 'I' for Inactive)
REMARK    1  A    between atoms: C_1  and  O_2
REMARK    2  A    between atoms: O_2  and  C_3
REMARK    3  A    between atoms: C_8  and  C_9
REMARK    4  A    between atoms: C_12  and  C_13
REMARK    5  A    between atoms: C_21  and  S_22
REMARK    6  A    between atoms: S_22  and  C_25
REMARK    7  A    between atoms: C_25  and  C_26
REMARK    8  A    between atoms: C_25  and  C_27
REMARK    9  A    between atoms: C_25  and  C_28
REMARK                            x       y       z     vdW  Elec       q    Type
REMARK                         _______ _______ _______ _____ _____    ______ ____
ROOT
ATOM      1  C   UNL     1       0.287  14.721  19.754  0.00  0.00    +0.000 A 
ATOM      2  C   UNL     1      -0.601  14.187  18.883  0.00  0.00    +0.000 A 
ATOM      3  C   UNL     1      -0.629  12.791  18.645  0.00  0.00    +0.000 A 
ATOM      4  N   UNL     1      -1.481  12.071  17.952  0.00  0.00    +0.000 NA
ATOM      5  C   UNL     1      -1.057  10.784  18.098  0.00  0.00    +0.000 A 
ATOM      6  C   UNL     1       0.090  10.695  18.870  0.00  0.00    +0.000 A 
ATOM      7  N   UNL     1       0.323  12.003  19.284  0.00  0.00    +0.000 N 
ATOM      8  C   UNL     1       1.289  12.546  20.132  0.00  0.00    +0.000 A 
ATOM      9  C   UNL     1       1.326  13.878  20.354  0.00  0.00    +0.000 A 
ENDROOT
BRANCH   6  10
ATOM     10  C   UNL     1       0.896   9.513  19.178  0.00  0.00    +0.000 A 
ATOM     11  C   UNL     1       0.789   8.896  20.429  0.00  0.00    +0.000 A 
ATOM     12  C   UNL     1       1.496   7.721  20.706  0.00  0.00    +0.000 A 
ATOM     13  C   UNL     1       2.335   7.139  19.740  0.00  0.00    +0.000 A 
ATOM     14  C   UNL     1       2.467   7.769  18.499  0.00  0.00    +0.000 A 
ATOM     15 CL   UNL     1       3.538   7.233  17.250  0.00  0.00    +0.000 Cl
ATOM     16  C   UNL     1       1.728   8.926  18.217  0.00  0.00    +0.000 A 
BRANCH  13  17
ATOM     17  C   UNL     1       3.001   5.870  20.128  0.00  0.00    +0.000 C 
ATOM     18  N   UNL     1       2.409   5.095  21.079  0.00  0.00    +0.000 N 
ATOM     19  O   UNL     1       4.081   5.551  19.643  0.00  0.00    +0.000 OA
ATOM     20  H   UNL     1       1.480   5.277  21.441  0.00  0.00    +0.000 HD
ATOM     21  H   UNL     1       2.852   4.218  21.305  0.00  0.00    +0.000 HD
ENDBRANCH  13  17
ENDBRANCH   6  10
BRANCH   9  22
ATOM     22  S   UNL     1       2.768  14.518  21.146  0.00  0.00    +0.000 S 
ATOM     23  O   UNL     1       2.333  15.576  22.044  0.00  0.00    +0.000 OA
ATOM     24  O   UNL     1       3.559  13.435  21.704  0.00  0.00    +0.000 OA
BRANCH  22  25
ATOM     25  C   UNL     1       3.758  15.321  19.834  0.00  0.00    +0.000 C 
ATOM     26  C   UNL     1       3.437  16.818  19.738  0.00  0.00    +0.000 C 
ATOM     27  C   UNL     1       5.248  15.142  20.206  0.00  0.00    +0.000 C 
ATOM     28  C   UNL     1       3.520  14.653  18.475  0.00  0.00    +0.000 C 
ENDBRANCH  22  25
ENDBRANCH   9  22
BRANCH   1  30
ATOM     29  C   UNL     1      -0.958  16.733  19.905  0.00  0.00    +0.000 C 
ATOM     30  O   UNL     1       0.238  16.017  20.215  0.00  0.00    +0.000 OA
ENDBRANCH   1  30
TORSDOF 5
ENDMDL
MODEL 8
REMARK VINA RESULT:      -6.6      3.264      7.160
REMARK  Name = 
REMARK  9 active torsions:
REMARK  status: ('A' for Active; 'I' for Inactive)
REMARK    1  A    between atoms: C_1  and  O_2
REMARK    2  A    between atoms: O_2  and  C_3
REMARK    3  A    between atoms: C_8  and  C_9
REMARK    4  A    between atoms: C_12  and  C_13
REMARK    5  A    between atoms: C_21  and  S_22
REMARK    6  A    between atoms: S_22  and  C_25
REMARK    7  A    between atoms: C_25  and  C_26
REMARK    8  A    between atoms: C_25  and  C_27
REMARK    9  A    between atoms: C_25  and  C_28
REMARK                            x       y       z     vdW  Elec       q    Type
REMARK                         _______ _______ _______ _____ _____    ______ ____
ROOT
ATOM      1  C   UNL     1       0.600   8.320  20.594  0.00  0.00    +0.000 A 
ATOM      2  C   UNL     1       0.705   7.107  21.185  0.00  0.00    +0.000 A 
ATOM      3  C   UNL     1       1.670   6.169  20.742  0.00  0.00    +0.000 A 
ATOM      4  N   UNL     1       2.016   5.011  21.255  0.00  0.00    +0.000 NA
ATOM      5  C   UNL     1       3.021   4.556  20.455  0.00  0.00    +0.000 A 
ATOM      6  C   UNL     1       3.293   5.426  19.411  0.00  0.00    +0.000 A 
ATOM      7  N   UNL     1       2.456   6.512  19.647  0.00  0.00    +0.000 N 
ATOM      8  C   UNL     1       2.313   7.731  18.983  0.00  0.00    +0.000 A 
ATOM      9  C   UNL     1       1.387   8.624  19.395  0.00  0.00    +0.000 A 
ENDROOT
BRANCH   6  10
ATOM     10  C   UNL     1       4.228   5.255  18.298  0.00  0.00    +0.000 A 
ATOM     11  C   UNL     1       3.980   4.292  17.313  0.00  0.00    +0.000 A 
ATOM     12  C   UNL     1       4.825   4.172  16.206  0.00  0.00    +0.000 A 
ATOM     13  C   UNL     1       5.945   5.009  16.059  0.00  0.00    +0.000 A 
ATOM     14  C   UNL     1       6.213   5.953  17.056  0.00  0.00    +0.000 A 
ATOM     15 CL   UNL     1       7.606   6.978  17.069  0.00  0.00    +0.000 Cl
ATOM     16  C   UNL     1       5.342   6.090  18.144  0.00  0.00    +0.000 A 
BRANCH  13  17
ATOM     17  C   UNL     1       6.747   4.823  14.823  0.00  0.00    +0.000 C 
ATOM     18  N   UNL     1       6.434   3.782  14.002  0.00  0.00    +0.000 N 
ATOM     19  O   UNL     1       7.697   5.556  14.571  0.00  0.00    +0.000 OA
ATOM     20  H   UNL     1       5.609   3.208  14.127  0.00  0.00    +0.000 HD
ATOM     21  H   UNL     1       6.962   3.690  13.147  0.00  0.00    +0.000 HD
ENDBRANCH  13  17
ENDBRANCH   6  10
BRANCH   9  22
ATOM     22  S   UNL     1       1.034   9.970  18.309  0.00  0.00    +0.000 S 
ATOM     23  O   UNL     1       2.057   9.967  17.274  0.00  0.00    +0.000 OA
ATOM     24  O   UNL     1      -0.356   9.929  17.891  0.00  0.00    +0.000 OA
BRANCH  22  25
ATOM     25  C   UNL     1       1.285  11.496  19.286  0.00  0.00    +0.000 C 
ATOM     26  C   UNL     1       1.966  11.188  20.625  0.00  0.00    +0.000 C 
ATOM     27  C   UNL     1       2.194  12.431  18.455  0.00  0.00    +0.000 C 
ATOM     28  C   UNL     1      -0.045  12.216  19.535  0.00  0.00    +0.000 C 
ENDBRANCH  22  25
ENDBRANCH   9  22
BRANCH   1  30
ATOM     29  C   UNL     1      -0.426   9.299  22.494  0.00  0.00    +0.000 C 
ATOM     30  O   UNL     1      -0.141   9.366  21.096  0.00  0.00    +0.000 OA
ENDBRANCH   1  30
TORSDOF 5
ENDMDL
MODEL 9
REMARK VINA RESULT:      -6.5      3.479      8.275
REMARK  Name = 
REMARK  9 active torsions:
REMARK  status: ('A' for Active; 'I' for Inactive)
REMARK    1  A    between atoms: C_1  and  O_2
REMARK    2  A    between atoms: O_2  and  C_3
REMARK    3  A    between atoms: C_8  and  C_9
REMARK    4  A    between atoms: C_12  and  C_13
REMARK    5  A    between atoms: C_21  and  S_22
REMARK    6  A    between atoms: S_22  and  C_25
REMARK    7  A    between atoms: C_25  and  C_26
REMARK    8  A    between atoms: C_25  and  C_27
REMARK    9  A    between atoms: C_25  and  C_28
REMARK                            x       y       z     vdW  Elec       q    Type
REMARK                         _______ _______ _______ _____ _____    ______ ____
ROOT
ATOM      1  C   UNL     1      -0.192  13.530  21.563  0.00  0.00    +0.000 A 
ATOM      2  C   UNL     1      -0.804  12.721  22.459  0.00  0.00    +0.000 A 
ATOM      3  C   UNL     1      -0.536  11.329  22.476  0.00  0.00    +0.000 A 
ATOM      4  N   UNL     1      -0.917  10.409  23.331  0.00  0.00    +0.000 NA
ATOM      5  C   UNL     1      -0.336   9.257  22.892  0.00  0.00    +0.000 A 
ATOM      6  C   UNL     1       0.398   9.450  21.732  0.00  0.00    +0.000 A 
ATOM      7  N   UNL     1       0.322  10.821  21.507  0.00  0.00    +0.000 N 
ATOM      8  C   UNL     1       0.907  11.631  20.533  0.00  0.00    +0.000 A 
ATOM      9  C   UNL     1       0.646  12.956  20.506  0.00  0.00    +0.000 A 
ENDROOT
BRANCH   6  10
ATOM     10  C   UNL     1       1.086   8.454  20.910  0.00  0.00    +0.000 A 
ATOM     11  C   UNL     1       1.191   7.130  21.350  0.00  0.00    +0.000 A 
ATOM     12  C   UNL     1       1.778   6.154  20.538  0.00  0.00    +0.000 A 
ATOM     13  C   UNL     1       2.284   6.481  19.268  0.00  0.00    +0.000 A 
ATOM     14  C   UNL     1       2.208   7.810  18.837  0.00  0.00    +0.000 A 
ATOM     15 CL   UNL     1       2.878   8.384  17.349  0.00  0.00    +0.000 Cl
ATOM     16  C   UNL     1       1.586   8.774  19.641  0.00  0.00    +0.000 A 
BRANCH  13  17
ATOM     17  C   UNL     1       2.845   5.358  18.475  0.00  0.00    +0.000 C 
ATOM     18  N   UNL     1       1.984   4.429  17.973  0.00  0.00    +0.000 N 
ATOM     19  O   UNL     1       4.055   5.240  18.318  0.00  0.00    +0.000 OA
ATOM     20  H   UNL     1       0.977   4.534  18.006  0.00  0.00    +0.000 HD
ATOM     21  H   UNL     1       2.375   3.693  17.405  0.00  0.00    +0.000 HD
ENDBRANCH  13  17
ENDBRANCH   6  10
BRANCH   9  22
ATOM     22  S   UNL     1       1.136  13.839  19.058  0.00  0.00    +0.000 S 
ATOM     23  O   UNL     1       1.600  12.856  18.091  0.00  0.00    +0.000 OA
ATOM     24  O   UNL     1       0.087  14.755  18.647  0.00  0.00    +0.000 OA
BRANCH  22  25
ATOM     25  C   UNL     1       2.597  14.832  19.534  0.00  0.00    +0.000 C 
ATOM     26  C   UNL     1       3.191  14.339  20.860  0.00  0.00    +0.000 C 
ATOM     27  C   UNL     1       3.649  14.671  18.413  0.00  0.00    +0.000 C 
ATOM     28  C   UNL     1       2.240  16.318  19.649  0.00  0.00    +0.000 C 
ENDBRANCH  22  25
ENDBRANCH   9  22
BRANCH   1  30
ATOM     29  C   UNL     1      -0.617  15.462  22.870  0.00  0.00    +0.000 C 
ATOM     30  O   UNL     1      -0.215  14.905  21.618  0.00  0.00    +0.000 OA
ENDBRANCH   1  30
TORSDOF 5
ENDMDL
