MODEL 1
REMARK VINA RESULT:      -8.0      0.000      0.000
REMARK  Name = 
REMARK  8 active torsions:
REMARK  status: ('A' for Active; 'I' for Inactive)
REMARK    1  A    between atoms: C_1  and  C_2
REMARK    2  A    between atoms: C_2  and  C_3
REMARK    3  A    between atoms: C_3  and  C_4
REMARK    4  A    between atoms: C_4  and  C_5
REMARK    5  A    between atoms: C_5  and  N_6
REMARK    6  A    between atoms: C_8  and  C_9
REMARK    7  A    between atoms: N_11  and  C_12
REMARK    8  A    between atoms: C_23  and  C_24
REMARK                            x       y       z     vdW  Elec       q    Type
REMARK                         _______ _______ _______ _____ _____    ______ ____
ROOT
ATOM      1  N   UNL     1       1.904   6.175  20.315  0.00  0.00    +0.000 N 
ATOM      2  C   UNL     1       1.312   7.342  20.793  0.00  0.00    +0.000 A 
ATOM      3  C   UNL     1       1.330   8.533  20.162  0.00  0.00    +0.000 A 
ATOM      4  C   UNL     1       2.032   8.608  18.850  0.00  0.00    +0.000 A 
ATOM      5  O   UNL     1       2.064   9.607  18.141  0.00  0.00    +0.000 OA
ATOM      6  N   UNL     1       2.709   7.438  18.496  0.00  0.00    +0.000 N 
ATOM      7  N   UNL     1       3.544   7.338  17.432  0.00  0.00    +0.000 NA
ATOM      8  C   UNL     1       4.017   6.087  17.567  0.00  0.00    +0.000 A 
ATOM      9  N   UNL     1       3.477   5.388  18.629  0.00  0.00    +0.000 NA
ATOM     10  C   UNL     1       2.678   6.253  19.196  0.00  0.00    +0.000 A 
ENDROOT
BRANCH   8  11
ATOM     11  C   UNL     1       5.040   5.499  16.710  0.00  0.00    +0.000 A 
ATOM     12  C   UNL     1       4.825   4.260  16.075  0.00  0.00    +0.000 A 
ATOM     13  C   UNL     1       5.800   3.708  15.235  0.00  0.00    +0.000 A 
ATOM     14  C   UNL     1       6.998   4.384  15.022  0.00  0.00    +0.000 A 
ATOM     15  C   UNL     1       7.228   5.606  15.650  0.00  0.00    +0.000 A 
ATOM     16  C   UNL     1       6.254   6.158  16.488  0.00  0.00    +0.000 A 
ENDBRANCH   8  11
BRANCH   3  17
ATOM     17  C   UNL     1       0.720   9.714  20.844  0.00  0.00    +0.000 C 
ATOM     18  O   UNL     1       0.114   9.597  21.904  0.00  0.00    +0.000 OA
ATOM     19  N   UNL     1       0.916  10.919  20.218  0.00  0.00    +0.000 N 
ATOM     20  H   UNL     1       1.500  10.932  19.380  0.00  0.00    +0.000 HD
BRANCH  19  21
ATOM     21  C   UNL     1       0.591  12.216  20.820  0.00  0.00    +0.000 C 
ATOM     22  C   UNL     1       1.784  13.176  20.715  0.00  0.00    +0.000 C 
ATOM     23  C   UNL     1       2.103  13.587  19.277  0.00  0.00    +0.000 C 
ATOM     24  C   UNL     1       1.395  14.869  18.855  0.00  0.00    +0.000 C 
ATOM     25  C   UNL     1      -0.129  14.793  18.792  0.00  0.00    +0.000 C 
ATOM     26  C   UNL     1      -0.838  14.261  20.039  0.00  0.00    +0.000 C 
ATOM     27  C   UNL     1      -0.719  12.744  20.208  0.00  0.00    +0.000 C 
ENDBRANCH  19  21
ENDBRANCH   3  17
BRANCH   1  28
ATOM     28  C   UNL     1       1.984   4.934  21.102  0.00  0.00    +0.000 C 
BRANCH  28  29
ATOM     29  C   UNL     1       1.037   3.857  20.564  0.00  0.00    +0.000 C 
BRANCH  29  30
ATOM     30  C   UNL     1       1.790   2.547  20.331  0.00  0.00    +0.000 C 
BRANCH  30  32
ATOM     31  C   UNL     1       3.137   1.826  18.337  0.00  0.00    +0.000 C 
ATOM     32  C   UNL     1       1.742   2.120  18.865  0.00  0.00    +0.000 C 
ENDBRANCH  30  32
ENDBRANCH  29  30
ENDBRANCH  28  29
ENDBRANCH   1  28
TORSDOF 7
ENDMDL
MODEL 2
REMARK VINA RESULT:      -7.9      3.080      9.660
REMARK  Name = 
REMARK  8 active torsions:
REMARK  status: ('A' for Active; 'I' for Inactive)
REMARK    1  A    between atoms: C_1  and  C_2
REMARK    2  A    between atoms: C_2  and  C_3
REMARK    3  A    between atoms: C_3  and  C_4
REMARK    4  A    between atoms: C_4  and  C_5
REMARK    5  A    between atoms: C_5  and  N_6
REMARK    6  A    between atoms: C_8  and  C_9
REMARK    7  A    between atoms: N_11  and  C_12
REMARK    8  A    between atoms: C_23  and  C_24
REMARK                            x       y       z     vdW  Elec       q    Type
REMARK                         _______ _______ _______ _____ _____    ______ ____
ROOT
ATOM      1  N   UNL     1      -0.882  10.927  18.869  0.00  0.00    +0.000 N 
ATOM      2  C   UNL     1       0.108  10.009  18.527  0.00  0.00    +0.000 A 
ATOM      3  C   UNL     1       0.843   9.300  19.407  0.00  0.00    +0.000 A 
ATOM      4  C   UNL     1       0.572   9.507  20.857  0.00  0.00    +0.000 A 
ATOM      5  O   UNL     1       1.116   8.879  21.758  0.00  0.00    +0.000 OA
ATOM      6  N   UNL     1      -0.339  10.532  21.128  0.00  0.00    +0.000 N 
ATOM      7  N   UNL     1      -0.606  11.000  22.373  0.00  0.00    +0.000 NA
ATOM      8  C   UNL     1      -1.442  12.019  22.112  0.00  0.00    +0.000 A 
ATOM      9  N   UNL     1      -1.750  12.173  20.775  0.00  0.00    +0.000 NA
ATOM     10  C   UNL     1      -1.043  11.246  20.184  0.00  0.00    +0.000 A 
ENDROOT
BRANCH   8  11
ATOM     11  C   UNL     1      -1.967  12.929  23.124  0.00  0.00    +0.000 A 
ATOM     12  C   UNL     1      -1.202  14.021  23.579  0.00  0.00    +0.000 A 
ATOM     13  C   UNL     1      -1.717  14.907  24.534  0.00  0.00    +0.000 A 
ATOM     14  C   UNL     1      -2.996  14.710  25.047  0.00  0.00    +0.000 A 
ATOM     15  C   UNL     1      -3.761  13.630  24.611  0.00  0.00    +0.000 A 
ATOM     16  C   UNL     1      -3.248  12.747  23.657  0.00  0.00    +0.000 A 
ENDBRANCH   8  11
BRANCH   3  17
ATOM     17  C   UNL     1       1.927   8.414  18.886  0.00  0.00    +0.000 C 
ATOM     18  O   UNL     1       2.735   8.816  18.054  0.00  0.00    +0.000 OA
ATOM     19  N   UNL     1       1.964   7.153  19.424  0.00  0.00    +0.000 N 
ATOM     20  H   UNL     1       1.300   6.931  20.168  0.00  0.00    +0.000 HD
BRANCH  19  21
ATOM     21  C   UNL     1       3.065   6.206  19.213  0.00  0.00    +0.000 C 
ATOM     22  C   UNL     1       2.948   5.018  20.179  0.00  0.00    +0.000 C 
ATOM     23  C   UNL     1       1.735   4.131  19.900  0.00  0.00    +0.000 C 
ATOM     24  C   UNL     1       2.049   2.974  18.959  0.00  0.00    +0.000 C 
ATOM     25  C   UNL     1       2.440   3.365  17.536  0.00  0.00    +0.000 C 
ATOM     26  C   UNL     1       3.564   4.395  17.397  0.00  0.00    +0.000 C 
ATOM     27  C   UNL     1       3.126   5.824  17.724  0.00  0.00    +0.000 C 
ENDBRANCH  19  21
ENDBRANCH   3  17
BRANCH   1  28
ATOM     28  C   UNL     1      -1.558  11.784  17.882  0.00  0.00    +0.000 C 
BRANCH  28  29
ATOM     29  C   UNL     1      -3.044  11.434  17.749  0.00  0.00    +0.000 C 
BRANCH  29  30
ATOM     30  C   UNL     1      -3.215  10.040  17.143  0.00  0.00    +0.000 C 
BRANCH  30  32
ATOM     31  C   UNL     1      -3.480  10.176  14.649  0.00  0.00    +0.000 C 
ATOM     32  C   UNL     1      -2.511   9.920  15.792  0.00  0.00    +0.000 C 
ENDBRANCH  30  32
ENDBRANCH  29  30
ENDBRANCH  28  29
ENDBRANCH   1  28
TORSDOF 7
ENDMDL
MODEL 3
REMARK VINA RESULT:      -7.9      2.999      9.700
REMARK  Name = 
REMARK  8 active torsions:
REMARK  status: ('A' for Active; 'I' for Inactive)
REMARK    1  A    between atoms: C_1  and  C_2
REMARK    2  A    between atoms: C_2  and  C_3
REMARK    3  A    between atoms: C_3  and  C_4
REMARK    4  A    between atoms: C_4  and  C_5
REMARK    5  A    between atoms: C_5  and  N_6
REMARK    6  A    between atoms: C_8  and  C_9
REMARK    7  A    between atoms: N_11  and  C_12
REMARK    8  A    between atoms: C_23  and  C_24
REMARK                            x       y       z     vdW  Elec       q    Type
REMARK                         _______ _______ _______ _____ _____    ______ ____
ROOT
ATOM      1  N   UNL     1      -0.906  11.107  19.138  0.00  0.00    +0.000 N 
ATOM      2  C   UNL     1       0.012  10.109  18.820  0.00  0.00    +0.000 A 
ATOM      3  C   UNL     1       0.759   9.431  19.714  0.00  0.00    +0.000 A 
ATOM      4  C   UNL     1       0.586   9.769  21.155  0.00  0.00    +0.000 A 
ATOM      5  O   UNL     1       1.148   9.184  22.073  0.00  0.00    +0.000 OA
ATOM      6  N   UNL     1      -0.252  10.862  21.389  0.00  0.00    +0.000 N 
ATOM      7  N   UNL     1      -0.420  11.443  22.603  0.00  0.00    +0.000 NA
ATOM      8  C   UNL     1      -1.214  12.485  22.305  0.00  0.00    +0.000 A 
ATOM      9  N   UNL     1      -1.592  12.549  20.978  0.00  0.00    +0.000 NA
ATOM     10  C   UNL     1      -0.972  11.539  20.429  0.00  0.00    +0.000 A 
ENDROOT
BRANCH   8  11
ATOM     11  C   UNL     1      -1.629  13.502  23.265  0.00  0.00    +0.000 A 
ATOM     12  C   UNL     1      -2.872  13.410  23.922  0.00  0.00    +0.000 A 
ATOM     13  C   UNL     1      -3.260  14.375  24.859  0.00  0.00    +0.000 A 
ATOM     14  C   UNL     1      -2.413  15.442  25.149  0.00  0.00    +0.000 A 
ATOM     15  C   UNL     1      -1.184  15.550  24.501  0.00  0.00    +0.000 A 
ATOM     16  C   UNL     1      -0.797  14.586  23.566  0.00  0.00    +0.000 A 
ENDBRANCH   8  11
BRANCH   3  17
ATOM     17  C   UNL     1       1.761   8.445  19.209  0.00  0.00    +0.000 C 
ATOM     18  O   UNL     1       2.657   8.782  18.442  0.00  0.00    +0.000 OA
ATOM     19  N   UNL     1       1.621   7.168  19.688  0.00  0.00    +0.000 N 
ATOM     20  H   UNL     1       0.894   6.996  20.385  0.00  0.00    +0.000 HD
BRANCH  19  21
ATOM     21  C   UNL     1       2.615   6.106  19.492  0.00  0.00    +0.000 C 
ATOM     22  C   UNL     1       2.505   5.050  20.601  0.00  0.00    +0.000 C 
ATOM     23  C   UNL     1       1.203   4.252  20.548  0.00  0.00    +0.000 C 
ATOM     24  C   UNL     1       1.324   2.972  19.729  0.00  0.00    +0.000 C 
ATOM     25  C   UNL     1       1.595   3.163  18.238  0.00  0.00    +0.000 C 
ATOM     26  C   UNL     1       2.776   4.063  17.870  0.00  0.00    +0.000 C 
ATOM     27  C   UNL     1       2.490   5.555  18.061  0.00  0.00    +0.000 C 
ENDBRANCH  19  21
ENDBRANCH   3  17
BRANCH   1  28
ATOM     28  C   UNL     1      -1.593  11.920  18.122  0.00  0.00    +0.000 C 
BRANCH  28  29
ATOM     29  C   UNL     1      -3.045  11.474  17.923  0.00  0.00    +0.000 C 
BRANCH  29  30
ATOM     30  C   UNL     1      -3.103   9.997  17.528  0.00  0.00    +0.000 C 
BRANCH  30  32
ATOM     31  C   UNL     1      -3.319  10.681  15.121  0.00  0.00    +0.000 C 
ATOM     32  C   UNL     1      -2.598   9.772  16.103  0.00  0.00    +0.000 C 
ENDBRANCH  30  32
ENDBRANCH  29  30
ENDBRANCH  28  29
ENDBRANCH   1  28
TORSDOF 7
ENDMDL
MODEL 4
REMARK VINA RESULT:      -7.8      1.159      1.849
REMARK  Name = 
REMARK  8 active torsions:
REMARK  status: ('A' for Active; 'I' for Inactive)
REMARK    1  A    between atoms: C_1  and  C_2
REMARK    2  A    between atoms: C_2  and  C_3
REMARK    3  A    between atoms: C_3  and  C_4
REMARK    4  A    between atoms: C_4  and  C_5
REMARK    5  A    between atoms: C_5  and  N_6
REMARK    6  A    between atoms: C_8  and  C_9
REMARK    7  A    between atoms: N_11  and  C_12
REMARK    8  A    between atoms: C_23  and  C_24
REMARK                            x       y       z     vdW  Elec       q    Type
REMARK                         _______ _______ _______ _____ _____    ______ ____
ROOT
ATOM      1  N   UNL     1       1.881   6.074  20.452  0.00  0.00    +0.000 N 
ATOM      2  C   UNL     1       1.347   7.217  21.040  0.00  0.00    +0.000 A 
ATOM      3  C   UNL     1       1.396   8.455  20.510  0.00  0.00    +0.000 A 
ATOM      4  C   UNL     1       2.067   8.614  19.189  0.00  0.00    +0.000 A 
ATOM      5  O   UNL     1       2.120   9.667  18.563  0.00  0.00    +0.000 OA
ATOM      6  N   UNL     1       2.688   7.453  18.720  0.00  0.00    +0.000 N 
ATOM      7  N   UNL     1       3.491   7.411  17.628  0.00  0.00    +0.000 NA
ATOM      8  C   UNL     1       3.918   6.137  17.646  0.00  0.00    +0.000 A 
ATOM      9  N   UNL     1       3.378   5.373  18.662  0.00  0.00    +0.000 NA
ATOM     10  C   UNL     1       2.628   6.215  19.321  0.00  0.00    +0.000 A 
ENDROOT
BRANCH   8  11
ATOM     11  C   UNL     1       4.895   5.585  16.715  0.00  0.00    +0.000 A 
ATOM     12  C   UNL     1       4.614   4.414  15.983  0.00  0.00    +0.000 A 
ATOM     13  C   UNL     1       5.545   3.898  15.073  0.00  0.00    +0.000 A 
ATOM     14  C   UNL     1       6.765   4.542  14.886  0.00  0.00    +0.000 A 
ATOM     15  C   UNL     1       7.059   5.697  15.608  0.00  0.00    +0.000 A 
ATOM     16  C   UNL     1       6.130   6.212  16.516  0.00  0.00    +0.000 A 
ENDBRANCH   8  11
BRANCH   3  17
ATOM     17  C   UNL     1       0.851   9.597  21.303  0.00  0.00    +0.000 C 
ATOM     18  O   UNL     1       1.064   9.698  22.508  0.00  0.00    +0.000 OA
ATOM     19  N   UNL     1       0.135  10.522  20.586  0.00  0.00    +0.000 N 
ATOM     20  H   UNL     1       0.075  10.399  19.574  0.00  0.00    +0.000 HD
BRANCH  19  21
ATOM     21  C   UNL     1      -0.301  11.816  21.123  0.00  0.00    +0.000 C 
ATOM     22  C   UNL     1      -0.883  12.696  20.008  0.00  0.00    +0.000 C 
ATOM     23  C   UNL     1      -2.193  12.156  19.435  0.00  0.00    +0.000 C 
ATOM     24  C   UNL     1      -3.424  12.717  20.136  0.00  0.00    +0.000 C 
ATOM     25  C   UNL     1      -3.583  12.332  21.604  0.00  0.00    +0.000 C 
ATOM     26  C   UNL     1      -2.377  12.586  22.511  0.00  0.00    +0.000 C 
ATOM     27  C   UNL     1      -1.243  11.577  22.316  0.00  0.00    +0.000 C 
ENDBRANCH  19  21
ENDBRANCH   3  17
BRANCH   1  28
ATOM     28  C   UNL     1       1.932   4.769  21.132  0.00  0.00    +0.000 C 
BRANCH  28  29
ATOM     29  C   UNL     1       0.937   3.774  20.527  0.00  0.00    +0.000 C 
BRANCH  29  30
ATOM     30  C   UNL     1       1.647   2.476  20.135  0.00  0.00    +0.000 C 
BRANCH  30  32
ATOM     31  C   UNL     1       3.039   1.898  18.126  0.00  0.00    +0.000 C 
ATOM     32  C   UNL     1       1.651   2.269  18.621  0.00  0.00    +0.000 C 
ENDBRANCH  30  32
ENDBRANCH  29  30
ENDBRANCH  28  29
ENDBRANCH   1  28
TORSDOF 7
ENDMDL
MODEL 5
REMARK VINA RESULT:      -7.7      3.918      6.669
REMARK  Name = 
REMARK  8 active torsions:
REMARK  status: ('A' for Active; 'I' for Inactive)
REMARK    1  A    between atoms: C_1  and  C_2
REMARK    2  A    between atoms: C_2  and  C_3
REMARK    3  A    between atoms: C_3  and  C_4
REMARK    4  A    between atoms: C_4  and  C_5
REMARK    5  A    between atoms: C_5  and  N_6
REMARK    6  A    between atoms: C_8  and  C_9
REMARK    7  A    between atoms: N_11  and  C_12
REMARK    8  A    between atoms: C_23  and  C_24
REMARK                            x       y       z     vdW  Elec       q    Type
REMARK                         _______ _______ _______ _____ _____    ______ ____
ROOT
ATOM      1  N   UNL     1      -0.576  11.375  19.591  0.00  0.00    +0.000 N 
ATOM      2  C   UNL     1      -1.339  12.060  20.534  0.00  0.00    +0.000 A 
ATOM      3  C   UNL     1      -1.338  11.813  21.858  0.00  0.00    +0.000 A 
ATOM      4  C   UNL     1      -0.447  10.727  22.356  0.00  0.00    +0.000 A 
ATOM      5  O   UNL     1      -0.297  10.445  23.540  0.00  0.00    +0.000 OA
ATOM      6  N   UNL     1       0.189  10.001  21.345  0.00  0.00    +0.000 N 
ATOM      7  N   UNL     1       0.909   8.872  21.562  0.00  0.00    +0.000 NA
ATOM      8  C   UNL     1       1.221   8.498  20.309  0.00  0.00    +0.000 A 
ATOM      9  N   UNL     1       0.777   9.365  19.331  0.00  0.00    +0.000 NA
ATOM     10  C   UNL     1       0.129  10.282  19.999  0.00  0.00    +0.000 A 
ENDROOT
BRANCH   8  11
ATOM     11  C   UNL     1       1.930   7.269  19.972  0.00  0.00    +0.000 A 
ATOM     12  C   UNL     1       1.784   6.111  20.761  0.00  0.00    +0.000 A 
ATOM     13  C   UNL     1       2.449   4.926  20.424  0.00  0.00    +0.000 A 
ATOM     14  C   UNL     1       3.267   4.884  19.297  0.00  0.00    +0.000 A 
ATOM     15  C   UNL     1       3.426   6.023  18.512  0.00  0.00    +0.000 A 
ATOM     16  C   UNL     1       2.762   7.206  18.848  0.00  0.00    +0.000 A 
ENDBRANCH   8  11
BRANCH   3  17
ATOM     17  C   UNL     1      -2.276  12.579  22.732  0.00  0.00    +0.000 C 
ATOM     18  O   UNL     1      -1.867  13.246  23.678  0.00  0.00    +0.000 OA
ATOM     19  N   UNL     1      -3.599  12.506  22.379  0.00  0.00    +0.000 N 
ATOM     20  H   UNL     1      -3.839  11.991  21.530  0.00  0.00    +0.000 HD
BRANCH  19  21
ATOM     21  C   UNL     1      -4.650  13.344  22.965  0.00  0.00    +0.000 C 
ATOM     22  C   UNL     1      -5.563  13.912  21.869  0.00  0.00    +0.000 C 
ATOM     23  C   UNL     1      -6.396  12.843  21.163  0.00  0.00    +0.000 C 
ATOM     24  C   UNL     1      -7.764  12.636  21.803  0.00  0.00    +0.000 C 
ATOM     25  C   UNL     1      -7.752  12.085  23.227  0.00  0.00    +0.000 C 
ATOM     26  C   UNL     1      -6.873  12.825  24.238  0.00  0.00    +0.000 C 
ATOM     27  C   UNL     1      -5.378  12.550  24.064  0.00  0.00    +0.000 C 
ENDBRANCH  19  21
ENDBRANCH   3  17
BRANCH   1  28
ATOM     28  C   UNL     1      -0.716  11.581  18.140  0.00  0.00    +0.000 C 
BRANCH  28  29
ATOM     29  C   UNL     1      -2.185  11.583  17.706  0.00  0.00    +0.000 C 
BRANCH  29  30
ATOM     30  C   UNL     1      -2.709  10.152  17.578  0.00  0.00    +0.000 C 
BRANCH  30  32
ATOM     31  C   UNL     1      -3.171  10.820  15.202  0.00  0.00    +0.000 C 
ATOM     32  C   UNL     1      -2.742   9.689  16.123  0.00  0.00    +0.000 C 
ENDBRANCH  30  32
ENDBRANCH  29  30
ENDBRANCH  28  29
ENDBRANCH   1  28
TORSDOF 7
ENDMDL
MODEL 6
REMARK VINA RESULT:      -7.7      1.533      2.235
REMARK  Name = 
REMARK  8 active torsions:
REMARK  status: ('A' for Active; 'I' for Inactive)
REMARK    1  A    between atoms: C_1  and  C_2
REMARK    2  A    between atoms: C_2  and  C_3
REMARK    3  A    between atoms: C_3  and  C_4
REMARK    4  A    between atoms: C_4  and  C_5
REMARK    5  A    between atoms: C_5  and  N_6
REMARK    6  A    between atoms: C_8  and  C_9
REMARK    7  A    between atoms: N_11  and  C_12
REMARK    8  A    between atoms: C_23  and  C_24
REMARK                            x       y       z     vdW  Elec       q    Type
REMARK                         _______ _______ _______ _____ _____    ______ ____
ROOT
ATOM      1  N   UNL     1       1.895   6.647  20.168  0.00  0.00    +0.000 N 
ATOM      2  C   UNL     1       1.292   7.847  20.539  0.00  0.00    +0.000 A 
ATOM      3  C   UNL     1       1.341   8.990  19.827  0.00  0.00    +0.000 A 
ATOM      4  C   UNL     1       2.092   8.970  18.540  0.00  0.00    +0.000 A 
ATOM      5  O   UNL     1       2.157   9.916  17.764  0.00  0.00    +0.000 OA
ATOM      6  N   UNL     1       2.775   7.775  18.296  0.00  0.00    +0.000 N 
ATOM      7  N   UNL     1       3.650   7.597  17.274  0.00  0.00    +0.000 NA
ATOM      8  C   UNL     1       4.110   6.358  17.516  0.00  0.00    +0.000 A 
ATOM      9  N   UNL     1       3.526   5.738  18.603  0.00  0.00    +0.000 NA
ATOM     10  C   UNL     1       2.711   6.643  19.077  0.00  0.00    +0.000 A 
ENDROOT
BRANCH   8  11
ATOM     11  C   UNL     1       5.161   5.707  16.743  0.00  0.00    +0.000 A 
ATOM     12  C   UNL     1       6.248   5.082  17.385  0.00  0.00    +0.000 A 
ATOM     13  C   UNL     1       7.246   4.439  16.642  0.00  0.00    +0.000 A 
ATOM     14  C   UNL     1       7.170   4.415  15.251  0.00  0.00    +0.000 A 
ATOM     15  C   UNL     1       6.105   5.036  14.602  0.00  0.00    +0.000 A 
ATOM     16  C   UNL     1       5.109   5.677  15.344  0.00  0.00    +0.000 A 
ENDBRANCH   8  11
BRANCH   3  17
ATOM     17  C   UNL     1       0.713  10.218  20.399  0.00  0.00    +0.000 C 
ATOM     18  O   UNL     1       1.135  10.730  21.431  0.00  0.00    +0.000 OA
ATOM     19  N   UNL     1      -0.331  10.736  19.675  0.00  0.00    +0.000 N 
ATOM     20  H   UNL     1      -0.564  10.289  18.786  0.00  0.00    +0.000 HD
BRANCH  19  21
ATOM     21  C   UNL     1      -0.943  12.043  19.940  0.00  0.00    +0.000 C 
ATOM     22  C   UNL     1      -1.730  12.530  18.715  0.00  0.00    +0.000 C 
ATOM     23  C   UNL     1      -2.964  11.680  18.413  0.00  0.00    +0.000 C 
ATOM     24  C   UNL     1      -4.227  12.207  19.083  0.00  0.00    +0.000 C 
ATOM     25  C   UNL     1      -4.231  12.171  20.609  0.00  0.00    +0.000 C 
ATOM     26  C   UNL     1      -3.031  12.813  21.310  0.00  0.00    +0.000 C 
ATOM     27  C   UNL     1      -1.759  11.965  21.242  0.00  0.00    +0.000 C 
ENDBRANCH  19  21
ENDBRANCH   3  17
BRANCH   1  28
ATOM     28  C   UNL     1       1.938   5.465  21.044  0.00  0.00    +0.000 C 
BRANCH  28  29
ATOM     29  C   UNL     1       0.980   4.369  20.567  0.00  0.00    +0.000 C 
BRANCH  29  30
ATOM     30  C   UNL     1       1.513   2.987  20.946  0.00  0.00    +0.000 C 
BRANCH  30  32
ATOM     31  C   UNL     1       1.286   2.782  18.453  0.00  0.00    +0.000 C 
ATOM     32  C   UNL     1       1.869   2.160  19.712  0.00  0.00    +0.000 C 
ENDBRANCH  30  32
ENDBRANCH  29  30
ENDBRANCH  28  29
ENDBRANCH   1  28
TORSDOF 7
ENDMDL
MODEL 7
REMARK VINA RESULT:      -7.7      3.664      6.453
REMARK  Name = 
REMARK  8 active torsions:
REMARK  status: ('A' for Active; 'I' for Inactive)
REMARK    1  A    between atoms: C_1  and  C_2
REMARK    2  A    between atoms: C_2  and  C_3
REMARK    3  A    between atoms: C_3  and  C_4
REMARK    4  A    between atoms: C_4  and  C_5
REMARK    5  A    between atoms: C_5  and  N_6
REMARK    6  A    between atoms: C_8  and  C_9
REMARK    7  A    between atoms: N_11  and  C_12
REMARK    8  A    between atoms: C_23  and  C_24
REMARK                            x       y       z     vdW  Elec       q    Type
REMARK                         _______ _______ _______ _____ _____    ______ ____
ROOT
ATOM      1  N   UNL     1      -0.032  11.144  19.854  0.00  0.00    +0.000 N 
ATOM      2  C   UNL     1      -0.731  11.869  20.815  0.00  0.00    +0.000 A 
ATOM      3  C   UNL     1      -0.789  11.562  22.127  0.00  0.00    +0.000 A 
ATOM      4  C   UNL     1      -0.042  10.358  22.586  0.00  0.00    +0.000 A 
ATOM      5  O   UNL     1       0.048  10.006  23.757  0.00  0.00    +0.000 OA
ATOM      6  N   UNL     1       0.528   9.609  21.553  0.00  0.00    +0.000 N 
ATOM      7  N   UNL     1       1.107   8.395  21.726  0.00  0.00    +0.000 NA
ATOM      8  C   UNL     1       1.401   8.045  20.462  0.00  0.00    +0.000 A 
ATOM      9  N   UNL     1       1.083   9.003  19.520  0.00  0.00    +0.000 NA
ATOM     10  C   UNL     1       0.532   9.958  20.221  0.00  0.00    +0.000 A 
ENDROOT
BRANCH   8  11
ATOM     11  C   UNL     1       1.970   6.758  20.078  0.00  0.00    +0.000 A 
ATOM     12  C   UNL     1       2.812   6.648  18.954  0.00  0.00    +0.000 A 
ATOM     13  C   UNL     1       3.376   5.416  18.600  0.00  0.00    +0.000 A 
ATOM     14  C   UNL     1       3.102   4.282  19.361  0.00  0.00    +0.000 A 
ATOM     15  C   UNL     1       2.265   4.375  20.470  0.00  0.00    +0.000 A 
ATOM     16  C   UNL     1       1.704   5.605  20.825  0.00  0.00    +0.000 A 
ENDBRANCH   8  11
BRANCH   3  17
ATOM     17  C   UNL     1      -1.651  12.392  23.020  0.00  0.00    +0.000 C 
ATOM     18  O   UNL     1      -1.164  13.180  23.825  0.00  0.00    +0.000 OA
ATOM     19  N   UNL     1      -3.002  12.230  22.849  0.00  0.00    +0.000 N 
ATOM     20  H   UNL     1      -3.317  11.610  22.101  0.00  0.00    +0.000 HD
BRANCH  19  21
ATOM     21  C   UNL     1      -4.015  13.094  23.465  0.00  0.00    +0.000 C 
ATOM     22  C   UNL     1      -4.802  13.856  22.390  0.00  0.00    +0.000 C 
ATOM     23  C   UNL     1      -5.674  12.949  21.522  0.00  0.00    +0.000 C 
ATOM     24  C   UNL     1      -7.093  12.800  22.057  0.00  0.00    +0.000 C 
ATOM     25  C   UNL     1      -7.222  12.101  23.408  0.00  0.00    +0.000 C 
ATOM     26  C   UNL     1      -6.353  12.646  24.544  0.00  0.00    +0.000 C 
ATOM     27  C   UNL     1      -4.878  12.256  24.425  0.00  0.00    +0.000 C 
ENDBRANCH  19  21
ENDBRANCH   3  17
BRANCH   1  28
ATOM     28  C   UNL     1      -0.114  11.431  18.413  0.00  0.00    +0.000 C 
BRANCH  28  29
ATOM     29  C   UNL     1      -1.358  12.256  18.068  0.00  0.00    +0.000 C 
BRANCH  29  30
ATOM     30  C   UNL     1      -2.506  11.342  17.637  0.00  0.00    +0.000 C 
BRANCH  30  32
ATOM     31  C   UNL     1      -2.667   9.705  15.738  0.00  0.00    +0.000 C 
ATOM     32  C   UNL     1      -1.993  10.022  17.063  0.00  0.00    +0.000 C 
ENDBRANCH  30  32
ENDBRANCH  29  30
ENDBRANCH  28  29
ENDBRANCH   1  28
TORSDOF 7
ENDMDL
MODEL 8
REMARK VINA RESULT:      -7.6      1.040      1.137
REMARK  Name = 
REMARK  8 active torsions:
REMARK  status: ('A' for Active; 'I' for Inactive)
REMARK    1  A    between atoms: C_1  and  C_2
REMARK    2  A    between atoms: C_2  and  C_3
REMARK    3  A    between atoms: C_3  and  C_4
REMARK    4  A    between atoms: C_4  and  C_5
REMARK    5  A    between atoms: C_5  and  N_6
REMARK    6  A    between atoms: C_8  and  C_9
REMARK    7  A    between atoms: N_11  and  C_12
REMARK    8  A    between atoms: C_23  and  C_24
REMARK                            x       y       z     vdW  Elec       q    Type
REMARK                         _______ _______ _______ _____ _____    ______ ____
ROOT
ATOM      1  N   UNL     1       2.702   5.512  19.995  0.00  0.00    +0.000 N 
ATOM      2  C   UNL     1       2.055   6.596  20.582  0.00  0.00    +0.000 A 
ATOM      3  C   UNL     1       1.852   7.790  19.990  0.00  0.00    +0.000 A 
ATOM      4  C   UNL     1       2.354   7.963  18.598  0.00  0.00    +0.000 A 
ATOM      5  O   UNL     1       2.176   8.969  17.920  0.00  0.00    +0.000 OA
ATOM      6  N   UNL     1       3.103   6.883  18.121  0.00  0.00    +0.000 N 
ATOM      7  N   UNL     1       3.789   6.894  16.952  0.00  0.00    +0.000 NA
ATOM      8  C   UNL     1       4.414   5.704  16.985  0.00  0.00    +0.000 A 
ATOM      9  N   UNL     1       4.107   4.934  18.089  0.00  0.00    +0.000 NA
ATOM     10  C   UNL     1       3.302   5.693  18.784  0.00  0.00    +0.000 A 
ENDROOT
BRANCH   8  11
ATOM     11  C   UNL     1       5.368   5.250  15.981  0.00  0.00    +0.000 A 
ATOM     12  C   UNL     1       4.950   4.463  14.890  0.00  0.00    +0.000 A 
ATOM     13  C   UNL     1       5.864   4.046  13.915  0.00  0.00    +0.000 A 
ATOM     14  C   UNL     1       7.205   4.406  14.020  0.00  0.00    +0.000 A 
ATOM     15  C   UNL     1       7.635   5.178  15.098  0.00  0.00    +0.000 A 
ATOM     16  C   UNL     1       6.722   5.595  16.070  0.00  0.00    +0.000 A 
ENDBRANCH   8  11
BRANCH   3  17
ATOM     17  C   UNL     1       1.214   8.883  20.781  0.00  0.00    +0.000 C 
ATOM     18  O   UNL     1       1.321   8.934  22.003  0.00  0.00    +0.000 OA
ATOM     19  N   UNL     1       0.540   9.825  20.045  0.00  0.00    +0.000 N 
ATOM     20  H   UNL     1       0.571   9.746  19.027  0.00  0.00    +0.000 HD
BRANCH  19  21
ATOM     21  C   UNL     1       0.029  11.084  20.598  0.00  0.00    +0.000 C 
ATOM     22  C   UNL     1       1.160  12.113  20.736  0.00  0.00    +0.000 C 
ATOM     23  C   UNL     1       1.717  12.582  19.393  0.00  0.00    +0.000 C 
ATOM     24  C   UNL     1       1.023  13.833  18.866  0.00  0.00    +0.000 C 
ATOM     25  C   UNL     1      -0.454  13.673  18.515  0.00  0.00    +0.000 C 
ATOM     26  C   UNL     1      -1.350  13.066  19.597  0.00  0.00    +0.000 C 
ATOM     27  C   UNL     1      -1.172  11.554  19.759  0.00  0.00    +0.000 C 
ENDBRANCH  19  21
ENDBRANCH   3  17
BRANCH   1  28
ATOM     28  C   UNL     1       3.029   4.278  20.728  0.00  0.00    +0.000 C 
BRANCH  28  29
ATOM     29  C   UNL     1       1.851   3.795  21.580  0.00  0.00    +0.000 C 
BRANCH  29  30
ATOM     30  C   UNL     1       1.362   2.429  21.095  0.00  0.00    +0.000 C 
BRANCH  30  32
ATOM     31  C   UNL     1       0.763   2.476  18.657  0.00  0.00    +0.000 C 
ATOM     32  C   UNL     1       1.837   2.129  19.675  0.00  0.00    +0.000 C 
ENDBRANCH  30  32
ENDBRANCH  29  30
ENDBRANCH  28  29
ENDBRANCH   1  28
TORSDOF 7
ENDMDL
MODEL 9
REMARK VINA RESULT:      -7.5      3.658      6.357
REMARK  Name = 
REMARK  8 active torsions:
REMARK  status: ('A' for Active; 'I' for Inactive)
REMARK    1  A    between atoms: C_1  and  C_2
REMARK    2  A    between atoms: C_2  and  C_3
REMARK    3  A    between atoms: C_3  and  C_4
REMARK    4  A    between atoms: C_4  and  C_5
REMARK    5  A    between atoms: C_5  and  N_6
REMARK    6  A    between atoms: C_8  and  C_9
REMARK    7  A    between atoms: N_11  and  C_12
REMARK    8  A    between atoms: C_23  and  C_24
REMARK                            x       y       z     vdW  Elec       q    Type
REMARK                         _______ _______ _______ _____ _____    ______ ____
ROOT
ATOM      1  N   UNL     1      -0.919  11.651  19.815  0.00  0.00    +0.000 N 
ATOM      2  C   UNL     1      -1.651  12.165  20.882  0.00  0.00    +0.000 A 
ATOM      3  C   UNL     1      -1.510  11.792  22.169  0.00  0.00    +0.000 A 
ATOM      4  C   UNL     1      -0.487  10.753  22.478  0.00  0.00    +0.000 A 
ATOM      5  O   UNL     1      -0.207  10.374  23.609  0.00  0.00    +0.000 OA
ATOM      6  N   UNL     1       0.117  10.193  21.348  0.00  0.00    +0.000 N 
ATOM      7  N   UNL     1       0.950   9.123  21.387  0.00  0.00    +0.000 NA
ATOM      8  C   UNL     1       1.179   8.903  20.081  0.00  0.00    +0.000 A 
ATOM      9  N   UNL     1       0.575   9.815  19.238  0.00  0.00    +0.000 NA
ATOM     10  C   UNL     1      -0.088  10.597  20.048  0.00  0.00    +0.000 A 
ENDROOT
BRANCH   8  11
ATOM     11  C   UNL     1       1.960   7.787  19.561  0.00  0.00    +0.000 A 
ATOM     12  C   UNL     1       2.635   7.889  18.328  0.00  0.00    +0.000 A 
ATOM     13  C   UNL     1       3.402   6.824  17.841  0.00  0.00    +0.000 A 
ATOM     14  C   UNL     1       3.502   5.646  18.576  0.00  0.00    +0.000 A 
ATOM     15  C   UNL     1       2.834   5.528  19.793  0.00  0.00    +0.000 A 
ATOM     16  C   UNL     1       2.069   6.591  20.280  0.00  0.00    +0.000 A 
ENDBRANCH   8  11
BRANCH   3  17
ATOM     17  C   UNL     1      -2.429  12.376  23.191  0.00  0.00    +0.000 C 
ATOM     18  O   UNL     1      -3.323  11.709  23.702  0.00  0.00    +0.000 OA
ATOM     19  N   UNL     1      -2.179  13.682  23.528  0.00  0.00    +0.000 N 
ATOM     20  H   UNL     1      -1.364  14.135  23.110  0.00  0.00    +0.000 HD
BRANCH  19  21
ATOM     21  C   UNL     1      -2.818  14.374  24.652  0.00  0.00    +0.000 C 
ATOM     22  C   UNL     1      -1.788  15.203  25.433  0.00  0.00    +0.000 C 
ATOM     23  C   UNL     1      -1.232  16.382  24.636  0.00  0.00    +0.000 C 
ATOM     24  C   UNL     1      -2.017  17.670  24.854  0.00  0.00    +0.000 C 
ATOM     25  C   UNL     1      -3.461  17.657  24.360  0.00  0.00    +0.000 C 
ATOM     26  C   UNL     1      -4.335  16.494  24.838  0.00  0.00    +0.000 C 
ATOM     27  C   UNL     1      -4.028  15.171  24.134  0.00  0.00    +0.000 C 
ENDBRANCH  19  21
ENDBRANCH   3  17
BRANCH   1  28
ATOM     28  C   UNL     1      -1.206  11.982  18.410  0.00  0.00    +0.000 C 
BRANCH  28  29
ATOM     29  C   UNL     1      -2.611  11.535  17.996  0.00  0.00    +0.000 C 
BRANCH  29  30
ATOM     30  C   UNL     1      -2.634  10.033  17.707  0.00  0.00    +0.000 C 
BRANCH  30  32
ATOM     31  C   UNL     1      -2.931  10.876  15.360  0.00  0.00    +0.000 C 
ATOM     32  C   UNL     1      -3.205   9.732  16.323  0.00  0.00    +0.000 C 
ENDBRANCH  30  32
ENDBRANCH  29  30
ENDBRANCH  28  29
ENDBRANCH   1  28
TORSDOF 7
ENDMDL
