MODEL 1
REMARK VINA RESULT:      -8.2      0.000      0.000
REMARK  Name = 
REMARK  7 active torsions:
REMARK  status: ('A' for Active; 'I' for Inactive)
REMARK    1  A    between atoms: S_2  and  N_4
REMARK    2  A    between atoms: S_2  and  C_21
REMARK    3  A    between atoms: N_4  and  C_5
REMARK    4  A    between atoms: C_5  and  C_6
REMARK    5  A    between atoms: C_6  and  C_7
REMARK    6  A    between atoms: C_6  and  S_12
REMARK    7  A    between atoms: S_12  and  C_15
REMARK                            x       y       z     vdW  Elec       q    Type
REMARK                         _______ _______ _______ _____ _____    ______ ____
ROOT
ATOM      1  C   UNL     1       3.704   5.824  18.194  0.00  0.00    +0.000 C 
ENDROOT
BRANCH   1   2
ATOM      2  C   UNL     1       2.918   7.091  18.329  0.00  0.00    +0.000 A 
ATOM      3  C   UNL     1       2.643   8.147  17.480  0.00  0.00    +0.000 A 
ATOM      4  C   UNL     1       1.851   9.062  18.220  0.00  0.00    +0.000 A 
ATOM      5  C   UNL     1       1.674   8.502  19.461  0.00  0.00    +0.000 A 
ATOM      6  O   UNL     1       2.297   7.300  19.528  0.00  0.00    +0.000 OA
ENDBRANCH   1   2
BRANCH   1   7
ATOM      7  S   UNL     1       2.513   4.508  17.830  0.00  0.00    +0.000 S 
ATOM      8  O   UNL     1       1.222   5.086  17.548  0.00  0.00    +0.000 OA
ATOM      9  O   UNL     1       3.134   3.580  16.889  0.00  0.00    +0.000 OA
BRANCH   7  10
ATOM     10  C   UNL     1       2.338   3.599  19.364  0.00  0.00    +0.000 A 
ATOM     11  C   UNL     1       1.111   3.576  20.039  0.00  0.00    +0.000 A 
ATOM     12  C   UNL     1       1.034   2.960  21.293  0.00  0.00    +0.000 A 
ATOM     13  C   UNL     1       2.163   2.362  21.859  0.00  0.00    +0.000 A 
ATOM     14  C   UNL     1       3.369   2.346  21.161  0.00  0.00    +0.000 A 
ATOM     15  C   UNL     1       3.456   2.954  19.908  0.00  0.00    +0.000 A 
ENDBRANCH   7  10
ENDBRANCH   1   7
BRANCH   1  16
ATOM     16  C   UNL     1       4.717   5.889  17.055  0.00  0.00    +0.000 C 
BRANCH  16  17
ATOM     17  N   UNL     1       5.665   4.739  17.050  0.00  0.00    +0.000 NA
ATOM     18  H   UNL     1       5.783   4.304  17.970  0.00  0.00    +0.000 HD
BRANCH  17  20
ATOM     19  O   UNL     1       7.337   6.573  16.467  0.00  0.00    +0.000 OA
ATOM     20  S   UNL     1       7.191   5.139  16.401  0.00  0.00    +0.000 S 
ATOM     21  O   UNL     1       8.149   4.238  17.004  0.00  0.00    +0.000 OA
BRANCH  20  22
ATOM     22  C   UNL     1       7.018   4.704  14.685  0.00  0.00    +0.000 A 
ATOM     23  C   UNL     1       6.045   3.776  14.298  0.00  0.00    +0.000 A 
ATOM     24  C   UNL     1       5.888   3.472  12.943  0.00  0.00    +0.000 A 
ATOM     25  C   UNL     1       6.694   4.099  11.988  0.00  0.00    +0.000 A 
ATOM     26  C   UNL     1       7.665   5.020  12.382  0.00  0.00    +0.000 A 
ATOM     27  C   UNL     1       7.833   5.323  13.733  0.00  0.00    +0.000 A 
ENDBRANCH  20  22
ENDBRANCH  17  20
ENDBRANCH  16  17
ENDBRANCH   1  16
TORSDOF 7
ENDMDL
MODEL 2
REMARK VINA RESULT:      -8.0      1.611      4.137
REMARK  Name = 
REMARK  7 active torsions:
REMARK  status: ('A' for Active; 'I' for Inactive)
REMARK    1  A    between atoms: S_2  and  N_4
REMARK    2  A    between atoms: S_2  and  C_21
REMARK    3  A    between atoms: N_4  and  C_5
REMARK    4  A    between atoms: C_5  and  C_6
REMARK    5  A    between atoms: C_6  and  C_7
REMARK    6  A    between atoms: C_6  and  S_12
REMARK    7  A    between atoms: S_12  and  C_15
REMARK                            x       y       z     vdW  Elec       q    Type
REMARK                         _______ _______ _______ _____ _____    ______ ____
ROOT
ATOM      1  C   UNL     1       3.079   4.885  17.785  0.00  0.00    +0.000 C 
ENDROOT
BRANCH   1   2
ATOM      2  C   UNL     1       2.255   3.703  18.193  0.00  0.00    +0.000 A 
ATOM      3  C   UNL     1       0.899   3.484  18.348  0.00  0.00    +0.000 A 
ATOM      4  C   UNL     1       0.756   2.142  18.785  0.00  0.00    +0.000 A 
ATOM      5  C   UNL     1       2.025   1.620  18.848  0.00  0.00    +0.000 A 
ATOM      6  O   UNL     1       2.935   2.550  18.470  0.00  0.00    +0.000 OA
ENDBRANCH   1   2
BRANCH   1   7
ATOM      7  S   UNL     1       3.488   5.785  19.302  0.00  0.00    +0.000 S 
ATOM      8  O   UNL     1       2.931   5.095  20.440  0.00  0.00    +0.000 OA
ATOM      9  O   UNL     1       4.907   6.127  19.261  0.00  0.00    +0.000 OA
BRANCH   7  10
ATOM     10  C   UNL     1       2.610   7.342  19.173  0.00  0.00    +0.000 A 
ATOM     11  C   UNL     1       1.844   7.814  20.246  0.00  0.00    +0.000 A 
ATOM     12  C   UNL     1       1.074   8.970  20.077  0.00  0.00    +0.000 A 
ATOM     13  C   UNL     1       1.080   9.652  18.858  0.00  0.00    +0.000 A 
ATOM     14  C   UNL     1       1.881   9.204  17.810  0.00  0.00    +0.000 A 
ATOM     15  C   UNL     1       2.656   8.055  17.969  0.00  0.00    +0.000 A 
ENDBRANCH   7  10
ENDBRANCH   1   7
BRANCH   1  16
ATOM     16  C   UNL     1       4.378   4.476  17.099  0.00  0.00    +0.000 C 
BRANCH  16  17
ATOM     17  N   UNL     1       5.077   5.617  16.443  0.00  0.00    +0.000 NA
ATOM     18  H   UNL     1       4.639   5.915  15.566  0.00  0.00    +0.000 HD
BRANCH  17  20
ATOM     19  O   UNL     1       7.431   6.584  16.296  0.00  0.00    +0.000 OA
ATOM     20  S   UNL     1       6.737   5.323  16.187  0.00  0.00    +0.000 S 
ATOM     21  O   UNL     1       7.087   4.178  17.002  0.00  0.00    +0.000 OA
BRANCH  20  22
ATOM     22  C   UNL     1       6.796   4.832  14.479  0.00  0.00    +0.000 A 
ATOM     23  C   UNL     1       7.726   5.425  13.618  0.00  0.00    +0.000 A 
ATOM     24  C   UNL     1       7.794   5.003  12.288  0.00  0.00    +0.000 A 
ATOM     25  C   UNL     1       6.943   3.993  11.830  0.00  0.00    +0.000 A 
ATOM     26  C   UNL     1       6.017   3.409  12.694  0.00  0.00    +0.000 A 
ATOM     27  C   UNL     1       5.937   3.830  14.020  0.00  0.00    +0.000 A 
ENDBRANCH  20  22
ENDBRANCH  17  20
ENDBRANCH  16  17
ENDBRANCH   1  16
TORSDOF 7
ENDMDL
MODEL 3
REMARK VINA RESULT:      -7.9      0.985      1.520
REMARK  Name = 
REMARK  7 active torsions:
REMARK  status: ('A' for Active; 'I' for Inactive)
REMARK    1  A    between atoms: S_2  and  N_4
REMARK    2  A    between atoms: S_2  and  C_21
REMARK    3  A    between atoms: N_4  and  C_5
REMARK    4  A    between atoms: C_5  and  C_6
REMARK    5  A    between atoms: C_6  and  C_7
REMARK    6  A    between atoms: C_6  and  S_12
REMARK    7  A    between atoms: S_12  and  C_15
REMARK                            x       y       z     vdW  Elec       q    Type
REMARK                         _______ _______ _______ _____ _____    ______ ____
ROOT
ATOM      1  C   UNL     1       4.498   5.629  18.942  0.00  0.00    +0.000 C 
ENDROOT
BRANCH   1   2
ATOM      2  C   UNL     1       3.475   6.712  18.792  0.00  0.00    +0.000 A 
ATOM      3  C   UNL     1       2.373   7.102  19.531  0.00  0.00    +0.000 A 
ATOM      4  C   UNL     1       1.794   8.197  18.841  0.00  0.00    +0.000 A 
ATOM      5  C   UNL     1       2.585   8.421  17.740  0.00  0.00    +0.000 A 
ATOM      6  O   UNL     1       3.616   7.542  17.716  0.00  0.00    +0.000 OA
ENDBRANCH   1   2
BRANCH   1   7
ATOM      7  S   UNL     1       3.776   4.127  18.233  0.00  0.00    +0.000 S 
ATOM      8  O   UNL     1       2.906   4.477  17.138  0.00  0.00    +0.000 OA
ATOM      9  O   UNL     1       4.846   3.150  18.050  0.00  0.00    +0.000 OA
BRANCH   7  10
ATOM     10  C   UNL     1       2.726   3.460  19.524  0.00  0.00    +0.000 A 
ATOM     11  C   UNL     1       1.332   3.499  19.393  0.00  0.00    +0.000 A 
ATOM     12  C   UNL     1       0.536   3.081  20.465  0.00  0.00    +0.000 A 
ATOM     13  C   UNL     1       1.123   2.620  21.646  0.00  0.00    +0.000 A 
ATOM     14  C   UNL     1       2.510   2.539  21.751  0.00  0.00    +0.000 A 
ATOM     15  C   UNL     1       3.313   2.948  20.687  0.00  0.00    +0.000 A 
ENDBRANCH   7  10
ENDBRANCH   1   7
BRANCH   1  16
ATOM     16  C   UNL     1       5.789   5.945  18.192  0.00  0.00    +0.000 C 
BRANCH  16  17
ATOM     17  N   UNL     1       5.715   5.626  16.739  0.00  0.00    +0.000 NA
ATOM     18  H   UNL     1       5.085   4.847  16.524  0.00  0.00    +0.000 HD
BRANCH  17  20
ATOM     19  O   UNL     1       7.896   6.618  15.869  0.00  0.00    +0.000 OA
ATOM     20  S   UNL     1       7.244   5.342  16.041  0.00  0.00    +0.000 S 
ATOM     21  O   UNL     1       7.850   4.262  16.791  0.00  0.00    +0.000 OA
BRANCH  20  22
ATOM     22  C   UNL     1       6.835   4.735  14.420  0.00  0.00    +0.000 A 
ATOM     23  C   UNL     1       7.729   4.927  13.360  0.00  0.00    +0.000 A 
ATOM     24  C   UNL     1       7.419   4.410  12.100  0.00  0.00    +0.000 A 
ATOM     25  C   UNL     1       6.229   3.702  11.908  0.00  0.00    +0.000 A 
ATOM     26  C   UNL     1       5.342   3.516  12.969  0.00  0.00    +0.000 A 
ATOM     27  C   UNL     1       5.640   4.037  14.227  0.00  0.00    +0.000 A 
ENDBRANCH  20  22
ENDBRANCH  17  20
ENDBRANCH  16  17
ENDBRANCH   1  16
TORSDOF 7
ENDMDL
MODEL 4
REMARK VINA RESULT:      -7.9      1.888      6.736
REMARK  Name = 
REMARK  7 active torsions:
REMARK  status: ('A' for Active; 'I' for Inactive)
REMARK    1  A    between atoms: S_2  and  N_4
REMARK    2  A    between atoms: S_2  and  C_21
REMARK    3  A    between atoms: N_4  and  C_5
REMARK    4  A    between atoms: C_5  and  C_6
REMARK    5  A    between atoms: C_6  and  C_7
REMARK    6  A    between atoms: C_6  and  S_12
REMARK    7  A    between atoms: S_12  and  C_15
REMARK                            x       y       z     vdW  Elec       q    Type
REMARK                         _______ _______ _______ _____ _____    ______ ____
ROOT
ATOM      1  C   UNL     1       4.572   4.451  16.604  0.00  0.00    +0.000 C 
ENDROOT
BRANCH   1   2
ATOM      2  C   UNL     1       3.812   5.279  17.594  0.00  0.00    +0.000 A 
ATOM      3  C   UNL     1       2.483   5.631  17.733  0.00  0.00    +0.000 A 
ATOM      4  C   UNL     1       2.405   6.464  18.878  0.00  0.00    +0.000 A 
ATOM      5  C   UNL     1       3.681   6.552  19.378  0.00  0.00    +0.000 A 
ATOM      6  O   UNL     1       4.534   5.820  18.620  0.00  0.00    +0.000 OA
ENDBRANCH   1   2
BRANCH   1   7
ATOM      7  S   UNL     1       6.081   5.370  16.205  0.00  0.00    +0.000 S 
ATOM      8  O   UNL     1       5.781   6.778  16.112  0.00  0.00    +0.000 OA
ATOM      9  O   UNL     1       7.149   4.893  17.079  0.00  0.00    +0.000 OA
BRANCH   7  10
ATOM     10  C   UNL     1       6.530   4.836  14.554  0.00  0.00    +0.000 A 
ATOM     11  C   UNL     1       7.589   5.451  13.874  0.00  0.00    +0.000 A 
ATOM     12  C   UNL     1       7.841   5.097  12.544  0.00  0.00    +0.000 A 
ATOM     13  C   UNL     1       7.056   4.134  11.907  0.00  0.00    +0.000 A 
ATOM     14  C   UNL     1       6.035   3.491  12.604  0.00  0.00    +0.000 A 
ATOM     15  C   UNL     1       5.778   3.833  13.931  0.00  0.00    +0.000 A 
ENDBRANCH   7  10
ENDBRANCH   1   7
BRANCH   1  16
ATOM     16  C   UNL     1       4.969   3.091  17.170  0.00  0.00    +0.000 C 
BRANCH  16  17
ATOM     17  N   UNL     1       5.268   3.130  18.629  0.00  0.00    +0.000 NA
ATOM     18  H   UNL     1       6.270   3.129  18.841  0.00  0.00    +0.000 HD
BRANCH  17  20
ATOM     19  O   UNL     1       4.412   0.729  18.640  0.00  0.00    +0.000 OA
ATOM     20  S   UNL     1       4.493   1.885  19.500  0.00  0.00    +0.000 S 
ATOM     21  O   UNL     1       5.122   1.834  20.803  0.00  0.00    +0.000 OA
BRANCH  20  22
ATOM     22  C   UNL     1       2.840   2.511  19.702  0.00  0.00    +0.000 A 
ATOM     23  C   UNL     1       1.850   2.171  18.773  0.00  0.00    +0.000 A 
ATOM     24  C   UNL     1       0.545   2.632  18.962  0.00  0.00    +0.000 A 
ATOM     25  C   UNL     1       0.236   3.418  20.076  0.00  0.00    +0.000 A 
ATOM     26  C   UNL     1       1.229   3.756  20.996  0.00  0.00    +0.000 A 
ATOM     27  C   UNL     1       2.535   3.307  20.809  0.00  0.00    +0.000 A 
ENDBRANCH  20  22
ENDBRANCH  17  20
ENDBRANCH  16  17
ENDBRANCH   1  16
TORSDOF 7
ENDMDL
MODEL 5
REMARK VINA RESULT:      -7.8      1.729      4.142
REMARK  Name = 
REMARK  7 active torsions:
REMARK  status: ('A' for Active; 'I' for Inactive)
REMARK    1  A    between atoms: S_2  and  N_4
REMARK    2  A    between atoms: S_2  and  C_21
REMARK    3  A    between atoms: N_4  and  C_5
REMARK    4  A    between atoms: C_5  and  C_6
REMARK    5  A    between atoms: C_6  and  C_7
REMARK    6  A    between atoms: C_6  and  S_12
REMARK    7  A    between atoms: S_12  and  C_15
REMARK                            x       y       z     vdW  Elec       q    Type
REMARK                         _______ _______ _______ _____ _____    ______ ____
ROOT
ATOM      1  C   UNL     1       3.605   4.462  18.101  0.00  0.00    +0.000 C 
ENDROOT
BRANCH   1   2
ATOM      2  C   UNL     1       2.504   3.478  18.351  0.00  0.00    +0.000 A 
ATOM      3  C   UNL     1       1.127   3.528  18.241  0.00  0.00    +0.000 A 
ATOM      4  C   UNL     1       0.645   2.259  18.652  0.00  0.00    +0.000 A 
ATOM      5  C   UNL     1       1.752   1.509  18.965  0.00  0.00    +0.000 A 
ATOM      6  O   UNL     1       2.881   2.231  18.764  0.00  0.00    +0.000 OA
ENDBRANCH   1   2
BRANCH   1   7
ATOM      7  S   UNL     1       3.712   5.510  19.575  0.00  0.00    +0.000 S 
ATOM      8  O   UNL     1       3.040   4.867  20.677  0.00  0.00    +0.000 OA
ATOM      9  O   UNL     1       5.092   5.967  19.709  0.00  0.00    +0.000 OA
BRANCH   7  10
ATOM     10  C   UNL     1       2.754   6.972  19.179  0.00  0.00    +0.000 A 
ATOM     11  C   UNL     1       2.851   7.562  17.912  0.00  0.00    +0.000 A 
ATOM     12  C   UNL     1       2.185   8.768  17.669  0.00  0.00    +0.000 A 
ATOM     13  C   UNL     1       1.422   9.370  18.673  0.00  0.00    +0.000 A 
ATOM     14  C   UNL     1       1.291   8.754  19.916  0.00  0.00    +0.000 A 
ATOM     15  C   UNL     1       1.947   7.549  20.167  0.00  0.00    +0.000 A 
ENDBRANCH   7  10
ENDBRANCH   1   7
BRANCH   1  16
ATOM     16  C   UNL     1       4.954   3.781  17.893  0.00  0.00    +0.000 C 
BRANCH  16  17
ATOM     17  N   UNL     1       5.367   3.727  16.462  0.00  0.00    +0.000 NA
ATOM     18  H   UNL     1       5.631   2.789  16.148  0.00  0.00    +0.000 HD
BRANCH  17  20
ATOM     19  O   UNL     1       6.100   6.165  16.317  0.00  0.00    +0.000 OA
ATOM     20  S   UNL     1       6.609   4.833  16.086  0.00  0.00    +0.000 S 
ATOM     21  O   UNL     1       7.810   4.345  16.730  0.00  0.00    +0.000 OA
BRANCH  20  22
ATOM     22  C   UNL     1       6.798   4.637  14.328  0.00  0.00    +0.000 A 
ATOM     23  C   UNL     1       7.695   5.453  13.630  0.00  0.00    +0.000 A 
ATOM     24  C   UNL     1       7.868   5.264  12.257  0.00  0.00    +0.000 A 
ATOM     25  C   UNL     1       7.154   4.261  11.594  0.00  0.00    +0.000 A 
ATOM     26  C   UNL     1       6.259   3.454  12.296  0.00  0.00    +0.000 A 
ATOM     27  C   UNL     1       6.074   3.642  13.665  0.00  0.00    +0.000 A 
ENDBRANCH  20  22
ENDBRANCH  17  20
ENDBRANCH  16  17
ENDBRANCH   1  16
TORSDOF 7
ENDMDL
MODEL 6
REMARK VINA RESULT:      -7.6      1.723      4.180
REMARK  Name = 
REMARK  7 active torsions:
REMARK  status: ('A' for Active; 'I' for Inactive)
REMARK    1  A    between atoms: S_2  and  N_4
REMARK    2  A    between atoms: S_2  and  C_21
REMARK    3  A    between atoms: N_4  and  C_5
REMARK    4  A    between atoms: C_5  and  C_6
REMARK    5  A    between atoms: C_6  and  C_7
REMARK    6  A    between atoms: C_6  and  S_12
REMARK    7  A    between atoms: S_12  and  C_15
REMARK                            x       y       z     vdW  Elec       q    Type
REMARK                         _______ _______ _______ _____ _____    ______ ____
ROOT
ATOM      1  C   UNL     1       3.164   5.108  17.869  0.00  0.00    +0.000 C 
ENDROOT
BRANCH   1   2
ATOM      2  C   UNL     1       3.212   3.624  18.057  0.00  0.00    +0.000 A 
ATOM      3  C   UNL     1       2.459   2.569  17.577  0.00  0.00    +0.000 A 
ATOM      4  C   UNL     1       3.004   1.392  18.151  0.00  0.00    +0.000 A 
ATOM      5  C   UNL     1       4.064   1.796  18.925  0.00  0.00    +0.000 A 
ATOM      6  O   UNL     1       4.211   3.141  18.856  0.00  0.00    +0.000 OA
ENDBRANCH   1   2
BRANCH   1   7
ATOM      7  S   UNL     1       3.023   5.839  19.521  0.00  0.00    +0.000 S 
ATOM      8  O   UNL     1       2.127   5.047  20.326  0.00  0.00    +0.000 OA
ATOM      9  O   UNL     1       4.367   6.156  19.995  0.00  0.00    +0.000 OA
BRANCH   7  10
ATOM     10  C   UNL     1       2.214   7.418  19.265  0.00  0.00    +0.000 A 
ATOM     11  C   UNL     1       2.283   8.057  18.021  0.00  0.00    +0.000 A 
ATOM     12  C   UNL     1       1.746   9.341  17.883  0.00  0.00    +0.000 A 
ATOM     13  C   UNL     1       1.138   9.974  18.970  0.00  0.00    +0.000 A 
ATOM     14  C   UNL     1       1.030   9.314  20.193  0.00  0.00    +0.000 A 
ATOM     15  C   UNL     1       1.557   8.032  20.339  0.00  0.00    +0.000 A 
ENDBRANCH   7  10
ENDBRANCH   1   7
BRANCH   1  16
ATOM     16  C   UNL     1       4.426   5.650  17.207  0.00  0.00    +0.000 C 
BRANCH  16  17
ATOM     17  N   UNL     1       5.339   4.576  16.723  0.00  0.00    +0.000 NA
ATOM     18  H   UNL     1       5.474   3.820  17.399  0.00  0.00    +0.000 HD
BRANCH  17  20
ATOM     19  O   UNL     1       6.810   6.612  16.286  0.00  0.00    +0.000 OA
ATOM     20  S   UNL     1       6.854   5.171  16.213  0.00  0.00    +0.000 S 
ATOM     21  O   UNL     1       7.861   4.395  16.905  0.00  0.00    +0.000 OA
BRANCH  20  22
ATOM     22  C   UNL     1       6.895   4.730  14.490  0.00  0.00    +0.000 A 
ATOM     23  C   UNL     1       6.009   3.765  13.999  0.00  0.00    +0.000 A 
ATOM     24  C   UNL     1       6.019   3.455  12.637  0.00  0.00    +0.000 A 
ATOM     25  C   UNL     1       6.903   4.113  11.777  0.00  0.00    +0.000 A 
ATOM     26  C   UNL     1       7.786   5.072  12.274  0.00  0.00    +0.000 A 
ATOM     27  C   UNL     1       7.788   5.380  13.634  0.00  0.00    +0.000 A 
ENDBRANCH  20  22
ENDBRANCH  17  20
ENDBRANCH  16  17
ENDBRANCH   1  16
TORSDOF 7
ENDMDL
MODEL 7
REMARK VINA RESULT:      -7.6      1.824      6.711
REMARK  Name = 
REMARK  7 active torsions:
REMARK  status: ('A' for Active; 'I' for Inactive)
REMARK    1  A    between atoms: S_2  and  N_4
REMARK    2  A    between atoms: S_2  and  C_21
REMARK    3  A    between atoms: N_4  and  C_5
REMARK    4  A    between atoms: C_5  and  C_6
REMARK    5  A    between atoms: C_6  and  C_7
REMARK    6  A    between atoms: C_6  and  S_12
REMARK    7  A    between atoms: S_12  and  C_15
REMARK                            x       y       z     vdW  Elec       q    Type
REMARK                         _______ _______ _______ _____ _____    ______ ____
ROOT
ATOM      1  C   UNL     1       5.074   4.510  16.925  0.00  0.00    +0.000 C 
ENDROOT
BRANCH   1   2
ATOM      2  C   UNL     1       3.988   5.281  17.609  0.00  0.00    +0.000 A 
ATOM      3  C   UNL     1       2.611   5.314  17.489  0.00  0.00    +0.000 A 
ATOM      4  C   UNL     1       2.150   6.284  18.415  0.00  0.00    +0.000 A 
ATOM      5  C   UNL     1       3.265   6.765  19.056  0.00  0.00    +0.000 A 
ATOM      6  O   UNL     1       4.378   6.147  18.590  0.00  0.00    +0.000 OA
ENDBRANCH   1   2
BRANCH   1   7
ATOM      7  S   UNL     1       6.038   5.705  15.965  0.00  0.00    +0.000 S 
ATOM      8  O   UNL     1       5.216   6.848  15.648  0.00  0.00    +0.000 OA
ATOM      9  O   UNL     1       7.332   5.878  16.618  0.00  0.00    +0.000 OA
BRANCH   7  10
ATOM     10  C   UNL     1       6.385   4.884  14.410  0.00  0.00    +0.000 A 
ATOM     11  C   UNL     1       7.531   5.214  13.675  0.00  0.00    +0.000 A 
ATOM     12  C   UNL     1       7.717   4.645  12.410  0.00  0.00    +0.000 A 
ATOM     13  C   UNL     1       6.777   3.751  11.892  0.00  0.00    +0.000 A 
ATOM     14  C   UNL     1       5.664   3.390  12.648  0.00  0.00    +0.000 A 
ATOM     15  C   UNL     1       5.472   3.947  13.912  0.00  0.00    +0.000 A 
ENDBRANCH   7  10
ENDBRANCH   1   7
BRANCH   1  16
ATOM     16  C   UNL     1       6.007   3.821  17.916  0.00  0.00    +0.000 C 
BRANCH  16  17
ATOM     17  N   UNL     1       5.387   3.612  19.255  0.00  0.00    +0.000 NA
ATOM     18  H   UNL     1       6.045   3.728  20.032  0.00  0.00    +0.000 HD
BRANCH  17  20
ATOM     19  O   UNL     1       4.606   1.482  18.094  0.00  0.00    +0.000 OA
ATOM     20  S   UNL     1       4.589   2.112  19.392  0.00  0.00    +0.000 S 
ATOM     21  O   UNL     1       5.124   1.462  20.570  0.00  0.00    +0.000 OA
BRANCH  20  22
ATOM     22  C   UNL     1       2.908   2.585  19.729  0.00  0.00    +0.000 A 
ATOM     23  C   UNL     1       2.631   3.461  20.784  0.00  0.00    +0.000 A 
ATOM     24  C   UNL     1       1.313   3.861  21.015  0.00  0.00    +0.000 A 
ATOM     25  C   UNL     1       0.285   3.391  20.192  0.00  0.00    +0.000 A 
ATOM     26  C   UNL     1       0.569   2.515  19.144  0.00  0.00    +0.000 A 
ATOM     27  C   UNL     1       1.881   2.105  18.912  0.00  0.00    +0.000 A 
ENDBRANCH  20  22
ENDBRANCH  17  20
ENDBRANCH  16  17
ENDBRANCH   1  16
TORSDOF 7
ENDMDL
MODEL 8
REMARK VINA RESULT:      -7.6      2.567      4.853
REMARK  Name = 
REMARK  7 active torsions:
REMARK  status: ('A' for Active; 'I' for Inactive)
REMARK    1  A    between atoms: S_2  and  N_4
REMARK    2  A    between atoms: S_2  and  C_21
REMARK    3  A    between atoms: N_4  and  C_5
REMARK    4  A    between atoms: C_5  and  C_6
REMARK    5  A    between atoms: C_6  and  C_7
REMARK    6  A    between atoms: C_6  and  S_12
REMARK    7  A    between atoms: S_12  and  C_15
REMARK                            x       y       z     vdW  Elec       q    Type
REMARK                         _______ _______ _______ _____ _____    ______ ____
ROOT
ATOM      1  C   UNL     1       2.222   5.072  18.104  0.00  0.00    +0.000 C 
ENDROOT
BRANCH   1   2
ATOM      2  C   UNL     1       1.918   4.192  19.277  0.00  0.00    +0.000 A 
ATOM      3  C   UNL     1       0.923   4.178  20.236  0.00  0.00    +0.000 A 
ATOM      4  C   UNL     1       1.210   3.089  21.098  0.00  0.00    +0.000 A 
ATOM      5  C   UNL     1       2.345   2.494  20.603  0.00  0.00    +0.000 A 
ATOM      6  O   UNL     1       2.766   3.141  19.488  0.00  0.00    +0.000 OA
ENDBRANCH   1   2
BRANCH   1   7
ATOM      7  S   UNL     1       3.280   6.408  18.715  0.00  0.00    +0.000 S 
ATOM      8  O   UNL     1       4.126   5.912  19.773  0.00  0.00    +0.000 OA
ATOM      9  O   UNL     1       3.857   7.096  17.563  0.00  0.00    +0.000 OA
BRANCH   7  10
ATOM     10  C   UNL     1       2.159   7.584  19.471  0.00  0.00    +0.000 A 
ATOM     11  C   UNL     1       1.717   7.398  20.786  0.00  0.00    +0.000 A 
ATOM     12  C   UNL     1       0.750   8.263  21.310  0.00  0.00    +0.000 A 
ATOM     13  C   UNL     1       0.242   9.309  20.535  0.00  0.00    +0.000 A 
ATOM     14  C   UNL     1       0.720   9.518  19.243  0.00  0.00    +0.000 A 
ATOM     15  C   UNL     1       1.687   8.664  18.713  0.00  0.00    +0.000 A 
ENDBRANCH   7  10
ENDBRANCH   1   7
BRANCH   1  16
ATOM     16  C   UNL     1       2.969   4.329  17.001  0.00  0.00    +0.000 C 
BRANCH  16  17
ATOM     17  N   UNL     1       4.362   3.964  17.381  0.00  0.00    +0.000 NA
ATOM     18  H   UNL     1       4.634   4.301  18.310  0.00  0.00    +0.000 HD
BRANCH  17  20
ATOM     19  O   UNL     1       6.265   3.288  15.825  0.00  0.00    +0.000 OA
ATOM     20  S   UNL     1       5.518   4.456  16.228  0.00  0.00    +0.000 S 
ATOM     21  O   UNL     1       4.823   5.293  15.273  0.00  0.00    +0.000 OA
BRANCH  20  22
ATOM     22  C   UNL     1       6.616   5.484  17.177  0.00  0.00    +0.000 A 
ATOM     23  C   UNL     1       6.895   6.785  16.746  0.00  0.00    +0.000 A 
ATOM     24  C   UNL     1       7.724   7.600  17.520  0.00  0.00    +0.000 A 
ATOM     25  C   UNL     1       8.261   7.116  18.717  0.00  0.00    +0.000 A 
ATOM     26  C   UNL     1       7.980   5.816  19.138  0.00  0.00    +0.000 A 
ATOM     27  C   UNL     1       7.160   4.994  18.367  0.00  0.00    +0.000 A 
ENDBRANCH  20  22
ENDBRANCH  17  20
ENDBRANCH  16  17
ENDBRANCH   1  16
TORSDOF 7
ENDMDL
MODEL 9
REMARK VINA RESULT:      -7.6      2.280      3.549
REMARK  Name = 
REMARK  7 active torsions:
REMARK  status: ('A' for Active; 'I' for Inactive)
REMARK    1  A    between atoms: S_2  and  N_4
REMARK    2  A    between atoms: S_2  and  C_21
REMARK    3  A    between atoms: N_4  and  C_5
REMARK    4  A    between atoms: C_5  and  C_6
REMARK    5  A    between atoms: C_6  and  C_7
REMARK    6  A    between atoms: C_6  and  S_12
REMARK    7  A    between atoms: S_12  and  C_15
REMARK                            x       y       z     vdW  Elec       q    Type
REMARK                         _______ _______ _______ _____ _____    ______ ____
ROOT
ATOM      1  C   UNL     1       4.433   3.601  17.435  0.00  0.00    +0.000 C 
ENDROOT
BRANCH   1   2
ATOM      2  C   UNL     1       3.890   4.815  18.122  0.00  0.00    +0.000 A 
ATOM      3  C   UNL     1       4.230   5.501  19.274  0.00  0.00    +0.000 A 
ATOM      4  C   UNL     1       3.304   6.569  19.394  0.00  0.00    +0.000 A 
ATOM      5  C   UNL     1       2.474   6.483  18.303  0.00  0.00    +0.000 A 
ATOM      6  O   UNL     1       2.836   5.440  17.517  0.00  0.00    +0.000 OA
ENDBRANCH   1   2
BRANCH   1   7
ATOM      7  S   UNL     1       3.264   2.254  17.755  0.00  0.00    +0.000 S 
ATOM      8  O   UNL     1       2.181   2.317  16.805  0.00  0.00    +0.000 OA
ATOM      9  O   UNL     1       4.027   1.022  17.934  0.00  0.00    +0.000 OA
BRANCH   7  10
ATOM     10  C   UNL     1       2.555   2.622  19.359  0.00  0.00    +0.000 A 
ATOM     11  C   UNL     1       3.289   2.391  20.529  0.00  0.00    +0.000 A 
ATOM     12  C   UNL     1       2.669   2.574  21.770  0.00  0.00    +0.000 A 
ATOM     13  C   UNL     1       1.339   2.995  21.842  0.00  0.00    +0.000 A 
ATOM     14  C   UNL     1       0.629   3.269  20.675  0.00  0.00    +0.000 A 
ATOM     15  C   UNL     1       1.238   3.095  19.433  0.00  0.00    +0.000 A 
ENDBRANCH   7  10
ENDBRANCH   1   7
BRANCH   1  16
ATOM     16  C   UNL     1       4.550   3.792  15.926  0.00  0.00    +0.000 C 
BRANCH  16  17
ATOM     17  N   UNL     1       5.960   3.800  15.445  0.00  0.00    +0.000 NA
ATOM     18  H   UNL     1       6.601   3.277  16.050  0.00  0.00    +0.000 HD
BRANCH  17  20
ATOM     19  O   UNL     1       7.668   5.276  14.260  0.00  0.00    +0.000 OA
ATOM     20  S   UNL     1       6.565   5.373  15.186  0.00  0.00    +0.000 S 
ATOM     21  O   UNL     1       5.421   6.224  14.935  0.00  0.00    +0.000 OA
BRANCH  20  22
ATOM     22  C   UNL     1       7.245   5.804  16.773  0.00  0.00    +0.000 A 
ATOM     23  C   UNL     1       7.416   7.151  17.112  0.00  0.00    +0.000 A 
ATOM     24  C   UNL     1       7.910   7.481  18.376  0.00  0.00    +0.000 A 
ATOM     25  C   UNL     1       8.221   6.472  19.291  0.00  0.00    +0.000 A 
ATOM     26  C   UNL     1       8.051   5.131  18.945  0.00  0.00    +0.000 A 
ATOM     27  C   UNL     1       7.566   4.793  17.682  0.00  0.00    +0.000 A 
ENDBRANCH  20  22
ENDBRANCH  17  20
ENDBRANCH  16  17
ENDBRANCH   1  16
TORSDOF 7
ENDMDL
