MODEL 1
REMARK VINA RESULT:      -7.1      0.000      0.000
REMARK  Name = 
REMARK  8 active torsions:
REMARK  status: ('A' for Active; 'I' for Inactive)
REMARK    1  A    between atoms: C_1  and  C_2
REMARK    2  A    between atoms: C_4  and  C_5
REMARK    3  A    between atoms: C_11  and  N_12
REMARK    4  A    between atoms: N_12  and  C_13
REMARK    5  A    between atoms: C_13  and  C_14
REMARK    6  A    between atoms: C_14  and  C_15
REMARK    7  A    between atoms: C_15  and  N_16
REMARK    8  A    between atoms: C_22  and  C_23
REMARK                            x       y       z     vdW  Elec       q    Type
REMARK                         _______ _______ _______ _____ _____    ______ ____
ROOT
ATOM      1  C   UNL     1       0.896  12.209  18.640  0.00  0.00    +0.000 C 
ATOM      2  C   UNL     1       1.169  10.783  19.043  0.00  0.00    +0.000 A 
ATOM      3  C   UNL     1       0.794  10.361  20.349  0.00  0.00    +0.000 A 
ATOM      4  C   UNL     1       1.005   9.048  20.812  0.00  0.00    +0.000 A 
ATOM      5  C   UNL     1       0.618   8.609  22.185  0.00  0.00    +0.000 C 
ATOM      6  C   UNL     1       1.609   8.293  19.803  0.00  0.00    +0.000 A 
ATOM      7  C   UNL     1       1.985   8.731  18.500  0.00  0.00    +0.000 A 
ATOM      8  N   UNL     1       1.770  10.008  18.085  0.00  0.00    +0.000 NA
ATOM      9  N   UNL     1       2.551   7.762  17.781  0.00  0.00    +0.000 NA
ATOM     10  N   UNL     1       2.531   6.679  18.615  0.00  0.00    +0.000 N 
ATOM     11  C   UNL     1       2.988   5.367  18.306  0.00  0.00    +0.000 A 
ATOM     12  C   UNL     1       2.855   4.411  19.239  0.00  0.00    +0.000 A 
ATOM     13  C   UNL     1       2.273   4.818  20.550  0.00  0.00    +0.000 A 
ATOM     14  C   UNL     1       2.201   3.754  21.616  0.00  0.00    +0.000 C 
ATOM     15  N   UNL     1       1.847   6.011  20.843  0.00  0.00    +0.000 NA
ATOM     16  C   UNL     1       1.959   6.964  19.864  0.00  0.00    +0.000 A 
ENDROOT
BRANCH  11  17
ATOM     17  N   UNL     1       3.596   5.142  17.066  0.00  0.00    +0.000 N 
ATOM     18  H   UNL     1       2.909   5.296  16.322  0.00  0.00    +0.000 HD
BRANCH  17  19
ATOM     19  C   UNL     1       4.477   4.003  16.807  0.00  0.00    +0.000 C 
BRANCH  19  20
ATOM     20  C   UNL     1       5.558   4.341  15.779  0.00  0.00    +0.000 C 
BRANCH  20  21
ATOM     21  C   UNL     1       6.965   4.239  16.366  0.00  0.00    +0.000 C 
BRANCH  21  22
ATOM     22  N   UNL     1       7.297   5.359  17.221  0.00  0.00    +0.000 N 
ATOM     23  C   UNL     1       7.243   6.680  16.884  0.00  0.00    +0.000 A 
ATOM     24  C   UNL     1       7.710   7.341  17.995  0.00  0.00    +0.000 A 
ATOM     25  N   UNL     1       8.040   6.459  18.989  0.00  0.00    +0.000 NA
ATOM     26  C   UNL     1       7.790   5.269  18.493  0.00  0.00    +0.000 A 
ENDBRANCH  21  22
ENDBRANCH  20  21
ENDBRANCH  19  20
ENDBRANCH  17  19
ENDBRANCH  11  17
TORSDOF 5
ENDMDL
MODEL 2
REMARK VINA RESULT:      -6.9      1.055      1.105
REMARK  Name = 
REMARK  8 active torsions:
REMARK  status: ('A' for Active; 'I' for Inactive)
REMARK    1  A    between atoms: C_1  and  C_2
REMARK    2  A    between atoms: C_4  and  C_5
REMARK    3  A    between atoms: C_11  and  N_12
REMARK    4  A    between atoms: N_12  and  C_13
REMARK    5  A    between atoms: C_13  and  C_14
REMARK    6  A    between atoms: C_14  and  C_15
REMARK    7  A    between atoms: C_15  and  N_16
REMARK    8  A    between atoms: C_22  and  C_23
REMARK                            x       y       z     vdW  Elec       q    Type
REMARK                         _______ _______ _______ _____ _____    ______ ____
ROOT
ATOM      1  C   UNL     1       1.937  11.226  17.847  0.00  0.00    +0.000 C 
ATOM      2  C   UNL     1       1.969   9.825  18.404  0.00  0.00    +0.000 A 
ATOM      3  C   UNL     1       1.500   9.609  19.730  0.00  0.00    +0.000 A 
ATOM      4  C   UNL     1       1.487   8.336  20.332  0.00  0.00    +0.000 A 
ATOM      5  C   UNL     1       1.003   8.112  21.726  0.00  0.00    +0.000 C 
ATOM      6  C   UNL     1       1.987   7.393  19.431  0.00  0.00    +0.000 A 
ATOM      7  C   UNL     1       2.460   7.626  18.105  0.00  0.00    +0.000 A 
ATOM      8  N   UNL     1       2.461   8.869  17.555  0.00  0.00    +0.000 NA
ATOM      9  N   UNL     1       2.880   6.508  17.512  0.00  0.00    +0.000 NA
ATOM     10  N   UNL     1       2.667   5.537  18.451  0.00  0.00    +0.000 N 
ATOM     11  C   UNL     1       2.916   4.145  18.295  0.00  0.00    +0.000 A 
ATOM     12  C   UNL     1       2.610   3.326  19.314  0.00  0.00    +0.000 A 
ATOM     13  C   UNL     1       2.069   3.957  20.553  0.00  0.00    +0.000 A 
ATOM     14  C   UNL     1       1.803   3.037  21.717  0.00  0.00    +0.000 C 
ATOM     15  N   UNL     1       1.832   5.227  20.705  0.00  0.00    +0.000 NA
ATOM     16  C   UNL     1       2.118   6.040  19.640  0.00  0.00    +0.000 A 
ENDROOT
BRANCH  11  17
ATOM     17  N   UNL     1       3.510   3.696  17.110  0.00  0.00    +0.000 N 
ATOM     18  H   UNL     1       3.105   2.791  16.853  0.00  0.00    +0.000 HD
BRANCH  17  19
ATOM     19  C   UNL     1       4.949   3.772  16.862  0.00  0.00    +0.000 C 
BRANCH  19  20
ATOM     20  C   UNL     1       5.263   4.417  15.511  0.00  0.00    +0.000 C 
BRANCH  20  21
ATOM     21  C   UNL     1       6.628   5.103  15.502  0.00  0.00    +0.000 C 
BRANCH  21  22
ATOM     22  N   UNL     1       7.116   5.394  16.834  0.00  0.00    +0.000 N 
ATOM     23  C   UNL     1       7.164   6.620  17.430  0.00  0.00    +0.000 A 
ATOM     24  C   UNL     1       7.760   6.391  18.647  0.00  0.00    +0.000 A 
ATOM     25  N   UNL     1       8.070   5.066  18.801  0.00  0.00    +0.000 NA
ATOM     26  C   UNL     1       7.679   4.488  17.688  0.00  0.00    +0.000 A 
ENDBRANCH  21  22
ENDBRANCH  20  21
ENDBRANCH  19  20
ENDBRANCH  17  19
ENDBRANCH  11  17
TORSDOF 5
ENDMDL
MODEL 3
REMARK VINA RESULT:      -6.9      1.812      2.693
REMARK  Name = 
REMARK  8 active torsions:
REMARK  status: ('A' for Active; 'I' for Inactive)
REMARK    1  A    between atoms: C_1  and  C_2
REMARK    2  A    between atoms: C_4  and  C_5
REMARK    3  A    between atoms: C_11  and  N_12
REMARK    4  A    between atoms: N_12  and  C_13
REMARK    5  A    between atoms: C_13  and  C_14
REMARK    6  A    between atoms: C_14  and  C_15
REMARK    7  A    between atoms: C_15  and  N_16
REMARK    8  A    between atoms: C_22  and  C_23
REMARK                            x       y       z     vdW  Elec       q    Type
REMARK                         _______ _______ _______ _____ _____    ______ ____
ROOT
ATOM      1  C   UNL     1       1.174  12.149  18.309  0.00  0.00    +0.000 C 
ATOM      2  C   UNL     1       1.371  10.723  18.757  0.00  0.00    +0.000 A 
ATOM      3  C   UNL     1       0.800  10.314  19.994  0.00  0.00    +0.000 A 
ATOM      4  C   UNL     1       0.927   9.002  20.492  0.00  0.00    +0.000 A 
ATOM      5  C   UNL     1       0.335   8.576  21.793  0.00  0.00    +0.000 C 
ATOM      6  C   UNL     1       1.669   8.236  19.589  0.00  0.00    +0.000 A 
ATOM      7  C   UNL     1       2.240   8.661  18.354  0.00  0.00    +0.000 A 
ATOM      8  N   UNL     1       2.101   9.937  17.905  0.00  0.00    +0.000 NA
ATOM      9  N   UNL     1       2.898   7.682  17.734  0.00  0.00    +0.000 NA
ATOM     10  N   UNL     1       2.743   6.606  18.562  0.00  0.00    +0.000 N 
ATOM     11  C   UNL     1       3.229   5.288  18.333  0.00  0.00    +0.000 A 
ATOM     12  C   UNL     1       2.950   4.339  19.241  0.00  0.00    +0.000 A 
ATOM     13  C   UNL     1       2.181   4.761  20.448  0.00  0.00    +0.000 A 
ATOM     14  C   UNL     1       1.940   3.705  21.497  0.00  0.00    +0.000 C 
ATOM     15  N   UNL     1       1.727   5.960  20.666  0.00  0.00    +0.000 NA
ATOM     16  C   UNL     1       1.993   6.904  19.709  0.00  0.00    +0.000 A 
ENDROOT
BRANCH  11  17
ATOM     17  N   UNL     1       4.014   5.049  17.199  0.00  0.00    +0.000 N 
ATOM     18  H   UNL     1       3.714   4.172  16.762  0.00  0.00    +0.000 HD
BRANCH  17  19
ATOM     19  C   UNL     1       5.466   5.231  17.183  0.00  0.00    +0.000 C 
BRANCH  19  20
ATOM     20  C   UNL     1       5.946   5.868  15.878  0.00  0.00    +0.000 C 
BRANCH  20  21
ATOM     21  C   UNL     1       7.144   5.131  15.283  0.00  0.00    +0.000 C 
BRANCH  21  22
ATOM     22  N   UNL     1       6.870   4.588  13.968  0.00  0.00    +0.000 N 
ATOM     23  C   UNL     1       5.877   3.711  13.645  0.00  0.00    +0.000 A 
ATOM     24  C   UNL     1       6.066   3.449  12.309  0.00  0.00    +0.000 A 
ATOM     25  N   UNL     1       7.141   4.143  11.820  0.00  0.00    +0.000 NA
ATOM     26  C   UNL     1       7.614   4.815  12.844  0.00  0.00    +0.000 A 
ENDBRANCH  21  22
ENDBRANCH  20  21
ENDBRANCH  19  20
ENDBRANCH  17  19
ENDBRANCH  11  17
TORSDOF 5
ENDMDL
MODEL 4
REMARK VINA RESULT:      -6.8      1.141      1.478
REMARK  Name = 
REMARK  8 active torsions:
REMARK  status: ('A' for Active; 'I' for Inactive)
REMARK    1  A    between atoms: C_1  and  C_2
REMARK    2  A    between atoms: C_4  and  C_5
REMARK    3  A    between atoms: C_11  and  N_12
REMARK    4  A    between atoms: N_12  and  C_13
REMARK    5  A    between atoms: C_13  and  C_14
REMARK    6  A    between atoms: C_14  and  C_15
REMARK    7  A    between atoms: C_15  and  N_16
REMARK    8  A    between atoms: C_22  and  C_23
REMARK                            x       y       z     vdW  Elec       q    Type
REMARK                         _______ _______ _______ _____ _____    ______ ____
ROOT
ATOM      1  C   UNL     1       2.050  10.861  17.838  0.00  0.00    +0.000 C 
ATOM      2  C   UNL     1       2.108   9.488  18.456  0.00  0.00    +0.000 A 
ATOM      3  C   UNL     1       1.346   9.238  19.632  0.00  0.00    +0.000 A 
ATOM      4  C   UNL     1       1.334   7.986  20.277  0.00  0.00    +0.000 A 
ATOM      5  C   UNL     1       0.542   7.727  21.514  0.00  0.00    +0.000 C 
ATOM      6  C   UNL     1       2.157   7.098  19.577  0.00  0.00    +0.000 A 
ATOM      7  C   UNL     1       2.919   7.365  18.402  0.00  0.00    +0.000 A 
ATOM      8  N   UNL     1       2.910   8.587  17.807  0.00  0.00    +0.000 NA
ATOM      9  N   UNL     1       3.608   6.300  17.991  0.00  0.00    +0.000 NA
ATOM     10  N   UNL     1       3.282   5.328  18.894  0.00  0.00    +0.000 N 
ATOM     11  C   UNL     1       3.728   3.977  18.877  0.00  0.00    +0.000 A 
ATOM     12  C   UNL     1       3.274   3.144  19.827  0.00  0.00    +0.000 A 
ATOM     13  C   UNL     1       2.364   3.723  20.858  0.00  0.00    +0.000 A 
ATOM     14  C   UNL     1       1.923   2.799  21.965  0.00  0.00    +0.000 C 
ATOM     15  N   UNL     1       1.945   4.954  20.882  0.00  0.00    +0.000 NA
ATOM     16  C   UNL     1       2.393   5.778  19.881  0.00  0.00    +0.000 A 
ENDROOT
BRANCH  11  17
ATOM     17  N   UNL     1       4.653   3.586  17.902  0.00  0.00    +0.000 N 
ATOM     18  H   UNL     1       5.593   3.859  18.203  0.00  0.00    +0.000 HD
BRANCH  17  19
ATOM     19  C   UNL     1       4.430   3.781  16.469  0.00  0.00    +0.000 C 
BRANCH  19  20
ATOM     20  C   UNL     1       5.630   4.443  15.790  0.00  0.00    +0.000 C 
BRANCH  20  21
ATOM     21  C   UNL     1       6.904   4.323  16.624  0.00  0.00    +0.000 C 
BRANCH  21  22
ATOM     22  N   UNL     1       7.314   5.586  17.202  0.00  0.00    +0.000 N 
ATOM     23  C   UNL     1       7.803   5.781  18.460  0.00  0.00    +0.000 A 
ATOM     24  C   UNL     1       7.982   7.140  18.557  0.00  0.00    +0.000 A 
ATOM     25  N   UNL     1       7.617   7.767  17.395  0.00  0.00    +0.000 NA
ATOM     26  C   UNL     1       7.209   6.807  16.597  0.00  0.00    +0.000 A 
ENDBRANCH  21  22
ENDBRANCH  20  21
ENDBRANCH  19  20
ENDBRANCH  17  19
ENDBRANCH  11  17
TORSDOF 5
ENDMDL
MODEL 5
REMARK VINA RESULT:      -6.8      3.395      7.661
REMARK  Name = 
REMARK  8 active torsions:
REMARK  status: ('A' for Active; 'I' for Inactive)
REMARK    1  A    between atoms: C_1  and  C_2
REMARK    2  A    between atoms: C_4  and  C_5
REMARK    3  A    between atoms: C_11  and  N_12
REMARK    4  A    between atoms: N_12  and  C_13
REMARK    5  A    between atoms: C_13  and  C_14
REMARK    6  A    between atoms: C_14  and  C_15
REMARK    7  A    between atoms: C_15  and  N_16
REMARK    8  A    between atoms: C_22  and  C_23
REMARK                            x       y       z     vdW  Elec       q    Type
REMARK                         _______ _______ _______ _____ _____    ______ ____
ROOT
ATOM      1  C   UNL     1       5.480   2.551  11.142  0.00  0.00    +0.000 C 
ATOM      2  C   UNL     1       5.847   3.381  12.345  0.00  0.00    +0.000 A 
ATOM      3  C   UNL     1       7.014   4.193  12.280  0.00  0.00    +0.000 A 
ATOM      4  C   UNL     1       7.434   5.006  13.352  0.00  0.00    +0.000 A 
ATOM      5  C   UNL     1       8.662   5.850  13.287  0.00  0.00    +0.000 C 
ATOM      6  C   UNL     1       6.536   4.869  14.414  0.00  0.00    +0.000 A 
ATOM      7  C   UNL     1       5.372   4.046  14.466  0.00  0.00    +0.000 A 
ATOM      8  N   UNL     1       4.998   3.271  13.414  0.00  0.00    +0.000 NA
ATOM      9  N   UNL     1       4.736   4.138  15.635  0.00  0.00    +0.000 NA
ATOM     10  N   UNL     1       5.481   5.038  16.344  0.00  0.00    +0.000 N 
ATOM     11  C   UNL     1       5.200   5.518  17.654  0.00  0.00    +0.000 A 
ATOM     12  C   UNL     1       6.024   6.435  18.187  0.00  0.00    +0.000 A 
ATOM     13  C   UNL     1       7.201   6.847  17.368  0.00  0.00    +0.000 A 
ATOM     14  C   UNL     1       8.162   7.817  18.006  0.00  0.00    +0.000 C 
ATOM     15  N   UNL     1       7.465   6.420  16.168  0.00  0.00    +0.000 NA
ATOM     16  C   UNL     1       6.591   5.511  15.629  0.00  0.00    +0.000 A 
ENDROOT
BRANCH  11  17
ATOM     17  N   UNL     1       4.110   4.981  18.348  0.00  0.00    +0.000 N 
ATOM     18  H   UNL     1       4.263   3.979  18.490  0.00  0.00    +0.000 HD
BRANCH  17  19
ATOM     19  C   UNL     1       2.721   5.310  18.024  0.00  0.00    +0.000 C 
BRANCH  19  20
ATOM     20  C   UNL     1       1.943   4.085  17.540  0.00  0.00    +0.000 C 
BRANCH  20  21
ATOM     21  C   UNL     1       1.023   3.521  18.622  0.00  0.00    +0.000 C 
BRANCH  21  22
ATOM     22  N   UNL     1       1.726   3.219  19.851  0.00  0.00    +0.000 N 
ATOM     23  C   UNL     1       2.744   2.325  20.004  0.00  0.00    +0.000 A 
ATOM     24  C   UNL     1       3.028   2.347  21.349  0.00  0.00    +0.000 A 
ATOM     25  N   UNL     1       2.213   3.229  22.007  0.00  0.00    +0.000 NA
ATOM     26  C   UNL     1       1.430   3.735  21.082  0.00  0.00    +0.000 A 
ENDBRANCH  21  22
ENDBRANCH  20  21
ENDBRANCH  19  20
ENDBRANCH  17  19
ENDBRANCH  11  17
TORSDOF 5
ENDMDL
MODEL 6
REMARK VINA RESULT:      -6.7      3.663      6.243
REMARK  Name = 
REMARK  8 active torsions:
REMARK  status: ('A' for Active; 'I' for Inactive)
REMARK    1  A    between atoms: C_1  and  C_2
REMARK    2  A    between atoms: C_4  and  C_5
REMARK    3  A    between atoms: C_11  and  N_12
REMARK    4  A    between atoms: N_12  and  C_13
REMARK    5  A    between atoms: C_13  and  C_14
REMARK    6  A    between atoms: C_14  and  C_15
REMARK    7  A    between atoms: C_15  and  N_16
REMARK    8  A    between atoms: C_22  and  C_23
REMARK                            x       y       z     vdW  Elec       q    Type
REMARK                         _______ _______ _______ _____ _____    ______ ____
ROOT
ATOM      1  C   UNL     1       1.563   3.113  21.857  0.00  0.00    +0.000 C 
ATOM      2  C   UNL     1       2.357   3.395  20.607  0.00  0.00    +0.000 A 
ATOM      3  C   UNL     1       2.228   2.506  19.503  0.00  0.00    +0.000 A 
ATOM      4  C   UNL     1       2.926   2.691  18.294  0.00  0.00    +0.000 A 
ATOM      5  C   UNL     1       2.796   1.754  17.140  0.00  0.00    +0.000 C 
ATOM      6  C   UNL     1       3.712   3.842  18.386  0.00  0.00    +0.000 A 
ATOM      7  C   UNL     1       3.836   4.721  19.502  0.00  0.00    +0.000 A 
ATOM      8  N   UNL     1       3.150   4.511  20.656  0.00  0.00    +0.000 NA
ATOM      9  N   UNL     1       4.680   5.726  19.266  0.00  0.00    +0.000 NA
ATOM     10  N   UNL     1       5.098   5.511  17.982  0.00  0.00    +0.000 N 
ATOM     11  C   UNL     1       5.985   6.335  17.235  0.00  0.00    +0.000 A 
ATOM     12  C   UNL     1       6.258   5.990  15.966  0.00  0.00    +0.000 A 
ATOM     13  C   UNL     1       5.634   4.735  15.455  0.00  0.00    +0.000 A 
ATOM     14  C   UNL     1       6.009   4.315  14.057  0.00  0.00    +0.000 C 
ATOM     15  N   UNL     1       4.817   3.976  16.127  0.00  0.00    +0.000 NA
ATOM     16  C   UNL     1       4.525   4.367  17.408  0.00  0.00    +0.000 A 
ENDROOT
BRANCH  11  17
ATOM     17  N   UNL     1       6.570   7.438  17.866  0.00  0.00    +0.000 N 
ATOM     18  H   UNL     1       5.853   8.152  18.027  0.00  0.00    +0.000 HD
BRANCH  17  19
ATOM     19  C   UNL     1       7.857   8.000  17.456  0.00  0.00    +0.000 C 
BRANCH  19  20
ATOM     20  C   UNL     1       8.545   8.745  18.600  0.00  0.00    +0.000 C 
BRANCH  20  21
ATOM     21  C   UNL     1       8.643  10.246  18.336  0.00  0.00    +0.000 C 
BRANCH  21  22
ATOM     22  N   UNL     1       9.545  10.917  19.249  0.00  0.00    +0.000 N 
ATOM     23  C   UNL     1       9.266  11.304  20.526  0.00  0.00    +0.000 A 
ATOM     24  C   UNL     1      10.404  11.948  20.951  0.00  0.00    +0.000 A 
ATOM     25  N   UNL     1      11.358  11.958  19.969  0.00  0.00    +0.000 NA
ATOM     26  C   UNL     1      10.811  11.337  18.949  0.00  0.00    +0.000 A 
ENDBRANCH  21  22
ENDBRANCH  20  21
ENDBRANCH  19  20
ENDBRANCH  17  19
ENDBRANCH  11  17
TORSDOF 5
ENDMDL
MODEL 7
REMARK VINA RESULT:      -6.7      3.715      6.326
REMARK  Name = 
REMARK  8 active torsions:
REMARK  status: ('A' for Active; 'I' for Inactive)
REMARK    1  A    between atoms: C_1  and  C_2
REMARK    2  A    between atoms: C_4  and  C_5
REMARK    3  A    between atoms: C_11  and  N_12
REMARK    4  A    between atoms: N_12  and  C_13
REMARK    5  A    between atoms: C_13  and  C_14
REMARK    6  A    between atoms: C_14  and  C_15
REMARK    7  A    between atoms: C_15  and  N_16
REMARK    8  A    between atoms: C_22  and  C_23
REMARK                            x       y       z     vdW  Elec       q    Type
REMARK                         _______ _______ _______ _____ _____    ______ ____
ROOT
ATOM      1  C   UNL     1       1.567   3.410  21.575  0.00  0.00    +0.000 C 
ATOM      2  C   UNL     1       2.447   3.599  20.366  0.00  0.00    +0.000 A 
ATOM      3  C   UNL     1       2.206   2.795  19.217  0.00  0.00    +0.000 A 
ATOM      4  C   UNL     1       2.973   2.903  18.040  0.00  0.00    +0.000 A 
ATOM      5  C   UNL     1       2.726   2.053  16.840  0.00  0.00    +0.000 C 
ATOM      6  C   UNL     1       3.944   3.893  18.212  0.00  0.00    +0.000 A 
ATOM      7  C   UNL     1       4.177   4.689  19.372  0.00  0.00    +0.000 A 
ATOM      8  N   UNL     1       3.419   4.555  20.493  0.00  0.00    +0.000 NA
ATOM      9  N   UNL     1       5.192   5.538  19.211  0.00  0.00    +0.000 NA
ATOM     10  N   UNL     1       5.615   5.306  17.932  0.00  0.00    +0.000 N 
ATOM     11  C   UNL     1       6.661   5.991  17.253  0.00  0.00    +0.000 A 
ATOM     12  C   UNL     1       6.918   5.657  15.978  0.00  0.00    +0.000 A 
ATOM     13  C   UNL     1       6.105   4.554  15.388  0.00  0.00    +0.000 A 
ATOM     14  C   UNL     1       6.455   4.134  13.984  0.00  0.00    +0.000 C 
ATOM     15  N   UNL     1       5.143   3.925  15.997  0.00  0.00    +0.000 NA
ATOM     16  C   UNL     1       4.873   4.306  17.286  0.00  0.00    +0.000 A 
ENDROOT
BRANCH  11  17
ATOM     17  N   UNL     1       7.405   6.947  17.954  0.00  0.00    +0.000 N 
ATOM     18  H   UNL     1       6.886   7.229  18.791  0.00  0.00    +0.000 HD
BRANCH  17  19
ATOM     19  C   UNL     1       8.088   8.062  17.298  0.00  0.00    +0.000 C 
BRANCH  19  20
ATOM     20  C   UNL     1       7.910   9.372  18.068  0.00  0.00    +0.000 C 
BRANCH  20  21
ATOM     21  C   UNL     1       9.186   9.790  18.798  0.00  0.00    +0.000 C 
BRANCH  21  22
ATOM     22  N   UNL     1       9.605  11.135  18.464  0.00  0.00    +0.000 N 
ATOM     23  C   UNL     1       8.842  12.100  17.876  0.00  0.00    +0.000 A 
ATOM     24  C   UNL     1       9.695  13.165  17.710  0.00  0.00    +0.000 A 
ATOM     25  N   UNL     1      10.946  12.870  18.182  0.00  0.00    +0.000 NA
ATOM     26  C   UNL     1      10.867  11.635  18.623  0.00  0.00    +0.000 A 
ENDBRANCH  21  22
ENDBRANCH  20  21
ENDBRANCH  19  20
ENDBRANCH  17  19
ENDBRANCH  11  17
TORSDOF 5
ENDMDL
MODEL 8
REMARK VINA RESULT:      -6.7      2.792      7.618
REMARK  Name = 
REMARK  8 active torsions:
REMARK  status: ('A' for Active; 'I' for Inactive)
REMARK    1  A    between atoms: C_1  and  C_2
REMARK    2  A    between atoms: C_4  and  C_5
REMARK    3  A    between atoms: C_11  and  N_12
REMARK    4  A    between atoms: N_12  and  C_13
REMARK    5  A    between atoms: C_13  and  C_14
REMARK    6  A    between atoms: C_14  and  C_15
REMARK    7  A    between atoms: C_15  and  N_16
REMARK    8  A    between atoms: C_22  and  C_23
REMARK                            x       y       z     vdW  Elec       q    Type
REMARK                         _______ _______ _______ _____ _____    ______ ____
ROOT
ATOM      1  C   UNL     1       5.008   4.377  16.798  0.00  0.00    +0.000 C 
ATOM      2  C   UNL     1       4.121   5.236  17.661  0.00  0.00    +0.000 A 
ATOM      3  C   UNL     1       3.616   4.690  18.874  0.00  0.00    +0.000 A 
ATOM      4  C   UNL     1       2.783   5.419  19.746  0.00  0.00    +0.000 A 
ATOM      5  C   UNL     1       2.247   4.843  21.013  0.00  0.00    +0.000 C 
ATOM      6  C   UNL     1       2.572   6.697  19.222  0.00  0.00    +0.000 A 
ATOM      7  C   UNL     1       3.081   7.229  18.001  0.00  0.00    +0.000 A 
ATOM      8  N   UNL     1       3.880   6.496  17.181  0.00  0.00    +0.000 NA
ATOM      9  N   UNL     1       2.682   8.483  17.787  0.00  0.00    +0.000 NA
ATOM     10  N   UNL     1       1.920   8.777  18.883  0.00  0.00    +0.000 N 
ATOM     11  C   UNL     1       1.287  10.021  19.161  0.00  0.00    +0.000 A 
ATOM     12  C   UNL     1       0.605  10.145  20.311  0.00  0.00    +0.000 A 
ATOM     13  C   UNL     1       0.531   8.942  21.190  0.00  0.00    +0.000 A 
ATOM     14  C   UNL     1      -0.303   9.069  22.439  0.00  0.00    +0.000 C 
ATOM     15  N   UNL     1       1.109   7.802  20.950  0.00  0.00    +0.000 NA
ATOM     16  C   UNL     1       1.830   7.708  19.787  0.00  0.00    +0.000 A 
ENDROOT
BRANCH  11  17
ATOM     17  N   UNL     1       1.363  11.042  18.208  0.00  0.00    +0.000 N 
ATOM     18  H   UNL     1       1.552  10.630  17.289  0.00  0.00    +0.000 HD
BRANCH  17  19
ATOM     19  C   UNL     1       2.088  12.293  18.436  0.00  0.00    +0.000 C 
BRANCH  19  20
ATOM     20  C   UNL     1       1.141  13.487  18.562  0.00  0.00    +0.000 C 
BRANCH  20  21
ATOM     21  C   UNL     1       1.757  14.630  19.367  0.00  0.00    +0.000 C 
BRANCH  21  22
ATOM     22  N   UNL     1       1.906  15.843  18.590  0.00  0.00    +0.000 N 
ATOM     23  C   UNL     1       0.964  16.813  18.414  0.00  0.00    +0.000 A 
ATOM     24  C   UNL     1       1.549  17.714  17.556  0.00  0.00    +0.000 A 
ATOM     25  N   UNL     1       2.814  17.315  17.214  0.00  0.00    +0.000 NA
ATOM     26  C   UNL     1       3.001  16.178  17.844  0.00  0.00    +0.000 A 
ENDBRANCH  21  22
ENDBRANCH  20  21
ENDBRANCH  19  20
ENDBRANCH  17  19
ENDBRANCH  11  17
TORSDOF 5
ENDMDL
MODEL 9
REMARK VINA RESULT:      -6.6      2.425      7.705
REMARK  Name = 
REMARK  8 active torsions:
REMARK  status: ('A' for Active; 'I' for Inactive)
REMARK    1  A    between atoms: C_1  and  C_2
REMARK    2  A    between atoms: C_4  and  C_5
REMARK    3  A    between atoms: C_11  and  N_12
REMARK    4  A    between atoms: N_12  and  C_13
REMARK    5  A    between atoms: C_13  and  C_14
REMARK    6  A    between atoms: C_14  and  C_15
REMARK    7  A    between atoms: C_15  and  N_16
REMARK    8  A    between atoms: C_22  and  C_23
REMARK                            x       y       z     vdW  Elec       q    Type
REMARK                         _______ _______ _______ _____ _____    ______ ____
ROOT
ATOM      1  C   UNL     1       5.095   4.822  16.670  0.00  0.00    +0.000 C 
ATOM      2  C   UNL     1       4.163   5.588  17.574  0.00  0.00    +0.000 A 
ATOM      3  C   UNL     1       3.723   4.970  18.778  0.00  0.00    +0.000 A 
ATOM      4  C   UNL     1       2.857   5.610  19.686  0.00  0.00    +0.000 A 
ATOM      5  C   UNL     1       2.389   4.958  20.944  0.00  0.00    +0.000 C 
ATOM      6  C   UNL     1       2.542   6.883  19.205  0.00  0.00    +0.000 A 
ATOM      7  C   UNL     1       2.987   7.487  17.993  0.00  0.00    +0.000 A 
ATOM      8  N   UNL     1       3.821   6.840  17.137  0.00  0.00    +0.000 NA
ATOM      9  N   UNL     1       2.493   8.714  17.825  0.00  0.00    +0.000 NA
ATOM     10  N   UNL     1       1.733   8.919  18.942  0.00  0.00    +0.000 N 
ATOM     11  C   UNL     1       1.016  10.104  19.269  0.00  0.00    +0.000 A 
ATOM     12  C   UNL     1       0.349  10.143  20.434  0.00  0.00    +0.000 A 
ATOM     13  C   UNL     1       0.380   8.912  21.276  0.00  0.00    +0.000 A 
ATOM     14  C   UNL     1      -0.436   8.941  22.543  0.00  0.00    +0.000 C 
ATOM     15  N   UNL     1       1.036   7.826  20.991  0.00  0.00    +0.000 NA
ATOM     16  C   UNL     1       1.739   7.820  19.814  0.00  0.00    +0.000 A 
ENDROOT
BRANCH  11  17
ATOM     17  N   UNL     1       0.999  11.156  18.346  0.00  0.00    +0.000 N 
ATOM     18  H   UNL     1       1.667  10.955  17.596  0.00  0.00    +0.000 HD
BRANCH  17  19
ATOM     19  C   UNL     1       0.987  12.563  18.743  0.00  0.00    +0.000 C 
BRANCH  19  20
ATOM     20  C   UNL     1      -0.407  13.180  18.621  0.00  0.00    +0.000 C 
BRANCH  20  21
ATOM     21  C   UNL     1      -0.738  14.097  19.797  0.00  0.00    +0.000 C 
BRANCH  21  22
ATOM     22  N   UNL     1      -1.101  13.364  20.993  0.00  0.00    +0.000 N 
ATOM     23  C   UNL     1      -2.242  12.643  21.187  0.00  0.00    +0.000 A 
ATOM     24  C   UNL     1      -2.155  12.197  22.484  0.00  0.00    +0.000 A 
ATOM     25  N   UNL     1      -0.996  12.625  23.073  0.00  0.00    +0.000 NA
ATOM     26  C   UNL     1      -0.382  13.335  22.155  0.00  0.00    +0.000 A 
ENDBRANCH  21  22
ENDBRANCH  20  21
ENDBRANCH  19  20
ENDBRANCH  17  19
ENDBRANCH  11  17
TORSDOF 5
ENDMDL
