MODEL 1
REMARK VINA RESULT:      -9.1      0.000      0.000
REMARK  Name = 
REMARK  4 active torsions:
REMARK  status: ('A' for Active; 'I' for Inactive)
REMARK    1  A    between atoms: C_2  and  C_10
REMARK    2  A    between atoms: N_3  and  C_4
REMARK    3  A    between atoms: C_4  and  C_5
REMARK    4  A    between atoms: C_12  and  C_13
REMARK                            x       y       z     vdW  Elec       q    Type
REMARK                         _______ _______ _______ _____ _____    ______ ____
ROOT
ATOM      1  C   UNL     1       4.695   4.957  17.070  0.00  0.00    +0.000 A 
ATOM      2  N   UNL     1       4.346   6.251  17.381  0.00  0.00    +0.000 NA
ATOM      3  C   UNL     1       3.219   6.186  18.075  0.00  0.00    +0.000 A 
ATOM      4  N   UNL     1       2.838   4.860  18.237  0.00  0.00    +0.000 N 
ATOM      5  C   UNL     1       3.796   4.069  17.642  0.00  0.00    +0.000 A 
ATOM      6  C   UNL     1       3.818   2.574  17.629  0.00  0.00    +0.000 C 
ATOM      7  C   UNL     1       3.413   1.979  18.967  0.00  0.00    +0.000 C 
ATOM      8  C   UNL     1       1.900   1.879  19.132  0.00  0.00    +0.000 C 
ATOM      9  C   UNL     1       1.108   3.027  18.508  0.00  0.00    +0.000 C 
ATOM     10  C   UNL     1       1.634   4.398  18.911  0.00  0.00    +0.000 C 
ENDROOT
BRANCH   3  11
ATOM     11  C   UNL     1       2.482   7.368  18.550  0.00  0.00    +0.000 A 
ATOM     12  C   UNL     1       2.122   7.456  19.901  0.00  0.00    +0.000 A 
ATOM     13  C   UNL     1       1.391   8.553  20.383  0.00  0.00    +0.000 A 
ATOM     14  C   UNL     1       1.018   9.566  19.504  0.00  0.00    +0.000 A 
ATOM     15 CL   UNL     1       0.092  10.897  20.077  0.00  0.00    +0.000 Cl
ATOM     16  C   UNL     1       1.367   9.503  18.163  0.00  0.00    +0.000 A 
ATOM     17  C   UNL     1       2.083   8.403  17.690  0.00  0.00    +0.000 A 
ENDBRANCH   3  11
BRANCH   1  19
ATOM     18  O   UNL     1       6.963   4.376  16.707  0.00  0.00    +0.000 OA
ATOM     19  C   UNL     1       5.840   4.587  16.238  0.00  0.00    +0.000 C 
ATOM     20  N   UNL     1       5.595   4.477  14.898  0.00  0.00    +0.000 N 
ATOM     21  H   UNL     1       4.667   4.725  14.562  0.00  0.00    +0.000 HD
BRANCH  20  22
ATOM     22  C   UNL     1       6.662   4.123  13.978  0.00  0.00    +0.000 C 
BRANCH  22  23
ATOM     23  C   UNL     1       6.169   3.852  12.552  0.00  0.00    +0.000 C 
ATOM     24  C   UNL     1       4.659   3.699  12.438  0.00  0.00    +0.000 C 
ATOM     25  C   UNL     1       4.521   2.812  11.226  0.00  0.00    +0.000 C 
ATOM     26  C   UNL     1       5.721   1.900  11.354  0.00  0.00    +0.000 C 
ATOM     27  O   UNL     1       6.746   2.635  12.040  0.00  0.00    +0.000 OA
ENDBRANCH  22  23
ENDBRANCH  20  22
ENDBRANCH   1  19
TORSDOF 4
ENDMDL
MODEL 2
REMARK VINA RESULT:      -9.0      1.546      2.115
REMARK  Name = 
REMARK  4 active torsions:
REMARK  status: ('A' for Active; 'I' for Inactive)
REMARK    1  A    between atoms: C_2  and  C_10
REMARK    2  A    between atoms: N_3  and  C_4
REMARK    3  A    between atoms: C_4  and  C_5
REMARK    4  A    between atoms: C_12  and  C_13
REMARK                            x       y       z     vdW  Elec       q    Type
REMARK                         _______ _______ _______ _____ _____    ______ ____
ROOT
ATOM      1  C   UNL     1       4.283   5.110  18.331  0.00  0.00    +0.000 A 
ATOM      2  N   UNL     1       3.888   6.428  18.323  0.00  0.00    +0.000 NA
ATOM      3  C   UNL     1       2.815   6.509  19.097  0.00  0.00    +0.000 A 
ATOM      4  N   UNL     1       2.517   5.260  19.626  0.00  0.00    +0.000 N 
ATOM      5  C   UNL     1       3.473   4.374  19.182  0.00  0.00    +0.000 A 
ATOM      6  C   UNL     1       3.574   2.929  19.553  0.00  0.00    +0.000 C 
ATOM      7  C   UNL     1       3.292   2.690  21.028  0.00  0.00    +0.000 C 
ATOM      8  C   UNL     1       1.801   2.586  21.332  0.00  0.00    +0.000 C 
ATOM      9  C   UNL     1       0.909   3.504  20.496  0.00  0.00    +0.000 C 
ATOM     10  C   UNL     1       1.387   4.949  20.490  0.00  0.00    +0.000 C 
ENDROOT
BRANCH   3  11
ATOM     11  C   UNL     1       2.050   7.749  19.307  0.00  0.00    +0.000 A 
ATOM     12  C   UNL     1       1.828   8.610  18.224  0.00  0.00    +0.000 A 
ATOM     13  C   UNL     1       1.131   9.817  18.395  0.00  0.00    +0.000 A 
ATOM     14  C   UNL     1       0.655  10.160  19.657  0.00  0.00    +0.000 A 
ATOM     15 CL   UNL     1      -0.170  11.652  19.883  0.00  0.00    +0.000 Cl
ATOM     16  C   UNL     1       0.859   9.321  20.742  0.00  0.00    +0.000 A 
ATOM     17  C   UNL     1       1.564   8.130  20.567  0.00  0.00    +0.000 A 
ENDBRANCH   3  11
BRANCH   1  19
ATOM     18  O   UNL     1       6.527   4.431  17.990  0.00  0.00    +0.000 OA
ATOM     19  C   UNL     1       5.388   4.575  17.535  0.00  0.00    +0.000 C 
ATOM     20  N   UNL     1       5.085   4.229  16.248  0.00  0.00    +0.000 N 
ATOM     21  H   UNL     1       4.146   4.429  15.909  0.00  0.00    +0.000 HD
BRANCH  20  22
ATOM     22  C   UNL     1       6.108   3.694  15.366  0.00  0.00    +0.000 C 
BRANCH  22  23
ATOM     23  C   UNL     1       6.301   4.522  14.090  0.00  0.00    +0.000 C 
ATOM     24  C   UNL     1       6.473   3.688  12.829  0.00  0.00    +0.000 C 
ATOM     25  C   UNL     1       7.288   4.603  11.951  0.00  0.00    +0.000 C 
ATOM     26  C   UNL     1       8.186   5.297  12.952  0.00  0.00    +0.000 C 
ATOM     27  O   UNL     1       7.476   5.350  14.198  0.00  0.00    +0.000 OA
ENDBRANCH  22  23
ENDBRANCH  20  22
ENDBRANCH   1  19
TORSDOF 4
ENDMDL
MODEL 3
REMARK VINA RESULT:      -8.8      0.352      1.009
REMARK  Name = 
REMARK  4 active torsions:
REMARK  status: ('A' for Active; 'I' for Inactive)
REMARK    1  A    between atoms: C_2  and  C_10
REMARK    2  A    between atoms: N_3  and  C_4
REMARK    3  A    between atoms: C_4  and  C_5
REMARK    4  A    between atoms: C_12  and  C_13
REMARK                            x       y       z     vdW  Elec       q    Type
REMARK                         _______ _______ _______ _____ _____    ______ ____
ROOT
ATOM      1  C   UNL     1       4.703   5.366  16.962  0.00  0.00    +0.000 A 
ATOM      2  N   UNL     1       4.274   6.617  17.341  0.00  0.00    +0.000 NA
ATOM      3  C   UNL     1       3.170   6.443  18.054  0.00  0.00    +0.000 A 
ATOM      4  N   UNL     1       2.884   5.089  18.161  0.00  0.00    +0.000 N 
ATOM      5  C   UNL     1       3.879   4.393  17.510  0.00  0.00    +0.000 A 
ATOM      6  C   UNL     1       4.002   2.905  17.425  0.00  0.00    +0.000 C 
ATOM      7  C   UNL     1       3.670   2.223  18.742  0.00  0.00    +0.000 C 
ATOM      8  C   UNL     1       2.171   2.012  18.933  0.00  0.00    +0.000 C 
ATOM      9  C   UNL     1       1.289   3.131  18.380  0.00  0.00    +0.000 C 
ATOM     10  C   UNL     1       1.731   4.514  18.837  0.00  0.00    +0.000 C 
ENDROOT
BRANCH   3  11
ATOM     11  C   UNL     1       2.367   7.549  18.599  0.00  0.00    +0.000 A 
ATOM     12  C   UNL     1       1.963   8.588  17.750  0.00  0.00    +0.000 A 
ATOM     13  C   UNL     1       1.223   9.675  18.242  0.00  0.00    +0.000 A 
ATOM     14  C   UNL     1       0.888   9.719  19.593  0.00  0.00    +0.000 A 
ATOM     15 CL   UNL     1       0.012  11.064  20.212  0.00  0.00    +0.000 Cl
ATOM     16  C   UNL     1       1.273   8.701  20.450  0.00  0.00    +0.000 A 
ATOM     17  C   UNL     1       2.019   7.630  19.956  0.00  0.00    +0.000 A 
ENDBRANCH   3  11
BRANCH   1  19
ATOM     18  O   UNL     1       6.990   5.506  16.361  0.00  0.00    +0.000 OA
ATOM     19  C   UNL     1       5.850   5.114  16.091  0.00  0.00    +0.000 C 
ATOM     20  N   UNL     1       5.592   4.403  14.952  0.00  0.00    +0.000 N 
ATOM     21  H   UNL     1       4.624   4.162  14.751  0.00  0.00    +0.000 HD
BRANCH  20  22
ATOM     22  C   UNL     1       6.657   4.103  14.011  0.00  0.00    +0.000 C 
BRANCH  22  23
ATOM     23  C   UNL     1       6.154   3.861  12.583  0.00  0.00    +0.000 C 
ATOM     24  C   UNL     1       4.642   3.728  12.473  0.00  0.00    +0.000 C 
ATOM     25  C   UNL     1       4.487   2.863  11.248  0.00  0.00    +0.000 C 
ATOM     26  C   UNL     1       5.678   1.934  11.356  0.00  0.00    +0.000 C 
ATOM     27  O   UNL     1       6.714   2.646  12.048  0.00  0.00    +0.000 OA
ENDBRANCH  22  23
ENDBRANCH  20  22
ENDBRANCH   1  19
TORSDOF 4
ENDMDL
MODEL 4
REMARK VINA RESULT:      -8.5      0.775      1.361
REMARK  Name = 
REMARK  4 active torsions:
REMARK  status: ('A' for Active; 'I' for Inactive)
REMARK    1  A    between atoms: C_2  and  C_10
REMARK    2  A    between atoms: N_3  and  C_4
REMARK    3  A    between atoms: C_4  and  C_5
REMARK    4  A    between atoms: C_12  and  C_13
REMARK                            x       y       z     vdW  Elec       q    Type
REMARK                         _______ _______ _______ _____ _____    ______ ____
ROOT
ATOM      1  C   UNL     1       4.471   5.287  17.399  0.00  0.00    +0.000 A 
ATOM      2  N   UNL     1       4.068   6.576  17.663  0.00  0.00    +0.000 NA
ATOM      3  C   UNL     1       2.973   6.489  18.405  0.00  0.00    +0.000 A 
ATOM      4  N   UNL     1       2.667   5.156  18.643  0.00  0.00    +0.000 N 
ATOM      5  C   UNL     1       3.641   4.385  18.047  0.00  0.00    +0.000 A 
ATOM      6  C   UNL     1       3.738   2.894  18.102  0.00  0.00    +0.000 C 
ATOM      7  C   UNL     1       3.415   2.344  19.482  0.00  0.00    +0.000 C 
ATOM      8  C   UNL     1       1.917   2.178  19.712  0.00  0.00    +0.000 C 
ATOM      9  C   UNL     1       1.044   3.255  19.068  0.00  0.00    +0.000 C 
ATOM     10  C   UNL     1       1.514   4.668  19.386  0.00  0.00    +0.000 C 
ENDROOT
BRANCH   3  11
ATOM     11  C   UNL     1       2.195   7.655  18.854  0.00  0.00    +0.000 A 
ATOM     12  C   UNL     1       1.843   8.645  17.925  0.00  0.00    +0.000 A 
ATOM     13  C   UNL     1       1.130   9.786  18.325  0.00  0.00    +0.000 A 
ATOM     14  C   UNL     1       0.769   9.935  19.661  0.00  0.00    +0.000 A 
ATOM     15 CL   UNL     1      -0.074  11.347  20.165  0.00  0.00    +0.000 Cl
ATOM     16  C   UNL     1       1.103   8.967  20.595  0.00  0.00    +0.000 A 
ATOM     17  C   UNL     1       1.823   7.842  20.193  0.00  0.00    +0.000 A 
ENDBRANCH   3  11
BRANCH   1  19
ATOM     18  O   UNL     1       6.590   4.325  16.957  0.00  0.00    +0.000 OA
ATOM     19  C   UNL     1       5.601   4.935  16.540  0.00  0.00    +0.000 C 
ATOM     20  N   UNL     1       5.496   5.312  15.230  0.00  0.00    +0.000 N 
ATOM     21  H   UNL     1       4.689   5.867  14.957  0.00  0.00    +0.000 HD
BRANCH  20  22
ATOM     22  C   UNL     1       6.565   5.020  14.289  0.00  0.00    +0.000 C 
BRANCH  22  23
ATOM     23  C   UNL     1       6.329   3.739  13.482  0.00  0.00    +0.000 C 
ATOM     24  C   UNL     1       7.099   3.681  12.171  0.00  0.00    +0.000 C 
ATOM     25  C   UNL     1       6.228   2.783  11.330  0.00  0.00    +0.000 C 
ATOM     26  C   UNL     1       4.835   3.166  11.783  0.00  0.00    +0.000 C 
ATOM     27  O   UNL     1       4.934   3.602  13.146  0.00  0.00    +0.000 OA
ENDBRANCH  22  23
ENDBRANCH  20  22
ENDBRANCH   1  19
TORSDOF 4
ENDMDL
MODEL 5
REMARK VINA RESULT:      -8.4      1.566      1.921
REMARK  Name = 
REMARK  4 active torsions:
REMARK  status: ('A' for Active; 'I' for Inactive)
REMARK    1  A    between atoms: C_2  and  C_10
REMARK    2  A    between atoms: N_3  and  C_4
REMARK    3  A    between atoms: C_4  and  C_5
REMARK    4  A    between atoms: C_12  and  C_13
REMARK                            x       y       z     vdW  Elec       q    Type
REMARK                         _______ _______ _______ _____ _____    ______ ____
ROOT
ATOM      1  C   UNL     1       4.125   5.428  18.210  0.00  0.00    +0.000 A 
ATOM      2  N   UNL     1       3.706   6.734  18.314  0.00  0.00    +0.000 NA
ATOM      3  C   UNL     1       2.639   6.732  19.100  0.00  0.00    +0.000 A 
ATOM      4  N   UNL     1       2.369   5.438  19.528  0.00  0.00    +0.000 N 
ATOM      5  C   UNL     1       3.337   4.609  19.005  0.00  0.00    +0.000 A 
ATOM      6  C   UNL     1       3.467   3.141  19.257  0.00  0.00    +0.000 C 
ATOM      7  C   UNL     1       3.203   2.778  20.709  0.00  0.00    +0.000 C 
ATOM      8  C   UNL     1       1.717   2.622  21.016  0.00  0.00    +0.000 C 
ATOM      9  C   UNL     1       0.801   3.588  20.265  0.00  0.00    +0.000 C 
ATOM     10  C   UNL     1       1.253   5.037  20.372  0.00  0.00    +0.000 C 
ENDROOT
BRANCH   3  11
ATOM     11  C   UNL     1       1.854   7.936  19.417  0.00  0.00    +0.000 A 
ATOM     12  C   UNL     1       1.474   8.178  20.744  0.00  0.00    +0.000 A 
ATOM     13  C   UNL     1       0.697   9.299  21.078  0.00  0.00    +0.000 A 
ATOM     14  C   UNL     1       0.300  10.179  20.075  0.00  0.00    +0.000 A 
ATOM     15 CL   UNL     1      -0.681  11.536  20.469  0.00  0.00    +0.000 Cl
ATOM     16  C   UNL     1       0.668   9.962  18.756  0.00  0.00    +0.000 A 
ATOM     17  C   UNL     1       1.429   8.839  18.431  0.00  0.00    +0.000 A 
ENDBRANCH   3  11
BRANCH   1  19
ATOM     18  O   UNL     1       6.396   5.350  17.541  0.00  0.00    +0.000 OA
ATOM     19  C   UNL     1       5.232   4.980  17.365  0.00  0.00    +0.000 C 
ATOM     20  N   UNL     1       4.904   4.109  16.363  0.00  0.00    +0.000 N 
ATOM     21  H   UNL     1       3.920   3.890  16.226  0.00  0.00    +0.000 HD
BRANCH  20  22
ATOM     22  C   UNL     1       5.924   3.606  15.458  0.00  0.00    +0.000 C 
BRANCH  22  23
ATOM     23  C   UNL     1       6.141   4.501  14.233  0.00  0.00    +0.000 C 
ATOM     24  C   UNL     1       6.298   3.736  12.927  0.00  0.00    +0.000 C 
ATOM     25  C   UNL     1       7.137   4.681  12.104  0.00  0.00    +0.000 C 
ATOM     26  C   UNL     1       8.047   5.296  13.146  0.00  0.00    +0.000 C 
ATOM     27  O   UNL     1       7.333   5.295  14.391  0.00  0.00    +0.000 OA
ENDBRANCH  22  23
ENDBRANCH  20  22
ENDBRANCH   1  19
TORSDOF 4
ENDMDL
MODEL 6
REMARK VINA RESULT:      -8.1      1.439      1.982
REMARK  Name = 
REMARK  4 active torsions:
REMARK  status: ('A' for Active; 'I' for Inactive)
REMARK    1  A    between atoms: C_2  and  C_10
REMARK    2  A    between atoms: N_3  and  C_4
REMARK    3  A    between atoms: C_4  and  C_5
REMARK    4  A    between atoms: C_12  and  C_13
REMARK                            x       y       z     vdW  Elec       q    Type
REMARK                         _______ _______ _______ _____ _____    ______ ____
ROOT
ATOM      1  C   UNL     1       4.429   5.414  18.491  0.00  0.00    +0.000 A 
ATOM      2  N   UNL     1       3.961   6.707  18.553  0.00  0.00    +0.000 NA
ATOM      3  C   UNL     1       2.798   6.662  19.187  0.00  0.00    +0.000 A 
ATOM      4  N   UNL     1       2.510   5.354  19.557  0.00  0.00    +0.000 N 
ATOM      5  C   UNL     1       3.565   4.561  19.160  0.00  0.00    +0.000 A 
ATOM      6  C   UNL     1       3.703   3.093  19.408  0.00  0.00    +0.000 C 
ATOM      7  C   UNL     1       3.255   2.699  20.806  0.00  0.00    +0.000 C 
ATOM      8  C   UNL     1       1.747   2.496  20.905  0.00  0.00    +0.000 C 
ATOM      9  C   UNL     1       0.913   3.449  20.049  0.00  0.00    +0.000 C 
ATOM     10  C   UNL     1       1.303   4.908  20.236  0.00  0.00    +0.000 C 
ENDROOT
BRANCH   3  11
ATOM     11  C   UNL     1       1.942   7.838  19.409  0.00  0.00    +0.000 A 
ATOM     12  C   UNL     1       1.604   8.657  18.323  0.00  0.00    +0.000 A 
ATOM     13  C   UNL     1       0.817   9.805  18.504  0.00  0.00    +0.000 A 
ATOM     14  C   UNL     1       0.366  10.132  19.779  0.00  0.00    +0.000 A 
ATOM     15 CL   UNL     1      -0.570  11.556  20.015  0.00  0.00    +0.000 Cl
ATOM     16  C   UNL     1       0.684   9.335  20.868  0.00  0.00    +0.000 A 
ATOM     17  C   UNL     1       1.478   8.202  20.682  0.00  0.00    +0.000 A 
ENDBRANCH   3  11
BRANCH   1  19
ATOM     18  O   UNL     1       6.556   4.380  18.356  0.00  0.00    +0.000 OA
ATOM     19  C   UNL     1       5.653   5.012  17.799  0.00  0.00    +0.000 C 
ATOM     20  N   UNL     1       5.739   5.368  16.482  0.00  0.00    +0.000 N 
ATOM     21  H   UNL     1       4.995   5.942  16.094  0.00  0.00    +0.000 HD
BRANCH  20  22
ATOM     22  C   UNL     1       6.915   5.026  15.699  0.00  0.00    +0.000 C 
BRANCH  22  23
ATOM     23  C   UNL     1       6.633   3.997  14.599  0.00  0.00    +0.000 C 
ATOM     24  C   UNL     1       7.299   4.315  13.267  0.00  0.00    +0.000 C 
ATOM     25  C   UNL     1       6.376   3.644  12.282  0.00  0.00    +0.000 C 
ATOM     26  C   UNL     1       5.018   3.847  12.920  0.00  0.00    +0.000 C 
ATOM     27  O   UNL     1       5.218   3.909  14.340  0.00  0.00    +0.000 OA
ENDBRANCH  22  23
ENDBRANCH  20  22
ENDBRANCH   1  19
TORSDOF 4
ENDMDL
MODEL 7
REMARK VINA RESULT:      -8.0      4.146      7.698
REMARK  Name = 
REMARK  4 active torsions:
REMARK  status: ('A' for Active; 'I' for Inactive)
REMARK    1  A    between atoms: C_2  and  C_10
REMARK    2  A    between atoms: N_3  and  C_4
REMARK    3  A    between atoms: C_4  and  C_5
REMARK    4  A    between atoms: C_12  and  C_13
REMARK                            x       y       z     vdW  Elec       q    Type
REMARK                         _______ _______ _______ _____ _____    ______ ____
ROOT
ATOM      1  C   UNL     1       2.435   6.894  19.331  0.00  0.00    +0.000 A 
ATOM      2  N   UNL     1       3.281   7.015  18.253  0.00  0.00    +0.000 NA
ATOM      3  C   UNL     1       3.765   5.805  18.010  0.00  0.00    +0.000 A 
ATOM      4  N   UNL     1       3.228   4.891  18.907  0.00  0.00    +0.000 N 
ATOM      5  C   UNL     1       2.345   5.566  19.721  0.00  0.00    +0.000 A 
ATOM      6  C   UNL     1       1.497   4.960  20.792  0.00  0.00    +0.000 C 
ATOM      7  C   UNL     1       0.898   3.628  20.371  0.00  0.00    +0.000 C 
ATOM      8  C   UNL     1       1.858   2.460  20.577  0.00  0.00    +0.000 C 
ATOM      9  C   UNL     1       3.328   2.783  20.312  0.00  0.00    +0.000 C 
ATOM     10  C   UNL     1       3.552   3.474  18.974  0.00  0.00    +0.000 C 
ENDROOT
BRANCH   3  11
ATOM     11  C   UNL     1       4.759   5.517  16.963  0.00  0.00    +0.000 A 
ATOM     12  C   UNL     1       5.980   6.204  16.968  0.00  0.00    +0.000 A 
ATOM     13  C   UNL     1       6.938   5.978  15.967  0.00  0.00    +0.000 A 
ATOM     14  C   UNL     1       6.668   5.060  14.956  0.00  0.00    +0.000 A 
ATOM     15 CL   UNL     1       7.821   4.802  13.706  0.00  0.00    +0.000 Cl
ATOM     16  C   UNL     1       5.469   4.365  14.934  0.00  0.00    +0.000 A 
ATOM     17  C   UNL     1       4.517   4.605  15.925  0.00  0.00    +0.000 A 
ENDBRANCH   3  11
BRANCH   1  19
ATOM     18  O   UNL     1       1.510   8.042  21.185  0.00  0.00    +0.000 OA
ATOM     19  C   UNL     1       1.752   8.016  19.974  0.00  0.00    +0.000 C 
ATOM     20  N   UNL     1       1.400   9.052  19.154  0.00  0.00    +0.000 N 
ATOM     21  H   UNL     1       1.567   8.946  18.156  0.00  0.00    +0.000 HD
BRANCH  20  22
ATOM     22  C   UNL     1       0.709  10.214  19.687  0.00  0.00    +0.000 C 
BRANCH  22  23
ATOM     23  C   UNL     1      -0.792  10.220  19.379  0.00  0.00    +0.000 C 
ATOM     24  C   UNL     1      -1.123  10.075  17.901  0.00  0.00    +0.000 C 
ATOM     25  C   UNL     1      -2.456  10.773  17.803  0.00  0.00    +0.000 C 
ATOM     26  C   UNL     1      -2.304  11.901  18.800  0.00  0.00    +0.000 C 
ATOM     27  O   UNL     1      -1.393  11.455  19.815  0.00  0.00    +0.000 OA
ENDBRANCH  22  23
ENDBRANCH  20  22
ENDBRANCH   1  19
TORSDOF 4
ENDMDL
MODEL 8
REMARK VINA RESULT:      -8.0      1.981      2.442
REMARK  Name = 
REMARK  4 active torsions:
REMARK  status: ('A' for Active; 'I' for Inactive)
REMARK    1  A    between atoms: C_2  and  C_10
REMARK    2  A    between atoms: N_3  and  C_4
REMARK    3  A    between atoms: C_4  and  C_5
REMARK    4  A    between atoms: C_12  and  C_13
REMARK                            x       y       z     vdW  Elec       q    Type
REMARK                         _______ _______ _______ _____ _____    ______ ____
ROOT
ATOM      1  C   UNL     1       4.423   5.546  19.355  0.00  0.00    +0.000 A 
ATOM      2  N   UNL     1       3.927   6.829  19.321  0.00  0.00    +0.000 NA
ATOM      3  C   UNL     1       2.660   6.760  19.704  0.00  0.00    +0.000 A 
ATOM      4  N   UNL     1       2.329   5.446  20.008  0.00  0.00    +0.000 N 
ATOM      5  C   UNL     1       3.457   4.674  19.834  0.00  0.00    +0.000 A 
ATOM      6  C   UNL     1       3.570   3.208  20.104  0.00  0.00    +0.000 C 
ATOM      7  C   UNL     1       2.855   2.799  21.382  0.00  0.00    +0.000 C 
ATOM      8  C   UNL     1       1.362   2.568  21.171  0.00  0.00    +0.000 C 
ATOM      9  C   UNL     1       0.701   3.508  20.164  0.00  0.00    +0.000 C 
ATOM     10  C   UNL     1       1.017   4.974  20.426  0.00  0.00    +0.000 C 
ENDROOT
BRANCH   3  11
ATOM     11  C   UNL     1       1.754   7.919  19.748  0.00  0.00    +0.000 A 
ATOM     12  C   UNL     1       1.101   8.235  20.947  0.00  0.00    +0.000 A 
ATOM     13  C   UNL     1       0.204   9.313  21.016  0.00  0.00    +0.000 A 
ATOM     14  C   UNL     1      -0.037  10.077  19.878  0.00  0.00    +0.000 A 
ATOM     15 CL   UNL     1      -1.159  11.379  19.944  0.00  0.00    +0.000 Cl
ATOM     16  C   UNL     1       0.602   9.786  18.682  0.00  0.00    +0.000 A 
ATOM     17  C   UNL     1       1.481   8.704  18.618  0.00  0.00    +0.000 A 
ENDBRANCH   3  11
BRANCH   1  19
ATOM     18  O   UNL     1       6.699   5.003  19.722  0.00  0.00    +0.000 OA
ATOM     19  C   UNL     1       5.770   5.169  18.927  0.00  0.00    +0.000 C 
ATOM     20  N   UNL     1       5.943   4.999  17.581  0.00  0.00    +0.000 N 
ATOM     21  H   UNL     1       5.159   5.212  16.969  0.00  0.00    +0.000 HD
BRANCH  20  22
ATOM     22  C   UNL     1       7.243   4.632  17.044  0.00  0.00    +0.000 C 
BRANCH  22  23
ATOM     23  C   UNL     1       7.173   4.076  15.618  0.00  0.00    +0.000 C 
ATOM     24  C   UNL     1       7.435   5.112  14.534  0.00  0.00    +0.000 C 
ATOM     25  C   UNL     1       6.669   4.549  13.365  0.00  0.00    +0.000 C 
ATOM     26  C   UNL     1       5.464   3.926  14.036  0.00  0.00    +0.000 C 
ATOM     27  O   UNL     1       5.869   3.524  15.353  0.00  0.00    +0.000 OA
ENDBRANCH  22  23
ENDBRANCH  20  22
ENDBRANCH   1  19
TORSDOF 4
ENDMDL
MODEL 9
REMARK VINA RESULT:      -8.0      1.319      1.765
REMARK  Name = 
REMARK  4 active torsions:
REMARK  status: ('A' for Active; 'I' for Inactive)
REMARK    1  A    between atoms: C_2  and  C_10
REMARK    2  A    between atoms: N_3  and  C_4
REMARK    3  A    between atoms: C_4  and  C_5
REMARK    4  A    between atoms: C_12  and  C_13
REMARK                            x       y       z     vdW  Elec       q    Type
REMARK                         _______ _______ _______ _____ _____    ______ ____
ROOT
ATOM      1  C   UNL     1       4.139   6.077  17.194  0.00  0.00    +0.000 A 
ATOM      2  N   UNL     1       3.691   7.219  17.817  0.00  0.00    +0.000 NA
ATOM      3  C   UNL     1       2.744   6.846  18.665  0.00  0.00    +0.000 A 
ATOM      4  N   UNL     1       2.582   5.467  18.617  0.00  0.00    +0.000 N 
ATOM      5  C   UNL     1       3.498   4.965  17.719  0.00  0.00    +0.000 A 
ATOM      6  C   UNL     1       3.714   3.520  17.399  0.00  0.00    +0.000 C 
ATOM      7  C   UNL     1       3.667   2.640  18.638  0.00  0.00    +0.000 C 
ATOM      8  C   UNL     1       2.244   2.261  19.035  0.00  0.00    +0.000 C 
ATOM      9  C   UNL     1       1.199   3.351  18.801  0.00  0.00    +0.000 C 
ATOM     10  C   UNL     1       1.609   4.698  19.379  0.00  0.00    +0.000 C 
ENDROOT
BRANCH   3  11
ATOM     11  C   UNL     1       1.967   7.786  19.489  0.00  0.00    +0.000 A 
ATOM     12  C   UNL     1       1.480   8.966  18.910  0.00  0.00    +0.000 A 
ATOM     13  C   UNL     1       0.764   9.901  19.674  0.00  0.00    +0.000 A 
ATOM     14  C   UNL     1       0.535   9.650  21.024  0.00  0.00    +0.000 A 
ATOM     15 CL   UNL     1      -0.312  10.806  21.976  0.00  0.00    +0.000 Cl
ATOM     16  C   UNL     1       1.003   8.488  21.617  0.00  0.00    +0.000 A 
ATOM     17  C   UNL     1       1.726   7.570  20.854  0.00  0.00    +0.000 A 
ENDBRANCH   3  11
BRANCH   1  19
ATOM     18  O   UNL     1       5.191   6.929  15.251  0.00  0.00    +0.000 OA
ATOM     19  C   UNL     1       5.134   6.056  16.122  0.00  0.00    +0.000 C 
ATOM     20  N   UNL     1       6.014   5.010  16.144  0.00  0.00    +0.000 N 
ATOM     21  H   UNL     1       5.878   4.288  16.847  0.00  0.00    +0.000 HD
BRANCH  20  22
ATOM     22  C   UNL     1       7.039   4.885  15.121  0.00  0.00    +0.000 C 
BRANCH  22  23
ATOM     23  C   UNL     1       6.468   4.744  13.705  0.00  0.00    +0.000 C 
ATOM     24  C   UNL     1       5.556   3.539  13.522  0.00  0.00    +0.000 C 
ATOM     25  C   UNL     1       5.710   3.245  12.052  0.00  0.00    +0.000 C 
ATOM     26  C   UNL     1       7.164   3.582  11.805  0.00  0.00    +0.000 C 
ATOM     27  O   UNL     1       7.531   4.604  12.743  0.00  0.00    +0.000 OA
ENDBRANCH  22  23
ENDBRANCH  20  22
ENDBRANCH   1  19
TORSDOF 4
ENDMDL
