MODEL 1
REMARK VINA RESULT:      -8.6      0.000      0.000
REMARK  Name = 
REMARK  4 active torsions:
REMARK  status: ('A' for Active; 'I' for Inactive)
REMARK    1  A    between atoms: C_1  and  S_2
REMARK    2  A    between atoms: S_2  and  C_5
REMARK    3  A    between atoms: C_8  and  C_9
REMARK    4  A    between atoms: C_19  and  O_20
REMARK                            x       y       z     vdW  Elec       q    Type
REMARK                         _______ _______ _______ _____ _____    ______ ____
ROOT
ATOM      1  C   UNL     1       2.816   4.879  19.580  0.00  0.00    +0.000 C 
ATOM      2  C   UNL     1       3.883   4.250  19.089  0.00  0.00    +0.000 C 
ATOM      3  C   UNL     1       4.915   4.785  18.231  0.00  0.00    +0.000 A 
ATOM      4  C   UNL     1       5.632   5.935  18.567  0.00  0.00    +0.000 A 
ATOM      5  C   UNL     1       6.510   6.490  17.645  0.00  0.00    +0.000 A 
ATOM      6  C   UNL     1       6.671   5.887  16.399  0.00  0.00    +0.000 A 
ATOM      7  C   UNL     1       5.996   4.701  16.091  0.00  0.00    +0.000 A 
ATOM      8  C   UNL     1       5.129   4.115  17.021  0.00  0.00    +0.000 A 
ATOM      9  C   UNL     1       4.374   2.845  16.687  0.00  0.00    +0.000 C 
ATOM     10  C   UNL     1       3.623   2.138  17.842  0.00  0.00    +0.000 C 
ATOM     11  C   UNL     1       3.777   2.791  19.220  0.00  0.00    +0.000 C 
ATOM     12  O   UNL     1       2.598   2.598  19.992  0.00  0.00    +0.000 OA
ATOM     13  C   UNL     1       1.997   3.810  20.186  0.00  0.00    +0.000 C 
ATOM     14  O   UNL     1       0.932   3.975  20.752  0.00  0.00    +0.000 OA
ENDROOT
BRANCH   1  18
ATOM     15  C   UNL     1       1.588   8.925  19.106  0.00  0.00    +0.000 A 
ATOM     16  C   UNL     1       2.034   8.200  18.000  0.00  0.00    +0.000 A 
ATOM     17  C   UNL     1       2.461   6.880  18.165  0.00  0.00    +0.000 A 
ATOM     18  C   UNL     1       2.430   6.278  19.429  0.00  0.00    +0.000 A 
ATOM     19  C   UNL     1       2.005   7.029  20.537  0.00  0.00    +0.000 A 
ATOM     20  C   UNL     1       1.580   8.352  20.380  0.00  0.00    +0.000 A 
BRANCH  15  22
ATOM     21  C   UNL     1       0.859  11.209  20.527  0.00  0.00    +0.000 C 
ATOM     22  S   UNL     1       1.023  10.593  18.871  0.00  0.00    +0.000 S 
ATOM     23  O   UNL     1      -0.295  10.538  18.281  0.00  0.00    +0.000 OA
ATOM     24  O   UNL     1       2.103  11.321  18.218  0.00  0.00    +0.000 OA
ENDBRANCH  15  22
ENDBRANCH   1  18
BRANCH  11  25
ATOM     25  O   UNL     1       4.905   2.279  19.911  0.00  0.00    +0.000 OA
ATOM     26  H   UNL     1       5.501   1.890  19.248  0.00  0.00    +0.000 HD
ENDBRANCH  11  25
TORSDOF 3
ENDMDL
MODEL 2
REMARK VINA RESULT:      -8.5      0.385      1.043
REMARK  Name = 
REMARK  4 active torsions:
REMARK  status: ('A' for Active; 'I' for Inactive)
REMARK    1  A    between atoms: C_1  and  S_2
REMARK    2  A    between atoms: S_2  and  C_5
REMARK    3  A    between atoms: C_8  and  C_9
REMARK    4  A    between atoms: C_19  and  O_20
REMARK                            x       y       z     vdW  Elec       q    Type
REMARK                         _______ _______ _______ _____ _____    ______ ____
ROOT
ATOM      1  C   UNL     1       2.871   4.916  19.660  0.00  0.00    +0.000 C 
ATOM      2  C   UNL     1       3.875   4.294  19.043  0.00  0.00    +0.000 C 
ATOM      3  C   UNL     1       4.706   4.791  17.971  0.00  0.00    +0.000 A 
ATOM      4  C   UNL     1       5.396   6.001  18.071  0.00  0.00    +0.000 A 
ATOM      5  C   UNL     1       6.063   6.505  16.963  0.00  0.00    +0.000 A 
ATOM      6  C   UNL     1       6.044   5.792  15.766  0.00  0.00    +0.000 A 
ATOM      7  C   UNL     1       5.403   4.550  15.689  0.00  0.00    +0.000 A 
ATOM      8  C   UNL     1       4.750   4.018  16.806  0.00  0.00    +0.000 A 
ATOM      9  C   UNL     1       4.031   2.687  16.725  0.00  0.00    +0.000 C 
ATOM     10  C   UNL     1       3.539   2.061  18.053  0.00  0.00    +0.000 C 
ATOM     11  C   UNL     1       3.888   2.852  19.319  0.00  0.00    +0.000 C 
ATOM     12  O   UNL     1       2.875   2.679  20.303  0.00  0.00    +0.000 OA
ATOM     13  C   UNL     1       2.240   3.874  20.493  0.00  0.00    +0.000 C 
ATOM     14  O   UNL     1       1.281   4.043  21.224  0.00  0.00    +0.000 OA
ENDROOT
BRANCH   1  18
ATOM     15  C   UNL     1       1.531   8.916  19.099  0.00  0.00    +0.000 A 
ATOM     16  C   UNL     1       1.545   8.360  20.380  0.00  0.00    +0.000 A 
ATOM     17  C   UNL     1       1.960   7.039  20.555  0.00  0.00    +0.000 A 
ATOM     18  C   UNL     1       2.376   6.274  19.458  0.00  0.00    +0.000 A 
ATOM     19  C   UNL     1       2.332   6.838  18.172  0.00  0.00    +0.000 A 
ATOM     20  C   UNL     1       1.913   8.159  17.988  0.00  0.00    +0.000 A 
BRANCH  15  22
ATOM     21  C   UNL     1       0.926  11.206  20.568  0.00  0.00    +0.000 C 
ATOM     22  S   UNL     1       1.026  10.608  18.900  0.00  0.00    +0.000 S 
ATOM     23  O   UNL     1      -0.306  10.612  18.341  0.00  0.00    +0.000 OA
ATOM     24  O   UNL     1       2.119  11.303  18.232  0.00  0.00    +0.000 OA
ENDBRANCH  15  22
ENDBRANCH   1  18
BRANCH  11  25
ATOM     25  O   UNL     1       5.148   2.464  19.839  0.00  0.00    +0.000 OA
ATOM     26  H   UNL     1       4.983   1.857  20.581  0.00  0.00    +0.000 HD
ENDBRANCH  11  25
TORSDOF 3
ENDMDL
MODEL 3
REMARK VINA RESULT:      -8.2      2.159      3.901
REMARK  Name = 
REMARK  4 active torsions:
REMARK  status: ('A' for Active; 'I' for Inactive)
REMARK    1  A    between atoms: C_1  and  S_2
REMARK    2  A    between atoms: S_2  and  C_5
REMARK    3  A    between atoms: C_8  and  C_9
REMARK    4  A    between atoms: C_19  and  O_20
REMARK                            x       y       z     vdW  Elec       q    Type
REMARK                         _______ _______ _______ _____ _____    ______ ____
ROOT
ATOM      1  C   UNL     1       3.306   6.309  17.939  0.00  0.00    +0.000 C 
ATOM      2  C   UNL     1       3.338   4.988  18.111  0.00  0.00    +0.000 C 
ATOM      3  C   UNL     1       2.609   4.198  19.077  0.00  0.00    +0.000 A 
ATOM      4  C   UNL     1       1.219   4.273  19.195  0.00  0.00    +0.000 A 
ATOM      5  C   UNL     1       0.581   3.606  20.231  0.00  0.00    +0.000 A 
ATOM      6  C   UNL     1       1.335   2.861  21.137  0.00  0.00    +0.000 A 
ATOM      7  C   UNL     1       2.720   2.739  20.978  0.00  0.00    +0.000 A 
ATOM      8  C   UNL     1       3.372   3.385  19.921  0.00  0.00    +0.000 A 
ATOM      9  C   UNL     1       4.875   3.281  19.756  0.00  0.00    +0.000 C 
ATOM     10  C   UNL     1       5.486   3.824  18.441  0.00  0.00    +0.000 C 
ATOM     11  C   UNL     1       4.476   4.365  17.424  0.00  0.00    +0.000 C 
ATOM     12  O   UNL     1       5.052   5.430  16.676  0.00  0.00    +0.000 OA
ATOM     13  C   UNL     1       4.402   6.590  16.991  0.00  0.00    +0.000 C 
ATOM     14  O   UNL     1       4.701   7.691  16.568  0.00  0.00    +0.000 OA
ENDROOT
BRANCH   1  18
ATOM     15  C   UNL     1       1.040   9.257  20.009  0.00  0.00    +0.000 A 
ATOM     16  C   UNL     1       1.561   8.165  20.705  0.00  0.00    +0.000 A 
ATOM     17  C   UNL     1       2.282   7.187  20.017  0.00  0.00    +0.000 A 
ATOM     18  C   UNL     1       2.496   7.302  18.638  0.00  0.00    +0.000 A 
ATOM     19  C   UNL     1       1.943   8.392  17.946  0.00  0.00    +0.000 A 
ATOM     20  C   UNL     1       1.217   9.374  18.628  0.00  0.00    +0.000 A 
BRANCH  15  22
ATOM     21  C   UNL     1      -0.383   9.657  22.371  0.00  0.00    +0.000 C 
ATOM     22  S   UNL     1       0.150  10.505  20.907  0.00  0.00    +0.000 S 
ATOM     23  O   UNL     1      -1.023  10.855  20.139  0.00  0.00    +0.000 OA
ATOM     24  O   UNL     1       1.119  11.522  21.296  0.00  0.00    +0.000 OA
ENDBRANCH  15  22
ENDBRANCH   1  18
BRANCH  11  25
ATOM     25  O   UNL     1       4.022   3.343  16.552  0.00  0.00    +0.000 OA
ATOM     26  H   UNL     1       3.730   3.771  15.729  0.00  0.00    +0.000 HD
ENDBRANCH  11  25
TORSDOF 3
ENDMDL
MODEL 4
REMARK VINA RESULT:      -8.1      2.123      3.882
REMARK  Name = 
REMARK  4 active torsions:
REMARK  status: ('A' for Active; 'I' for Inactive)
REMARK    1  A    between atoms: C_1  and  S_2
REMARK    2  A    between atoms: S_2  and  C_5
REMARK    3  A    between atoms: C_8  and  C_9
REMARK    4  A    between atoms: C_19  and  O_20
REMARK                            x       y       z     vdW  Elec       q    Type
REMARK                         _______ _______ _______ _____ _____    ______ ____
ROOT
ATOM      1  C   UNL     1       4.012   6.232  17.889  0.00  0.00    +0.000 C 
ATOM      2  C   UNL     1       3.933   4.902  17.870  0.00  0.00    +0.000 C 
ATOM      3  C   UNL     1       2.848   4.068  18.337  0.00  0.00    +0.000 A 
ATOM      4  C   UNL     1       1.536   4.245  17.893  0.00  0.00    +0.000 A 
ATOM      5  C   UNL     1       0.510   3.517  18.478  0.00  0.00    +0.000 A 
ATOM      6  C   UNL     1       0.802   2.610  19.495  0.00  0.00    +0.000 A 
ATOM      7  C   UNL     1       2.126   2.392  19.893  0.00  0.00    +0.000 A 
ATOM      8  C   UNL     1       3.174   3.100  19.293  0.00  0.00    +0.000 A 
ATOM      9  C   UNL     1       4.607   2.890  19.736  0.00  0.00    +0.000 C 
ATOM     10  C   UNL     1       5.721   3.531  18.870  0.00  0.00    +0.000 C 
ATOM     11  C   UNL     1       5.235   4.271  17.619  0.00  0.00    +0.000 C 
ATOM     12  O   UNL     1       6.097   5.364  17.326  0.00  0.00    +0.000 OA
ATOM     13  C   UNL     1       5.408   6.529  17.513  0.00  0.00    +0.000 C 
ATOM     14  O   UNL     1       5.887   7.643  17.408  0.00  0.00    +0.000 OA
ENDROOT
BRANCH   1  18
ATOM     15  C   UNL     1       1.189   9.118  19.232  0.00  0.00    +0.000 A 
ATOM     16  C   UNL     1       1.635   8.124  20.104  0.00  0.00    +0.000 A 
ATOM     17  C   UNL     1       2.541   7.163  19.651  0.00  0.00    +0.000 A 
ATOM     18  C   UNL     1       3.015   7.200  18.333  0.00  0.00    +0.000 A 
ATOM     19  C   UNL     1       2.536   8.191  17.460  0.00  0.00    +0.000 A 
ATOM     20  C   UNL     1       1.626   9.154  17.905  0.00  0.00    +0.000 A 
BRANCH  15  22
ATOM     21  C   UNL     1      -1.213  10.381  18.597  0.00  0.00    +0.000 C 
ATOM     22  S   UNL     1       0.057  10.348  19.835  0.00  0.00    +0.000 S 
ATOM     23  O   UNL     1       0.735  11.624  19.816  0.00  0.00    +0.000 OA
ATOM     24  O   UNL     1      -0.521   9.828  21.067  0.00  0.00    +0.000 OA
ENDBRANCH  15  22
ENDBRANCH   1  18
BRANCH  11  25
ATOM     25  O   UNL     1       5.150   3.400  16.504  0.00  0.00    +0.000 OA
ATOM     26  H   UNL     1       5.246   2.491  16.835  0.00  0.00    +0.000 HD
ENDBRANCH  11  25
TORSDOF 3
ENDMDL
MODEL 5
REMARK VINA RESULT:      -8.0      2.113      3.821
REMARK  Name = 
REMARK  4 active torsions:
REMARK  status: ('A' for Active; 'I' for Inactive)
REMARK    1  A    between atoms: C_1  and  S_2
REMARK    2  A    between atoms: S_2  and  C_5
REMARK    3  A    between atoms: C_8  and  C_9
REMARK    4  A    between atoms: C_19  and  O_20
REMARK                            x       y       z     vdW  Elec       q    Type
REMARK                         _______ _______ _______ _____ _____    ______ ____
ROOT
ATOM      1  C   UNL     1       3.380   6.280  17.868  0.00  0.00    +0.000 C 
ATOM      2  C   UNL     1       3.385   4.963  18.072  0.00  0.00    +0.000 C 
ATOM      3  C   UNL     1       2.635   4.211  19.052  0.00  0.00    +0.000 A 
ATOM      4  C   UNL     1       1.247   4.315  19.159  0.00  0.00    +0.000 A 
ATOM      5  C   UNL     1       0.591   3.685  20.208  0.00  0.00    +0.000 A 
ATOM      6  C   UNL     1       1.324   2.948  21.135  0.00  0.00    +0.000 A 
ATOM      7  C   UNL     1       2.708   2.796  20.987  0.00  0.00    +0.000 A 
ATOM      8  C   UNL     1       3.379   3.403  19.920  0.00  0.00    +0.000 A 
ATOM      9  C   UNL     1       4.880   3.267  19.766  0.00  0.00    +0.000 C 
ATOM     10  C   UNL     1       5.509   3.766  18.442  0.00  0.00    +0.000 C 
ATOM     11  C   UNL     1       4.514   4.302  17.406  0.00  0.00    +0.000 C 
ATOM     12  O   UNL     1       5.115   5.337  16.636  0.00  0.00    +0.000 OA
ATOM     13  C   UNL     1       4.486   6.517  16.920  0.00  0.00    +0.000 C 
ATOM     14  O   UNL     1       4.809   7.602  16.472  0.00  0.00    +0.000 OA
ENDROOT
BRANCH   1  18
ATOM     15  C   UNL     1       0.969   9.215  19.788  0.00  0.00    +0.000 A 
ATOM     16  C   UNL     1       1.229   9.314  18.420  0.00  0.00    +0.000 A 
ATOM     17  C   UNL     1       2.042   8.364  17.800  0.00  0.00    +0.000 A 
ATOM     18  C   UNL     1       2.586   7.305  18.538  0.00  0.00    +0.000 A 
ATOM     19  C   UNL     1       2.338   7.233  19.919  0.00  0.00    +0.000 A 
ATOM     20  C   UNL     1       1.528   8.183  20.548  0.00  0.00    +0.000 A 
BRANCH  15  22
ATOM     21  C   UNL     1       0.949  11.848  20.699  0.00  0.00    +0.000 C 
ATOM     22  S   UNL     1      -0.091  10.417  20.554  0.00  0.00    +0.000 S 
ATOM     23  O   UNL     1      -0.403   9.953  21.886  0.00  0.00    +0.000 OA
ATOM     24  O   UNL     1      -1.151  10.719  19.600  0.00  0.00    +0.000 OA
ENDBRANCH  15  22
ENDBRANCH   1  18
BRANCH  11  25
ATOM     25  O   UNL     1       4.045   3.269  16.556  0.00  0.00    +0.000 OA
ATOM     26  H   UNL     1       3.178   2.986  16.893  0.00  0.00    +0.000 HD
ENDBRANCH  11  25
TORSDOF 3
ENDMDL
MODEL 6
REMARK VINA RESULT:      -7.8      2.027      2.427
REMARK  Name = 
REMARK  4 active torsions:
REMARK  status: ('A' for Active; 'I' for Inactive)
REMARK    1  A    between atoms: C_1  and  S_2
REMARK    2  A    between atoms: S_2  and  C_5
REMARK    3  A    between atoms: C_8  and  C_9
REMARK    4  A    between atoms: C_19  and  O_20
REMARK                            x       y       z     vdW  Elec       q    Type
REMARK                         _______ _______ _______ _____ _____    ______ ____
ROOT
ATOM      1  C   UNL     1       2.881   4.769  18.087  0.00  0.00    +0.000 C 
ATOM      2  C   UNL     1       4.100   4.390  17.704  0.00  0.00    +0.000 C 
ATOM      3  C   UNL     1       5.363   5.028  17.998  0.00  0.00    +0.000 A 
ATOM      4  C   UNL     1       5.761   5.310  19.306  0.00  0.00    +0.000 A 
ATOM      5  C   UNL     1       6.914   6.051  19.528  0.00  0.00    +0.000 A 
ATOM      6  C   UNL     1       7.665   6.496  18.441  0.00  0.00    +0.000 A 
ATOM      7  C   UNL     1       7.295   6.158  17.135  0.00  0.00    +0.000 A 
ATOM      8  C   UNL     1       6.150   5.388  16.898  0.00  0.00    +0.000 A 
ATOM      9  C   UNL     1       5.726   5.039  15.486  0.00  0.00    +0.000 C 
ATOM     10  C   UNL     1       4.592   3.997  15.320  0.00  0.00    +0.000 C 
ATOM     11  C   UNL     1       4.059   3.395  16.625  0.00  0.00    +0.000 C 
ATOM     12  O   UNL     1       2.677   3.082  16.495  0.00  0.00    +0.000 OA
ATOM     13  C   UNL     1       1.962   3.904  17.321  0.00  0.00    +0.000 C 
ATOM     14  O   UNL     1       0.747   3.931  17.391  0.00  0.00    +0.000 OA
ENDROOT
BRANCH   1  18
ATOM     15  C   UNL     1       1.662   8.032  20.531  0.00  0.00    +0.000 A 
ATOM     16  C   UNL     1       2.110   8.267  19.230  0.00  0.00    +0.000 A 
ATOM     17  C   UNL     1       2.534   7.196  18.441  0.00  0.00    +0.000 A 
ATOM     18  C   UNL     1       2.498   5.888  18.941  0.00  0.00    +0.000 A 
ATOM     19  C   UNL     1       2.069   5.670  20.261  0.00  0.00    +0.000 A 
ATOM     20  C   UNL     1       1.647   6.738  21.059  0.00  0.00    +0.000 A 
BRANCH  15  22
ATOM     21  C   UNL     1      -0.516   8.897  22.039  0.00  0.00    +0.000 C 
ATOM     22  S   UNL     1       1.100   9.404  21.509  0.00  0.00    +0.000 S 
ATOM     23  O   UNL     1       0.948  10.543  20.633  0.00  0.00    +0.000 OA
ATOM     24  O   UNL     1       1.963   9.474  22.681  0.00  0.00    +0.000 OA
ENDBRANCH  15  22
ENDBRANCH   1  18
BRANCH  11  25
ATOM     25  O   UNL     1       4.790   2.239  16.998  0.00  0.00    +0.000 OA
ATOM     26  H   UNL     1       4.180   1.647  17.470  0.00  0.00    +0.000 HD
ENDBRANCH  11  25
TORSDOF 3
ENDMDL
MODEL 7
REMARK VINA RESULT:      -7.5      8.101     10.912
REMARK  Name = 
REMARK  4 active torsions:
REMARK  status: ('A' for Active; 'I' for Inactive)
REMARK    1  A    between atoms: C_1  and  S_2
REMARK    2  A    between atoms: S_2  and  C_5
REMARK    3  A    between atoms: C_8  and  C_9
REMARK    4  A    between atoms: C_19  and  O_20
REMARK                            x       y       z     vdW  Elec       q    Type
REMARK                         _______ _______ _______ _____ _____    ______ ____
ROOT
ATOM      1  C   UNL     1       8.560  15.769  18.289  0.00  0.00    +0.000 C 
ATOM      2  C   UNL     1       9.539  14.970  17.865  0.00  0.00    +0.000 C 
ATOM      3  C   UNL     1       9.684  13.548  18.082  0.00  0.00    +0.000 A 
ATOM      4  C   UNL     1       8.675  12.643  17.749  0.00  0.00    +0.000 A 
ATOM      5  C   UNL     1       8.803  11.309  18.110  0.00  0.00    +0.000 A 
ATOM      6  C   UNL     1       9.943  10.887  18.792  0.00  0.00    +0.000 A 
ATOM      7  C   UNL     1      10.979  11.787  19.068  0.00  0.00    +0.000 A 
ATOM      8  C   UNL     1      10.874  13.129  18.687  0.00  0.00    +0.000 A 
ATOM      9  C   UNL     1      11.979  14.116  19.005  0.00  0.00    +0.000 C 
ATOM     10  C   UNL     1      11.894  15.516  18.349  0.00  0.00    +0.000 C 
ATOM     11  C   UNL     1      10.709  15.724  17.399  0.00  0.00    +0.000 C 
ATOM     12  O   UNL     1      10.282  17.080  17.432  0.00  0.00    +0.000 OA
ATOM     13  C   UNL     1       9.034  17.134  17.986  0.00  0.00    +0.000 C 
ATOM     14  O   UNL     1       8.419  18.159  18.214  0.00  0.00    +0.000 OA
ENDROOT
BRANCH   1  18
ATOM     15  C   UNL     1       5.039  14.864  20.499  0.00  0.00    +0.000 A 
ATOM     16  C   UNL     1       6.274  14.909  21.147  0.00  0.00    +0.000 A 
ATOM     17  C   UNL     1       7.431  15.180  20.413  0.00  0.00    +0.000 A 
ATOM     18  C   UNL     1       7.356  15.422  19.035  0.00  0.00    +0.000 A 
ATOM     19  C   UNL     1       6.109  15.347  18.393  0.00  0.00    +0.000 A 
ATOM     20  C   UNL     1       4.947  15.072  19.121  0.00  0.00    +0.000 A 
BRANCH  15  22
ATOM     21  C   UNL     1       2.627  16.033  21.265  0.00  0.00    +0.000 C 
ATOM     22  S   UNL     1       3.576  14.546  21.456  0.00  0.00    +0.000 S 
ATOM     23  O   UNL     1       3.966  14.437  22.843  0.00  0.00    +0.000 OA
ATOM     24  O   UNL     1       2.862  13.462  20.794  0.00  0.00    +0.000 OA
ENDBRANCH  15  22
ENDBRANCH   1  18
BRANCH  11  25
ATOM     25  O   UNL     1      11.038  15.346  16.072  0.00  0.00    +0.000 OA
ATOM     26  H   UNL     1      10.301  15.619  15.500  0.00  0.00    +0.000 HD
ENDBRANCH  11  25
TORSDOF 3
ENDMDL
MODEL 8
REMARK VINA RESULT:      -7.4      7.714     10.699
REMARK  Name = 
REMARK  4 active torsions:
REMARK  status: ('A' for Active; 'I' for Inactive)
REMARK    1  A    between atoms: C_1  and  S_2
REMARK    2  A    between atoms: S_2  and  C_5
REMARK    3  A    between atoms: C_8  and  C_9
REMARK    4  A    between atoms: C_19  and  O_20
REMARK                            x       y       z     vdW  Elec       q    Type
REMARK                         _______ _______ _______ _____ _____    ______ ____
ROOT
ATOM      1  C   UNL     1       8.872  15.542  18.167  0.00  0.00    +0.000 C 
ATOM      2  C   UNL     1       9.837  14.645  17.964  0.00  0.00    +0.000 C 
ATOM      3  C   UNL     1       9.812  13.229  18.254  0.00  0.00    +0.000 A 
ATOM      4  C   UNL     1       8.805  12.394  17.766  0.00  0.00    +0.000 A 
ATOM      5  C   UNL     1       8.744  11.073  18.189  0.00  0.00    +0.000 A 
ATOM      6  C   UNL     1       9.694  10.595  19.089  0.00  0.00    +0.000 A 
ATOM      7  C   UNL     1      10.737  11.420  19.527  0.00  0.00    +0.000 A 
ATOM      8  C   UNL     1      10.826  12.745  19.087  0.00  0.00    +0.000 A 
ATOM      9  C   UNL     1      11.936  13.654  19.576  0.00  0.00    +0.000 C 
ATOM     10  C   UNL     1      12.100  15.021  18.868  0.00  0.00    +0.000 C 
ATOM     11  C   UNL     1      11.137  15.277  17.703  0.00  0.00    +0.000 C 
ATOM     12  O   UNL     1      10.835  16.664  17.609  0.00  0.00    +0.000 OA
ATOM     13  C   UNL     1       9.515  16.847  17.913  0.00  0.00    +0.000 C 
ATOM     14  O   UNL     1       8.962  17.929  17.985  0.00  0.00    +0.000 OA
ENDROOT
BRANCH   1  18
ATOM     15  C   UNL     1       4.954  14.818  19.659  0.00  0.00    +0.000 A 
ATOM     16  C   UNL     1       5.179  14.850  18.282  0.00  0.00    +0.000 A 
ATOM     17  C   UNL     1       6.461  15.114  17.797  0.00  0.00    +0.000 A 
ATOM     18  C   UNL     1       7.524  15.332  18.682  0.00  0.00    +0.000 A 
ATOM     19  C   UNL     1       7.277  15.323  20.065  0.00  0.00    +0.000 A 
ATOM     20  C   UNL     1       5.995  15.063  20.559  0.00  0.00    +0.000 A 
BRANCH  15  22
ATOM     21  C   UNL     1       2.653  13.390  19.003  0.00  0.00    +0.000 C 
ATOM     22  S   UNL     1       3.322  14.452  20.258  0.00  0.00    +0.000 S 
ATOM     23  O   UNL     1       2.561  15.681  20.257  0.00  0.00    +0.000 OA
ATOM     24  O   UNL     1       3.480  13.672  21.478  0.00  0.00    +0.000 OA
ENDBRANCH  15  22
ENDBRANCH   1  18
BRANCH  11  25
ATOM     25  O   UNL     1      11.672  14.807  16.477  0.00  0.00    +0.000 OA
ATOM     26  H   UNL     1      11.763  15.573  15.886  0.00  0.00    +0.000 HD
ENDBRANCH  11  25
TORSDOF 3
ENDMDL
MODEL 9
REMARK VINA RESULT:      -7.4      7.824     10.714
REMARK  Name = 
REMARK  4 active torsions:
REMARK  status: ('A' for Active; 'I' for Inactive)
REMARK    1  A    between atoms: C_1  and  S_2
REMARK    2  A    between atoms: S_2  and  C_5
REMARK    3  A    between atoms: C_8  and  C_9
REMARK    4  A    between atoms: C_19  and  O_20
REMARK                            x       y       z     vdW  Elec       q    Type
REMARK                         _______ _______ _______ _____ _____    ______ ____
ROOT
ATOM      1  C   UNL     1       9.176  15.415  17.997  0.00  0.00    +0.000 C 
ATOM      2  C   UNL     1      10.089  14.451  17.881  0.00  0.00    +0.000 C 
ATOM      3  C   UNL     1       9.961  13.056  18.237  0.00  0.00    +0.000 A 
ATOM      4  C   UNL     1       8.922  12.261  17.746  0.00  0.00    +0.000 A 
ATOM      5  C   UNL     1       8.760  10.970  18.230  0.00  0.00    +0.000 A 
ATOM      6  C   UNL     1       9.640  10.480  19.192  0.00  0.00    +0.000 A 
ATOM      7  C   UNL     1      10.715  11.259  19.635  0.00  0.00    +0.000 A 
ATOM      8  C   UNL     1      10.907  12.552  19.135  0.00  0.00    +0.000 A 
ATOM      9  C   UNL     1      12.052  13.414  19.628  0.00  0.00    +0.000 C 
ATOM     10  C   UNL     1      12.333  14.731  18.862  0.00  0.00    +0.000 C 
ATOM     11  C   UNL     1      11.436  14.986  17.646  0.00  0.00    +0.000 C 
ATOM     12  O   UNL     1      11.228  16.382  17.472  0.00  0.00    +0.000 OA
ATOM     13  C   UNL     1       9.911  16.662  17.709  0.00  0.00    +0.000 C 
ATOM     14  O   UNL     1       9.427  17.779  17.705  0.00  0.00    +0.000 OA
ENDROOT
BRANCH   1  18
ATOM     15  C   UNL     1       5.164  15.013  19.357  0.00  0.00    +0.000 A 
ATOM     16  C   UNL     1       5.452  14.902  17.996  0.00  0.00    +0.000 A 
ATOM     17  C   UNL     1       6.766  15.061  17.551  0.00  0.00    +0.000 A 
ATOM     18  C   UNL     1       7.797  15.316  18.464  0.00  0.00    +0.000 A 
ATOM     19  C   UNL     1       7.489  15.452  19.827  0.00  0.00    +0.000 A 
ATOM     20  C   UNL     1       6.175  15.298  20.279  0.00  0.00    +0.000 A 
BRANCH  15  22
ATOM     21  C   UNL     1       3.671  14.421  21.634  0.00  0.00    +0.000 C 
ATOM     22  S   UNL     1       3.491  14.780  19.906  0.00  0.00    +0.000 S 
ATOM     23  O   UNL     1       2.969  13.600  19.254  0.00  0.00    +0.000 OA
ATOM     24  O   UNL     1       2.817  16.065  19.775  0.00  0.00    +0.000 OA
ENDBRANCH  15  22
ENDBRANCH   1  18
BRANCH  11  25
ATOM     25  O   UNL     1      11.989  14.422  16.468  0.00  0.00    +0.000 OA
ATOM     26  H   UNL     1      12.717  13.837  16.739  0.00  0.00    +0.000 HD
ENDBRANCH  11  25
TORSDOF 3
ENDMDL
