MODEL 1
REMARK VINA RESULT:      -6.5      0.000      0.000
REMARK  Name = 
REMARK  7 active torsions:
REMARK  status: ('A' for Active; 'I' for Inactive)
REMARK    1  A    between atoms: C_1  and  C_2
REMARK    2  A    between atoms: C_2  and  C_3
REMARK    3  A    between atoms: C_2  and  N_4
REMARK    4  A    between atoms: C_5  and  C_7
REMARK    5  A    between atoms: C_7  and  C_8
REMARK    6  A    between atoms: C_12  and  C_13
REMARK    7  A    between atoms: C_17  and  C_18
REMARK                            x       y       z     vdW  Elec       q    Type
REMARK                         _______ _______ _______ _____ _____    ______ ____
ROOT
ATOM      1  C   UNL     1       0.316  10.080  19.199  0.00  0.00    +0.000 C 
ATOM      2  C   UNL     1       0.038   9.217  20.450  0.00  0.00    +0.000 C 
ATOM      3  C   UNL     1      -0.670   9.823  18.013  0.00  0.00    +0.000 C 
ATOM      4  C   UNL     1      -1.971  10.589  17.966  0.00  0.00    +0.000 C 
ATOM      5  C   UNL     1      -1.679  12.076  18.003  0.00  0.00    +0.000 C 
ATOM      6  C   UNL     1      -1.148  12.494  19.380  0.00  0.00    +0.000 C 
ATOM      7  C   UNL     1      -0.748  13.997  19.254  0.00  0.00    +0.000 C 
ATOM      8  C   UNL     1      -2.312  12.300  20.483  0.00  0.00    +0.000 C 
ATOM      9  C   UNL     1      -3.756  12.807  20.112  0.00  0.00    +0.000 C 
ATOM     10  C   UNL     1      -4.805  12.801  21.274  0.00  0.00    +0.000 C 
ATOM     11  C   UNL     1      -4.217  13.138  22.652  0.00  0.00    +0.000 C 
ATOM     12  C   UNL     1      -5.203  13.082  23.819  0.00  0.00    +0.000 C 
ATOM     13  C   UNL     1      -2.986  12.267  22.901  0.00  0.00    +0.000 C 
ATOM     14  C   UNL     1      -1.922  12.803  21.890  0.00  0.00    +0.000 C 
ATOM     15  C   UNL     1      -0.538  12.221  22.266  0.00  0.00    +0.000 C 
ATOM     16  C   UNL     1       0.578  12.040  21.187  0.00  0.00    +0.000 C 
ATOM     17  C   UNL     1       0.219  11.666  19.694  0.00  0.00    +0.000 C 
ATOM     18  C   UNL     1      -2.114  14.344  22.092  0.00  0.00    +0.000 C 
ATOM     19  C   UNL     1      -3.534  14.479  22.559  0.00  0.00    +0.000 C 
ATOM     20  O   UNL     1      -4.094  15.557  22.776  0.00  0.00    +0.000 OA
ENDROOT
BRANCH   1  22
ATOM     21  N   UNL     1       1.925   7.935  18.921  0.00  0.00    +0.000 N 
ATOM     22  C   UNL     1       1.616   9.232  18.574  0.00  0.00    +0.000 C 
ATOM     23  O   UNL     1       2.485   9.864  17.953  0.00  0.00    +0.000 OA
ATOM     24  H   UNL     1       1.230   7.383  19.401  0.00  0.00    +0.000 HD
BRANCH  21  26
ATOM     25  C   UNL     1       3.491   5.905  19.348  0.00  0.00    +0.000 C 
ATOM     26  C   UNL     1       3.244   7.253  18.647  0.00  0.00    +0.000 C 
ATOM     27  C   UNL     1       3.578   7.054  17.150  0.00  0.00    +0.000 C 
ENDBRANCH  21  26
ENDBRANCH   1  22
TORSDOF 2
ENDMDL
MODEL 2
REMARK VINA RESULT:      -6.2      1.050      1.075
REMARK  Name = 
REMARK  7 active torsions:
REMARK  status: ('A' for Active; 'I' for Inactive)
REMARK    1  A    between atoms: C_1  and  C_2
REMARK    2  A    between atoms: C_2  and  C_3
REMARK    3  A    between atoms: C_2  and  N_4
REMARK    4  A    between atoms: C_5  and  C_7
REMARK    5  A    between atoms: C_7  and  C_8
REMARK    6  A    between atoms: C_12  and  C_13
REMARK    7  A    between atoms: C_17  and  C_18
REMARK                            x       y       z     vdW  Elec       q    Type
REMARK                         _______ _______ _______ _____ _____    ______ ____
ROOT
ATOM      1  C   UNL     1       0.028   9.826  20.186  0.00  0.00    +0.000 C 
ATOM      2  C   UNL     1      -0.592   9.069  21.382  0.00  0.00    +0.000 C 
ATOM      3  C   UNL     1      -0.685   9.559  18.820  0.00  0.00    +0.000 C 
ATOM      4  C   UNL     1      -1.876  10.408  18.441  0.00  0.00    +0.000 C 
ATOM      5  C   UNL     1      -1.478  11.871  18.470  0.00  0.00    +0.000 C 
ATOM      6  C   UNL     1      -1.237  12.342  19.910  0.00  0.00    +0.000 C 
ATOM      7  C   UNL     1      -0.697  13.802  19.805  0.00  0.00    +0.000 C 
ATOM      8  C   UNL     1      -2.630  12.302  20.727  0.00  0.00    +0.000 C 
ATOM      9  C   UNL     1      -3.908  12.880  20.011  0.00  0.00    +0.000 C 
ATOM     10  C   UNL     1      -5.187  13.024  20.902  0.00  0.00    +0.000 C 
ATOM     11  C   UNL     1      -4.897  13.411  22.360  0.00  0.00    +0.000 C 
ATOM     12  C   UNL     1      -6.120  13.500  23.272  0.00  0.00    +0.000 C 
ATOM     13  C   UNL     1      -3.828  12.475  22.926  0.00  0.00    +0.000 C 
ATOM     14  C   UNL     1      -2.525  12.869  22.158  0.00  0.00    +0.000 C 
ATOM     15  C   UNL     1      -1.312  12.219  22.868  0.00  0.00    +0.000 C 
ATOM     16  C   UNL     1      -0.002  11.891  22.083  0.00  0.00    +0.000 C 
ATOM     17  C   UNL     1      -0.047  11.445  20.567  0.00  0.00    +0.000 C 
ATOM     18  C   UNL     1      -2.630  14.430  22.236  0.00  0.00    +0.000 C 
ATOM     19  C   UNL     1      -4.102  14.692  22.359  0.00  0.00    +0.000 C 
ATOM     20  O   UNL     1      -4.607  15.818  22.390  0.00  0.00    +0.000 OA
ENDROOT
BRANCH   1  22
ATOM     21  N   UNL     1       1.797   8.475  18.666  0.00  0.00    +0.000 N 
ATOM     22  C   UNL     1       1.361   8.851  19.917  0.00  0.00    +0.000 C 
ATOM     23  O   UNL     1       1.845   8.240  20.883  0.00  0.00    +0.000 OA
ATOM     24  H   UNL     1       1.446   8.971  17.860  0.00  0.00    +0.000 HD
BRANCH  21  26
ATOM     25  C   UNL     1       2.173   5.954  18.154  0.00  0.00    +0.000 C 
ATOM     26  C   UNL     1       2.770   7.354  18.386  0.00  0.00    +0.000 C 
ATOM     27  C   UNL     1       3.759   7.623  17.228  0.00  0.00    +0.000 C 
ENDBRANCH  21  26
ENDBRANCH   1  22
TORSDOF 2
ENDMDL
MODEL 3
REMARK VINA RESULT:      -6.2      7.802     11.340
REMARK  Name = 
REMARK  7 active torsions:
REMARK  status: ('A' for Active; 'I' for Inactive)
REMARK    1  A    between atoms: C_1  and  C_2
REMARK    2  A    between atoms: C_2  and  C_3
REMARK    3  A    between atoms: C_2  and  N_4
REMARK    4  A    between atoms: C_5  and  C_7
REMARK    5  A    between atoms: C_7  and  C_8
REMARK    6  A    between atoms: C_12  and  C_13
REMARK    7  A    between atoms: C_17  and  C_18
REMARK                            x       y       z     vdW  Elec       q    Type
REMARK                         _______ _______ _______ _____ _____    ______ ____
ROOT
ATOM      1  C   UNL     1       4.737  15.988  19.632  0.00  0.00    +0.000 C 
ATOM      2  C   UNL     1       4.637  15.169  18.326  0.00  0.00    +0.000 C 
ATOM      3  C   UNL     1       4.340  15.192  20.918  0.00  0.00    +0.000 C 
ATOM      4  C   UNL     1       5.396  14.374  21.624  0.00  0.00    +0.000 C 
ATOM      5  C   UNL     1       6.566  15.268  21.984  0.00  0.00    +0.000 C 
ATOM      6  C   UNL     1       7.331  15.698  20.725  0.00  0.00    +0.000 C 
ATOM      7  C   UNL     1       8.409  16.722  21.199  0.00  0.00    +0.000 C 
ATOM      8  C   UNL     1       8.024  14.404  20.051  0.00  0.00    +0.000 C 
ATOM      9  C   UNL     1       8.769  13.399  21.007  0.00  0.00    +0.000 C 
ATOM     10  C   UNL     1       9.607  12.279  20.306  0.00  0.00    +0.000 C 
ATOM     11  C   UNL     1      10.285  12.725  19.002  0.00  0.00    +0.000 C 
ATOM     12  C   UNL     1      11.062  11.637  18.260  0.00  0.00    +0.000 C 
ATOM     13  C   UNL     1       9.251  13.403  18.103  0.00  0.00    +0.000 C 
ATOM     14  C   UNL     1       8.918  14.741  18.839  0.00  0.00    +0.000 C 
ATOM     15  C   UNL     1       8.131  15.660  17.873  0.00  0.00    +0.000 C 
ATOM     16  C   UNL     1       7.148  16.746  18.418  0.00  0.00    +0.000 C 
ATOM     17  C   UNL     1       6.316  16.506  19.740  0.00  0.00    +0.000 C 
ATOM     18  C   UNL     1      10.365  15.202  19.223  0.00  0.00    +0.000 C 
ATOM     19  C   UNL     1      11.148  13.924  19.304  0.00  0.00    +0.000 C 
ATOM     20  O   UNL     1      12.333  13.855  19.641  0.00  0.00    +0.000 OA
ENDROOT
BRANCH   1  22
ATOM     21  N   UNL     1       2.305  16.570  18.625  0.00  0.00    +0.000 N 
ATOM     22  C   UNL     1       3.327  16.878  19.497  0.00  0.00    +0.000 C 
ATOM     23  O   UNL     1       3.288  18.000  20.026  0.00  0.00    +0.000 OA
ATOM     24  H   UNL     1       2.290  15.655  18.199  0.00  0.00    +0.000 HD
BRANCH  21  26
ATOM     25  C   UNL     1       1.296  18.192  16.862  0.00  0.00    +0.000 C 
ATOM     26  C   UNL     1       1.185  17.504  18.235  0.00  0.00    +0.000 C 
ATOM     27  C   UNL     1      -0.234  16.896  18.324  0.00  0.00    +0.000 C 
ENDBRANCH  21  26
ENDBRANCH   1  22
TORSDOF 2
ENDMDL
MODEL 4
REMARK VINA RESULT:      -6.1      3.290      5.177
REMARK  Name = 
REMARK  7 active torsions:
REMARK  status: ('A' for Active; 'I' for Inactive)
REMARK    1  A    between atoms: C_1  and  C_2
REMARK    2  A    between atoms: C_2  and  C_3
REMARK    3  A    between atoms: C_2  and  N_4
REMARK    4  A    between atoms: C_5  and  C_7
REMARK    5  A    between atoms: C_7  and  C_8
REMARK    6  A    between atoms: C_12  and  C_13
REMARK    7  A    between atoms: C_17  and  C_18
REMARK                            x       y       z     vdW  Elec       q    Type
REMARK                         _______ _______ _______ _____ _____    ______ ____
ROOT
ATOM      1  C   UNL     1      -1.936  12.631  20.536  0.00  0.00    +0.000 C 
ATOM      2  C   UNL     1      -1.078  13.842  20.108  0.00  0.00    +0.000 C 
ATOM      3  C   UNL     1      -1.242  11.692  21.577  0.00  0.00    +0.000 C 
ATOM      4  C   UNL     1      -1.375  12.010  23.048  0.00  0.00    +0.000 C 
ATOM      5  C   UNL     1      -2.844  12.091  23.414  0.00  0.00    +0.000 C 
ATOM      6  C   UNL     1      -3.493  13.334  22.791  0.00  0.00    +0.000 C 
ATOM      7  C   UNL     1      -5.018  13.233  23.109  0.00  0.00    +0.000 C 
ATOM      8  C   UNL     1      -2.854  14.661  23.456  0.00  0.00    +0.000 C 
ATOM      9  C   UNL     1      -2.680  14.677  25.020  0.00  0.00    +0.000 C 
ATOM     10  C   UNL     1      -2.262  16.048  25.649  0.00  0.00    +0.000 C 
ATOM     11  C   UNL     1      -2.863  17.273  24.943  0.00  0.00    +0.000 C 
ATOM     12  C   UNL     1      -2.427  18.630  25.495  0.00  0.00    +0.000 C 
ATOM     13  C   UNL     1      -2.613  17.159  23.439  0.00  0.00    +0.000 C 
ATOM     14  C   UNL     1      -3.521  15.971  22.985  0.00  0.00    +0.000 C 
ATOM     15  C   UNL     1      -3.601  15.967  21.439  0.00  0.00    +0.000 C 
ATOM     16  C   UNL     1      -3.882  14.646  20.652  0.00  0.00    +0.000 C 
ATOM     17  C   UNL     1      -3.342  13.254  21.172  0.00  0.00    +0.000 C 
ATOM     18  C   UNL     1      -4.836  16.330  23.756  0.00  0.00    +0.000 C 
ATOM     19  C   UNL     1      -4.364  17.125  24.937  0.00  0.00    +0.000 C 
ATOM     20  O   UNL     1      -5.104  17.549  25.830  0.00  0.00    +0.000 OA
ENDROOT
BRANCH   1  22
ATOM     21  N   UNL     1      -2.440  11.766  18.033  0.00  0.00    +0.000 N 
ATOM     22  C   UNL     1      -1.708  11.656  19.195  0.00  0.00    +0.000 C 
ATOM     23  O   UNL     1      -1.019  10.633  19.325  0.00  0.00    +0.000 OA
ATOM     24  H   UNL     1      -2.988  12.600  17.882  0.00  0.00    +0.000 HD
BRANCH  21  26
ATOM     25  C   UNL     1      -3.270   9.428  17.259  0.00  0.00    +0.000 C 
ATOM     26  C   UNL     1      -2.500  10.723  16.943  0.00  0.00    +0.000 C 
ATOM     27  C   UNL     1      -3.015  11.235  15.577  0.00  0.00    +0.000 C 
ENDBRANCH  21  26
ENDBRANCH   1  22
TORSDOF 2
ENDMDL
MODEL 5
REMARK VINA RESULT:      -6.0      1.401      1.704
REMARK  Name = 
REMARK  7 active torsions:
REMARK  status: ('A' for Active; 'I' for Inactive)
REMARK    1  A    between atoms: C_1  and  C_2
REMARK    2  A    between atoms: C_2  and  C_3
REMARK    3  A    between atoms: C_2  and  N_4
REMARK    4  A    between atoms: C_5  and  C_7
REMARK    5  A    between atoms: C_7  and  C_8
REMARK    6  A    between atoms: C_12  and  C_13
REMARK    7  A    between atoms: C_17  and  C_18
REMARK                            x       y       z     vdW  Elec       q    Type
REMARK                         _______ _______ _______ _____ _____    ______ ____
ROOT
ATOM      1  C   UNL     1       0.562   9.207  20.317  0.00  0.00    +0.000 C 
ATOM      2  C   UNL     1      -0.614   8.414  20.929  0.00  0.00    +0.000 C 
ATOM      3  C   UNL     1       0.365   9.584  18.812  0.00  0.00    +0.000 C 
ATOM      4  C   UNL     1      -0.368  10.860  18.470  0.00  0.00    +0.000 C 
ATOM      5  C   UNL     1       0.317  12.030  19.148  0.00  0.00    +0.000 C 
ATOM      6  C   UNL     1       0.110  11.977  20.667  0.00  0.00    +0.000 C 
ATOM      7  C   UNL     1       0.973  13.132  21.265  0.00  0.00    +0.000 C 
ATOM      8  C   UNL     1      -1.456  12.198  21.002  0.00  0.00    +0.000 C 
ATOM      9  C   UNL     1      -2.205  13.352  20.237  0.00  0.00    +0.000 C 
ATOM     10  C   UNL     1      -3.653  13.678  20.736  0.00  0.00    +0.000 C 
ATOM     11  C   UNL     1      -3.842  13.528  22.253  0.00  0.00    +0.000 C 
ATOM     12  C   UNL     1      -5.260  13.781  22.766  0.00  0.00    +0.000 C 
ATOM     13  C   UNL     1      -3.308  12.166  22.695  0.00  0.00    +0.000 C 
ATOM     14  C   UNL     1      -1.760  12.281  22.513  0.00  0.00    +0.000 C 
ATOM     15  C   UNL     1      -1.083  11.087  23.228  0.00  0.00    +0.000 C 
ATOM     16  C   UNL     1       0.311  10.555  22.762  0.00  0.00    +0.000 C 
ATOM     17  C   UNL     1       0.728  10.583  21.238  0.00  0.00    +0.000 C 
ATOM     18  C   UNL     1      -1.522  13.699  23.135  0.00  0.00    +0.000 C 
ATOM     19  C   UNL     1      -2.831  14.407  22.944  0.00  0.00    +0.000 C 
ATOM     20  O   UNL     1      -3.036  15.584  23.255  0.00  0.00    +0.000 OA
ENDROOT
BRANCH   1  22
ATOM     21  N   UNL     1       2.347   7.756  18.910  0.00  0.00    +0.000 N 
ATOM     22  C   UNL     1       1.635   7.946  20.075  0.00  0.00    +0.000 C 
ATOM     23  O   UNL     1       1.620   7.000  20.879  0.00  0.00    +0.000 OA
ATOM     24  H   UNL     1       2.404   8.515  18.248  0.00  0.00    +0.000 HD
BRANCH  21  26
ATOM     25  C   UNL     1       2.190   5.341  17.963  0.00  0.00    +0.000 C 
ATOM     26  C   UNL     1       3.058   6.481  18.526  0.00  0.00    +0.000 C 
ATOM     27  C   UNL     1       4.249   6.665  17.557  0.00  0.00    +0.000 C 
ENDBRANCH  21  26
ENDBRANCH   1  22
TORSDOF 2
ENDMDL
MODEL 6
REMARK VINA RESULT:      -5.9      4.198      6.545
REMARK  Name = 
REMARK  7 active torsions:
REMARK  status: ('A' for Active; 'I' for Inactive)
REMARK    1  A    between atoms: C_1  and  C_2
REMARK    2  A    between atoms: C_2  and  C_3
REMARK    3  A    between atoms: C_2  and  N_4
REMARK    4  A    between atoms: C_5  and  C_7
REMARK    5  A    between atoms: C_7  and  C_8
REMARK    6  A    between atoms: C_12  and  C_13
REMARK    7  A    between atoms: C_17  and  C_18
REMARK                            x       y       z     vdW  Elec       q    Type
REMARK                         _______ _______ _______ _____ _____    ______ ____
ROOT
ATOM      1  C   UNL     1      -0.254  12.765  19.092  0.00  0.00    +0.000 C 
ATOM      2  C   UNL     1       0.791  11.820  19.725  0.00  0.00    +0.000 C 
ATOM      3  C   UNL     1      -1.351  13.265  20.088  0.00  0.00    +0.000 C 
ATOM      4  C   UNL     1      -1.078  14.499  20.915  0.00  0.00    +0.000 C 
ATOM      5  C   UNL     1      -0.737  15.654  19.995  0.00  0.00    +0.000 C 
ATOM      6  C   UNL     1       0.632  15.441  19.336  0.00  0.00    +0.000 C 
ATOM      7  C   UNL     1       0.807  16.605  18.311  0.00  0.00    +0.000 C 
ATOM      8  C   UNL     1       1.784  15.494  20.467  0.00  0.00    +0.000 C 
ATOM      9  C   UNL     1       1.700  16.645  21.536  0.00  0.00    +0.000 C 
ATOM     10  C   UNL     1       2.938  16.797  22.481  0.00  0.00    +0.000 C 
ATOM     11  C   UNL     1       4.284  16.489  21.806  0.00  0.00    +0.000 C 
ATOM     12  C   UNL     1       5.509  16.568  22.717  0.00  0.00    +0.000 C 
ATOM     13  C   UNL     1       4.191  15.142  21.089  0.00  0.00    +0.000 C 
ATOM     14  C   UNL     1       3.216  15.407  19.896  0.00  0.00    +0.000 C 
ATOM     15  C   UNL     1       3.294  14.213  18.913  0.00  0.00    +0.000 C 
ATOM     16  C   UNL     1       2.085  13.850  17.992  0.00  0.00    +0.000 C 
ATOM     17  C   UNL     1       0.596  14.058  18.477  0.00  0.00    +0.000 C 
ATOM     18  C   UNL     1       3.783  16.775  19.386  0.00  0.00    +0.000 C 
ATOM     19  C   UNL     1       4.423  17.383  20.600  0.00  0.00    +0.000 C 
ATOM     20  O   UNL     1       4.940  18.503  20.625  0.00  0.00    +0.000 OA
ENDROOT
BRANCH   1  22
ATOM     21  N   UNL     1      -1.985  11.914  17.209  0.00  0.00    +0.000 N 
ATOM     22  C   UNL     1      -1.195  11.630  18.301  0.00  0.00    +0.000 C 
ATOM     23  O   UNL     1      -1.383  10.536  18.855  0.00  0.00    +0.000 OA
ATOM     24  H   UNL     1      -1.838  12.783  16.717  0.00  0.00    +0.000 HD
BRANCH  21  26
ATOM     25  C   UNL     1      -4.522  11.564  16.761  0.00  0.00    +0.000 C 
ATOM     26  C   UNL     1      -3.082  11.024  16.676  0.00  0.00    +0.000 C 
ATOM     27  C   UNL     1      -2.871  10.523  15.228  0.00  0.00    +0.000 C 
ENDBRANCH  21  26
ENDBRANCH   1  22
TORSDOF 2
ENDMDL
MODEL 7
REMARK VINA RESULT:      -5.7      3.279      7.104
REMARK  Name = 
REMARK  7 active torsions:
REMARK  status: ('A' for Active; 'I' for Inactive)
REMARK    1  A    between atoms: C_1  and  C_2
REMARK    2  A    between atoms: C_2  and  C_3
REMARK    3  A    between atoms: C_2  and  N_4
REMARK    4  A    between atoms: C_5  and  C_7
REMARK    5  A    between atoms: C_7  and  C_8
REMARK    6  A    between atoms: C_12  and  C_13
REMARK    7  A    between atoms: C_17  and  C_18
REMARK                            x       y       z     vdW  Elec       q    Type
REMARK                         _______ _______ _______ _____ _____    ______ ____
ROOT
ATOM      1  C   UNL     1      -2.700  12.858  20.745  0.00  0.00    +0.000 C 
ATOM      2  C   UNL     1      -2.897  14.391  20.735  0.00  0.00    +0.000 C 
ATOM      3  C   UNL     1      -2.843  12.186  19.340  0.00  0.00    +0.000 C 
ATOM      4  C   UNL     1      -1.629  12.102  18.445  0.00  0.00    +0.000 C 
ATOM      5  C   UNL     1      -0.511  11.389  19.181  0.00  0.00    +0.000 C 
ATOM      6  C   UNL     1       0.032  12.259  20.322  0.00  0.00    +0.000 C 
ATOM      7  C   UNL     1       1.062  11.374  21.091  0.00  0.00    +0.000 C 
ATOM      8  C   UNL     1       0.749  13.568  19.702  0.00  0.00    +0.000 C 
ATOM      9  C   UNL     1       1.708  13.356  18.472  0.00  0.00    +0.000 C 
ATOM     10  C   UNL     1       2.548  14.602  18.034  0.00  0.00    +0.000 C 
ATOM     11  C   UNL     1       2.999  15.496  19.199  0.00  0.00    +0.000 C 
ATOM     12  C   UNL     1       3.769  16.755  18.801  0.00  0.00    +0.000 C 
ATOM     13  C   UNL     1       1.793  15.818  20.082  0.00  0.00    +0.000 C 
ATOM     14  C   UNL     1       1.436  14.457  20.761  0.00  0.00    +0.000 C 
ATOM     15  C   UNL     1       0.442  14.721  21.918  0.00  0.00    +0.000 C 
ATOM     16  C   UNL     1      -0.558  13.615  22.387  0.00  0.00    +0.000 C 
ATOM     17  C   UNL     1      -1.179  12.585  21.361  0.00  0.00    +0.000 C 
ATOM     18  C   UNL     1       2.871  13.975  21.164  0.00  0.00    +0.000 C 
ATOM     19  C   UNL     1       3.776  14.647  20.173  0.00  0.00    +0.000 C 
ATOM     20  O   UNL     1       4.997  14.475  20.119  0.00  0.00    +0.000 OA
ENDROOT
BRANCH   1  22
ATOM     21  N   UNL     1      -5.351  12.388  20.594  0.00  0.00    +0.000 N 
ATOM     22  C   UNL     1      -4.195  12.403  21.344  0.00  0.00    +0.000 C 
ATOM     23  O   UNL     1      -4.327  12.300  22.574  0.00  0.00    +0.000 OA
ATOM     24  H   UNL     1      -5.277  12.440  19.589  0.00  0.00    +0.000 HD
BRANCH  21  26
ATOM     25  C   UNL     1      -7.667  13.521  20.921  0.00  0.00    +0.000 C 
ATOM     26  C   UNL     1      -6.750  12.308  21.157  0.00  0.00    +0.000 C 
ATOM     27  C   UNL     1      -7.548  11.049  20.746  0.00  0.00    +0.000 C 
ENDBRANCH  21  26
ENDBRANCH   1  22
TORSDOF 2
ENDMDL
MODEL 8
REMARK VINA RESULT:      -5.7      4.181      5.471
REMARK  Name = 
REMARK  7 active torsions:
REMARK  status: ('A' for Active; 'I' for Inactive)
REMARK    1  A    between atoms: C_1  and  C_2
REMARK    2  A    between atoms: C_2  and  C_3
REMARK    3  A    between atoms: C_2  and  N_4
REMARK    4  A    between atoms: C_5  and  C_7
REMARK    5  A    between atoms: C_7  and  C_8
REMARK    6  A    between atoms: C_12  and  C_13
REMARK    7  A    between atoms: C_17  and  C_18
REMARK                            x       y       z     vdW  Elec       q    Type
REMARK                         _______ _______ _______ _____ _____    ______ ____
ROOT
ATOM      1  C   UNL     1      -0.190  14.888  21.651  0.00  0.00    +0.000 C 
ATOM      2  C   UNL     1      -0.535  13.952  20.471  0.00  0.00    +0.000 C 
ATOM      3  C   UNL     1      -0.542  16.391  21.399  0.00  0.00    +0.000 C 
ATOM      4  C   UNL     1      -1.934  16.878  21.723  0.00  0.00    +0.000 C 
ATOM      5  C   UNL     1      -2.248  16.573  23.174  0.00  0.00    +0.000 C 
ATOM      6  C   UNL     1      -2.414  15.063  23.390  0.00  0.00    +0.000 C 
ATOM      7  C   UNL     1      -2.584  14.860  24.928  0.00  0.00    +0.000 C 
ATOM      8  C   UNL     1      -3.723  14.550  22.595  0.00  0.00    +0.000 C 
ATOM      9  C   UNL     1      -5.031  15.417  22.713  0.00  0.00    +0.000 C 
ATOM     10  C   UNL     1      -6.330  14.784  22.112  0.00  0.00    +0.000 C 
ATOM     11  C   UNL     1      -6.418  13.259  22.271  0.00  0.00    +0.000 C 
ATOM     12  C   UNL     1      -7.646  12.601  21.641  0.00  0.00    +0.000 C 
ATOM     13  C   UNL     1      -5.115  12.626  21.781  0.00  0.00    +0.000 C 
ATOM     14  C   UNL     1      -4.052  13.061  22.840  0.00  0.00    +0.000 C 
ATOM     15  C   UNL     1      -2.768  12.222  22.632  0.00  0.00    +0.000 C 
ATOM     16  C   UNL     1      -1.369  12.772  23.061  0.00  0.00    +0.000 C 
ATOM     17  C   UNL     1      -1.032  14.313  22.966  0.00  0.00    +0.000 C 
ATOM     18  C   UNL     1      -4.860  12.795  24.155  0.00  0.00    +0.000 C 
ATOM     19  C   UNL     1      -6.295  12.929  23.737  0.00  0.00    +0.000 C 
ATOM     20  O   UNL     1      -7.254  12.845  24.510  0.00  0.00    +0.000 OA
ENDROOT
BRANCH   1  22
ATOM     21  N   UNL     1       2.041  15.291  20.192  0.00  0.00    +0.000 N 
ATOM     22  C   UNL     1       1.461  15.020  21.412  0.00  0.00    +0.000 C 
ATOM     23  O   UNL     1       2.217  14.624  22.313  0.00  0.00    +0.000 OA
ATOM     24  H   UNL     1       1.460  15.642  19.446  0.00  0.00    +0.000 HD
BRANCH  21  26
ATOM     25  C   UNL     1       3.830  14.419  18.519  0.00  0.00    +0.000 C 
ATOM     26  C   UNL     1       3.502  15.096  19.863  0.00  0.00    +0.000 C 
ATOM     27  C   UNL     1       4.367  16.374  19.949  0.00  0.00    +0.000 C 
ENDBRANCH  21  26
ENDBRANCH   1  22
TORSDOF 2
ENDMDL
MODEL 9
REMARK VINA RESULT:      -5.7      4.308      6.848
REMARK  Name = 
REMARK  7 active torsions:
REMARK  status: ('A' for Active; 'I' for Inactive)
REMARK    1  A    between atoms: C_1  and  C_2
REMARK    2  A    between atoms: C_2  and  C_3
REMARK    3  A    between atoms: C_2  and  N_4
REMARK    4  A    between atoms: C_5  and  C_7
REMARK    5  A    between atoms: C_7  and  C_8
REMARK    6  A    between atoms: C_12  and  C_13
REMARK    7  A    between atoms: C_17  and  C_18
REMARK                            x       y       z     vdW  Elec       q    Type
REMARK                         _______ _______ _______ _____ _____    ______ ____
ROOT
ATOM      1  C   UNL     1      -0.483  13.285  19.485  0.00  0.00    +0.000 C 
ATOM      2  C   UNL     1       0.447  12.272  20.189  0.00  0.00    +0.000 C 
ATOM      3  C   UNL     1      -1.404  14.091  20.459  0.00  0.00    +0.000 C 
ATOM      4  C   UNL     1      -0.875  15.362  21.079  0.00  0.00    +0.000 C 
ATOM      5  C   UNL     1      -0.431  16.309  19.982  0.00  0.00    +0.000 C 
ATOM      6  C   UNL     1       0.830  15.783  19.284  0.00  0.00    +0.000 C 
ATOM      7  C   UNL     1       1.105  16.752  18.092  0.00  0.00    +0.000 C 
ATOM      8  C   UNL     1       2.063  15.794  20.329  0.00  0.00    +0.000 C 
ATOM      9  C   UNL     1       2.247  17.077  21.221  0.00  0.00    +0.000 C 
ATOM     10  C   UNL     1       3.566  17.145  22.062  0.00  0.00    +0.000 C 
ATOM     11  C   UNL     1       4.787  16.528  21.364  0.00  0.00    +0.000 C 
ATOM     12  C   UNL     1       6.079  16.523  22.183  0.00  0.00    +0.000 C 
ATOM     13  C   UNL     1       4.426  15.131  20.858  0.00  0.00    +0.000 C 
ATOM     14  C   UNL     1       3.413  15.392  19.697  0.00  0.00    +0.000 C 
ATOM     15  C   UNL     1       3.223  14.081  18.896  0.00  0.00    +0.000 C 
ATOM     16  C   UNL     1       1.903  13.804  18.107  0.00  0.00    +0.000 C 
ATOM     17  C   UNL     1       0.508  14.322  18.641  0.00  0.00    +0.000 C 
ATOM     18  C   UNL     1       4.147  16.565  18.961  0.00  0.00    +0.000 C 
ATOM     19  C   UNL     1       4.969  17.215  20.034  0.00  0.00    +0.000 C 
ATOM     20  O   UNL     1       5.657  18.226  19.866  0.00  0.00    +0.000 OA
ENDROOT
BRANCH   1  22
ATOM     21  N   UNL     1      -1.647  11.680  17.659  0.00  0.00    +0.000 N 
ATOM     22  C   UNL     1      -1.651  12.227  18.923  0.00  0.00    +0.000 C 
ATOM     23  O   UNL     1      -2.699  12.108  19.578  0.00  0.00    +0.000 OA
ATOM     24  H   UNL     1      -0.802  11.733  17.110  0.00  0.00    +0.000 HD
BRANCH  21  26
ATOM     25  C   UNL     1      -2.815  10.913  15.466  0.00  0.00    +0.000 C 
ATOM     26  C   UNL     1      -2.825  10.999  17.004  0.00  0.00    +0.000 C 
ATOM     27  C   UNL     1      -3.138   9.581  17.535  0.00  0.00    +0.000 C 
ENDBRANCH  21  26
ENDBRANCH   1  22
TORSDOF 2
ENDMDL
