MODEL 1
REMARK VINA RESULT:      -7.3      0.000      0.000
REMARK  Name = 
REMARK  3 active torsions:
REMARK  status: ('A' for Active; 'I' for Inactive)
REMARK    1  A    between atoms: N_5  and  C_6
REMARK    2  A    between atoms: N_12  and  C_13
REMARK    3  A    between atoms: C_13  and  C_14
REMARK                            x       y       z     vdW  Elec       q    Type
REMARK                         _______ _______ _______ _____ _____    ______ ____
ROOT
ATOM      1  C   UNL     1       8.345   7.971  18.228  0.00  0.00    +0.000 C 
ATOM      2  C   UNL     1       7.210   8.520  17.372  0.00  0.00    +0.000 C 
ATOM      3  O   UNL     1       6.500   7.405  16.833  0.00  0.00    +0.000 OA
ATOM      4  C   UNL     1       6.709   6.258  17.679  0.00  0.00    +0.000 C 
ATOM      5  C   UNL     1       6.944   5.068  16.741  0.00  0.00    +0.000 C 
ATOM      6  C   UNL     1       5.669   4.729  15.962  0.00  0.00    +0.000 C 
ATOM      7  N   UNL     1       4.523   4.404  16.829  0.00  0.00    +0.000 NA
ATOM      8  C   UNL     1       4.245   5.564  17.696  0.00  0.00    +0.000 C 
ATOM      9  C   UNL     1       5.447   6.021  18.532  0.00  0.00    +0.000 C 
ATOM     10  C   UNL     1       7.931   6.552  18.568  0.00  0.00    +0.000 C 
ENDROOT
BRANCH   1  15
ATOM     11  C   UNL     1      10.593  12.425  18.983  0.00  0.00    +0.000 A 
ATOM     12  C   UNL     1      10.132  11.731  17.896  0.00  0.00    +0.000 A 
ATOM     13  N   UNL     1       9.491  10.558  17.988  0.00  0.00    +0.000 NA
ATOM     14  C   UNL     1       9.274  10.057  19.212  0.00  0.00    +0.000 A 
ATOM     15  N   UNL     1       8.698   8.817  19.356  0.00  0.00    +0.000 N 
ATOM     16  N   UNL     1       9.636  10.691  20.335  0.00  0.00    +0.000 NA
ATOM     17  C   UNL     1      10.316  11.845  20.193  0.00  0.00    +0.000 A 
ATOM     18  H   UNL     1       8.124   8.781  20.193  0.00  0.00    +0.000 HD
ENDBRANCH   1  15
BRANCH   7  19
ATOM     19  C   UNL     1       4.677   3.175  17.616  0.00  0.00    +0.000 C 
BRANCH  19  20
ATOM     20  C   UNL     1       3.415   2.815  18.330  0.00  0.00    +0.000 A 
ATOM     21  C   UNL     1       2.119   2.611  17.776  0.00  0.00    +0.000 A 
ATOM     22  C   UNL     1       1.288   2.312  18.830  0.00  0.00    +0.000 A 
ATOM     23  O   UNL     1       1.982   2.313  19.997  0.00  0.00    +0.000 OA
ATOM     24  C   UNL     1       3.267   2.616  19.687  0.00  0.00    +0.000 A 
ENDBRANCH  19  20
ENDBRANCH   7  19
TORSDOF 3
ENDMDL
MODEL 2
REMARK VINA RESULT:      -6.8      1.243      1.389
REMARK  Name = 
REMARK  3 active torsions:
REMARK  status: ('A' for Active; 'I' for Inactive)
REMARK    1  A    between atoms: N_5  and  C_6
REMARK    2  A    between atoms: N_12  and  C_13
REMARK    3  A    between atoms: C_13  and  C_14
REMARK                            x       y       z     vdW  Elec       q    Type
REMARK                         _______ _______ _______ _____ _____    ______ ____
ROOT
ATOM      1  C   UNL     1       7.907   7.199  17.998  0.00  0.00    +0.000 C 
ATOM      2  C   UNL     1       6.630   7.831  17.455  0.00  0.00    +0.000 C 
ATOM      3  O   UNL     1       5.719   6.774  17.157  0.00  0.00    +0.000 OA
ATOM      4  C   UNL     1       6.057   5.621  17.954  0.00  0.00    +0.000 C 
ATOM      5  C   UNL     1       5.943   4.407  17.025  0.00  0.00    +0.000 C 
ATOM      6  C   UNL     1       4.484   4.167  16.621  0.00  0.00    +0.000 C 
ATOM      7  N   UNL     1       3.588   3.945  17.768  0.00  0.00    +0.000 NA
ATOM      8  C   UNL     1       3.640   5.132  18.642  0.00  0.00    +0.000 C 
ATOM      9  C   UNL     1       5.052   5.496  19.116  0.00  0.00    +0.000 C 
ATOM     10  C   UNL     1       7.490   5.822  18.479  0.00  0.00    +0.000 C 
ENDROOT
BRANCH   1  15
ATOM     11  C   UNL     1       9.299  12.026  18.464  0.00  0.00    +0.000 A 
ATOM     12  C   UNL     1       8.497  11.316  17.613  0.00  0.00    +0.000 A 
ATOM     13  N   UNL     1       8.237  10.009  17.763  0.00  0.00    +0.000 NA
ATOM     14  C   UNL     1       8.776   9.380  18.816  0.00  0.00    +0.000 A 
ATOM     15  N   UNL     1       8.611   8.023  18.967  0.00  0.00    +0.000 N 
ATOM     16  N   UNL     1       9.526  10.005  19.734  0.00  0.00    +0.000 NA
ATOM     17  C   UNL     1       9.796  11.306  19.519  0.00  0.00    +0.000 A 
ATOM     18  H   UNL     1       8.561   7.773  19.949  0.00  0.00    +0.000 HD
ENDBRANCH   1  15
BRANCH   7  19
ATOM     19  C   UNL     1       3.851   2.715  18.525  0.00  0.00    +0.000 C 
BRANCH  19  20
ATOM     20  C   UNL     1       3.063   2.668  19.793  0.00  0.00    +0.000 A 
ATOM     21  C   UNL     1       1.648   2.698  19.950  0.00  0.00    +0.000 A 
ATOM     22  C   UNL     1       1.406   2.644  21.302  0.00  0.00    +0.000 A 
ATOM     23  O   UNL     1       2.573   2.580  21.992  0.00  0.00    +0.000 OA
ATOM     24  C   UNL     1       3.571   2.592  21.074  0.00  0.00    +0.000 A 
ENDBRANCH  19  20
ENDBRANCH   7  19
TORSDOF 3
ENDMDL
MODEL 3
REMARK VINA RESULT:      -6.7      4.597      6.685
REMARK  Name = 
REMARK  3 active torsions:
REMARK  status: ('A' for Active; 'I' for Inactive)
REMARK    1  A    between atoms: N_5  and  C_6
REMARK    2  A    between atoms: N_12  and  C_13
REMARK    3  A    between atoms: C_13  and  C_14
REMARK                            x       y       z     vdW  Elec       q    Type
REMARK                         _______ _______ _______ _____ _____    ______ ____
ROOT
ATOM      1  C   UNL     1       2.091   5.916  20.040  0.00  0.00    +0.000 C 
ATOM      2  C   UNL     1       2.806   4.643  20.478  0.00  0.00    +0.000 C 
ATOM      3  O   UNL     1       3.581   4.183  19.371  0.00  0.00    +0.000 OA
ATOM      4  C   UNL     1       3.867   5.294  18.500  0.00  0.00    +0.000 C 
ATOM      5  C   UNL     1       3.667   4.782  17.069  0.00  0.00    +0.000 C 
ATOM      6  C   UNL     1       4.734   3.742  16.709  0.00  0.00    +0.000 C 
ATOM      7  N   UNL     1       6.111   4.254  16.820  0.00  0.00    +0.000 NA
ATOM      8  C   UNL     1       6.339   4.695  18.208  0.00  0.00    +0.000 C 
ATOM      9  C   UNL     1       5.329   5.737  18.706  0.00  0.00    +0.000 C 
ATOM     10  C   UNL     1       2.889   6.428  18.856  0.00  0.00    +0.000 C 
ENDROOT
BRANCH   1  15
ATOM     11  C   UNL     1       0.678  10.738  20.505  0.00  0.00    +0.000 A 
ATOM     12  C   UNL     1       0.724   9.824  19.486  0.00  0.00    +0.000 A 
ATOM     13  N   UNL     1       1.090   8.546  19.659  0.00  0.00    +0.000 NA
ATOM     14  C   UNL     1       1.402   8.145  20.899  0.00  0.00    +0.000 A 
ATOM     15  N   UNL     1       1.867   6.869  21.114  0.00  0.00    +0.000 N 
ATOM     16  N   UNL     1       1.330   8.952  21.966  0.00  0.00    +0.000 NA
ATOM     17  C   UNL     1       1.000  10.238  21.739  0.00  0.00    +0.000 A 
ATOM     18  H   UNL     1       1.563   6.523  22.019  0.00  0.00    +0.000 HD
ENDBRANCH   1  15
BRANCH   7  19
ATOM     19  C   UNL     1       6.451   5.313  15.862  0.00  0.00    +0.000 C 
BRANCH  19  20
ATOM     20  C   UNL     1       6.610   4.776  14.477  0.00  0.00    +0.000 A 
ATOM     21  C   UNL     1       5.790   3.825  13.804  0.00  0.00    +0.000 A 
ATOM     22  C   UNL     1       6.346   3.643  12.561  0.00  0.00    +0.000 A 
ATOM     23  O   UNL     1       7.451   4.417  12.416  0.00  0.00    +0.000 OA
ATOM     24  C   UNL     1       7.604   5.101  13.577  0.00  0.00    +0.000 A 
ENDBRANCH  19  20
ENDBRANCH   7  19
TORSDOF 3
ENDMDL
MODEL 4
REMARK VINA RESULT:      -6.5      5.113      7.002
REMARK  Name = 
REMARK  3 active torsions:
REMARK  status: ('A' for Active; 'I' for Inactive)
REMARK    1  A    between atoms: N_5  and  C_6
REMARK    2  A    between atoms: N_12  and  C_13
REMARK    3  A    between atoms: C_13  and  C_14
REMARK                            x       y       z     vdW  Elec       q    Type
REMARK                         _______ _______ _______ _____ _____    ______ ____
ROOT
ATOM      1  C   UNL     1       1.307   8.813  18.823  0.00  0.00    +0.000 C 
ATOM      2  C   UNL     1       2.067   8.302  20.041  0.00  0.00    +0.000 C 
ATOM      3  O   UNL     1       2.470   6.960  19.766  0.00  0.00    +0.000 OA
ATOM      4  C   UNL     1       2.535   6.771  18.338  0.00  0.00    +0.000 C 
ATOM      5  C   UNL     1       1.910   5.399  18.057  0.00  0.00    +0.000 C 
ATOM      6  C   UNL     1       2.785   4.276  18.623  0.00  0.00    +0.000 C 
ATOM      7  N   UNL     1       4.154   4.270  18.079  0.00  0.00    +0.000 NA
ATOM      8  C   UNL     1       4.791   5.562  18.395  0.00  0.00    +0.000 C 
ATOM      9  C   UNL     1       4.011   6.782  17.893  0.00  0.00    +0.000 C 
ATOM     10  C   UNL     1       1.748   7.918  17.680  0.00  0.00    +0.000 C 
ENDROOT
BRANCH   1  15
ATOM     11  C   UNL     1      -1.492  12.961  19.466  0.00  0.00    +0.000 A 
ATOM     12  C   UNL     1      -1.587  11.647  19.838  0.00  0.00    +0.000 A 
ATOM     13  N   UNL     1      -0.635  10.739  19.586  0.00  0.00    +0.000 NA
ATOM     14  C   UNL     1       0.474  11.151  18.957  0.00  0.00    +0.000 A 
ATOM     15  N   UNL     1       1.441  10.242  18.597  0.00  0.00    +0.000 N 
ATOM     16  N   UNL     1       0.682  12.427  18.606  0.00  0.00    +0.000 NA
ATOM     17  C   UNL     1      -0.320  13.296  18.841  0.00  0.00    +0.000 A 
ATOM     18  H   UNL     1       2.365  10.661  18.647  0.00  0.00    +0.000 HD
ENDBRANCH   1  15
BRANCH   7  19
ATOM     19  C   UNL     1       4.244   3.968  16.646  0.00  0.00    +0.000 C 
BRANCH  19  20
ATOM     20  C   UNL     1       5.582   4.331  16.088  0.00  0.00    +0.000 A 
ATOM     21  C   UNL     1       5.884   4.851  14.798  0.00  0.00    +0.000 A 
ATOM     22  C   UNL     1       7.249   5.010  14.752  0.00  0.00    +0.000 A 
ATOM     23  O   UNL     1       7.811   4.627  15.927  0.00  0.00    +0.000 OA
ATOM     24  C   UNL     1       6.798   4.220  16.731  0.00  0.00    +0.000 A 
ENDBRANCH  19  20
ENDBRANCH   7  19
TORSDOF 3
ENDMDL
MODEL 5
REMARK VINA RESULT:      -6.4      4.333      6.684
REMARK  Name = 
REMARK  3 active torsions:
REMARK  status: ('A' for Active; 'I' for Inactive)
REMARK    1  A    between atoms: N_5  and  C_6
REMARK    2  A    between atoms: N_12  and  C_13
REMARK    3  A    between atoms: C_13  and  C_14
REMARK                            x       y       z     vdW  Elec       q    Type
REMARK                         _______ _______ _______ _____ _____    ______ ____
ROOT
ATOM      1  C   UNL     1       6.239   4.975  16.827  0.00  0.00    +0.000 C 
ATOM      2  C   UNL     1       4.915   4.383  16.359  0.00  0.00    +0.000 C 
ATOM      3  O   UNL     1       3.960   4.588  17.399  0.00  0.00    +0.000 OA
ATOM      4  C   UNL     1       4.376   5.706  18.209  0.00  0.00    +0.000 C 
ATOM      5  C   UNL     1       4.132   5.296  19.666  0.00  0.00    +0.000 C 
ATOM      6  C   UNL     1       2.632   5.168  19.951  0.00  0.00    +0.000 C 
ATOM      7  N   UNL     1       1.880   6.409  19.697  0.00  0.00    +0.000 NA
ATOM      8  C   UNL     1       2.055   6.783  18.282  0.00  0.00    +0.000 C 
ATOM      9  C   UNL     1       3.519   6.937  17.853  0.00  0.00    +0.000 C 
ATOM     10  C   UNL     1       5.865   5.963  17.916  0.00  0.00    +0.000 C 
ENDROOT
BRANCH   1  15
ATOM     11  C   UNL     1       7.056   3.997  11.945  0.00  0.00    +0.000 A 
ATOM     12  C   UNL     1       6.151   3.590  12.888  0.00  0.00    +0.000 A 
ATOM     13  N   UNL     1       6.117   4.077  14.136  0.00  0.00    +0.000 NA
ATOM     14  C   UNL     1       7.004   5.027  14.462  0.00  0.00    +0.000 A 
ATOM     15  N   UNL     1       7.067   5.497  15.753  0.00  0.00    +0.000 N 
ATOM     16  N   UNL     1       7.889   5.530  13.590  0.00  0.00    +0.000 NA
ATOM     17  C   UNL     1       7.915   4.980  12.361  0.00  0.00    +0.000 A 
ATOM     18  H   UNL     1       7.324   6.479  15.766  0.00  0.00    +0.000 HD
ENDBRANCH   1  15
BRANCH   7  19
ATOM     19  C   UNL     1       2.216   7.525  20.589  0.00  0.00    +0.000 C 
BRANCH  19  20
ATOM     20  C   UNL     1       1.131   8.550  20.624  0.00  0.00    +0.000 A 
ATOM     21  C   UNL     1       0.921   9.639  19.730  0.00  0.00    +0.000 A 
ATOM     22  C   UNL     1      -0.195  10.303  20.181  0.00  0.00    +0.000 A 
ATOM     23  O   UNL     1      -0.692   9.699  21.290  0.00  0.00    +0.000 OA
ATOM     24  C   UNL     1       0.113   8.639  21.551  0.00  0.00    +0.000 A 
ENDBRANCH  19  20
ENDBRANCH   7  19
TORSDOF 3
ENDMDL
MODEL 6
REMARK VINA RESULT:      -6.4      4.671      6.451
REMARK  Name = 
REMARK  3 active torsions:
REMARK  status: ('A' for Active; 'I' for Inactive)
REMARK    1  A    between atoms: N_5  and  C_6
REMARK    2  A    between atoms: N_12  and  C_13
REMARK    3  A    between atoms: C_13  and  C_14
REMARK                            x       y       z     vdW  Elec       q    Type
REMARK                         _______ _______ _______ _____ _____    ______ ____
ROOT
ATOM      1  C   UNL     1       3.112   5.247  19.426  0.00  0.00    +0.000 C 
ATOM      2  C   UNL     1       4.610   5.229  19.710  0.00  0.00    +0.000 C 
ATOM      3  O   UNL     1       5.265   4.754  18.534  0.00  0.00    +0.000 OA
ATOM      4  C   UNL     1       4.422   5.000  17.392  0.00  0.00    +0.000 C 
ATOM      5  C   UNL     1       4.493   3.737  16.525  0.00  0.00    +0.000 C 
ATOM      6  C   UNL     1       5.892   3.567  15.925  0.00  0.00    +0.000 C 
ATOM      7  N   UNL     1       6.317   4.709  15.098  0.00  0.00    +0.000 NA
ATOM      8  C   UNL     1       6.313   5.923  15.935  0.00  0.00    +0.000 C 
ATOM      9  C   UNL     1       4.967   6.211  16.611  0.00  0.00    +0.000 C 
ATOM     10  C   UNL     1       2.999   5.271  17.914  0.00  0.00    +0.000 C 
ENDROOT
BRANCH   1  15
ATOM     11  C   UNL     1       1.451   9.918  18.489  0.00  0.00    +0.000 A 
ATOM     12  C   UNL     1       1.991   8.902  17.746  0.00  0.00    +0.000 A 
ATOM     13  N   UNL     1       2.289   7.697  18.252  0.00  0.00    +0.000 NA
ATOM     14  C   UNL     1       2.021   7.477  19.546  0.00  0.00    +0.000 A 
ATOM     15  N   UNL     1       2.388   6.289  20.134  0.00  0.00    +0.000 N 
ATOM     16  N   UNL     1       1.441   8.390  20.337  0.00  0.00    +0.000 NA
ATOM     17  C   UNL     1       1.199   9.600  19.798  0.00  0.00    +0.000 A 
ATOM     18  H   UNL     1       1.721   6.021  20.851  0.00  0.00    +0.000 HD
ENDBRANCH   1  15
BRANCH   7  19
ATOM     19  C   UNL     1       5.535   4.905  13.872  0.00  0.00    +0.000 C 
BRANCH  19  20
ATOM     20  C   UNL     1       5.823   3.847  12.858  0.00  0.00    +0.000 A 
ATOM     21  C   UNL     1       4.901   2.971  12.215  0.00  0.00    +0.000 A 
ATOM     22  C   UNL     1       5.643   2.172  11.379  0.00  0.00    +0.000 A 
ATOM     23  O   UNL     1       6.959   2.494  11.456  0.00  0.00    +0.000 OA
ATOM     24  C   UNL     1       7.060   3.508  12.350  0.00  0.00    +0.000 A 
ENDBRANCH  19  20
ENDBRANCH   7  19
TORSDOF 3
ENDMDL
MODEL 7
REMARK VINA RESULT:      -6.3      4.461      6.997
REMARK  Name = 
REMARK  3 active torsions:
REMARK  status: ('A' for Active; 'I' for Inactive)
REMARK    1  A    between atoms: N_5  and  C_6
REMARK    2  A    between atoms: N_12  and  C_13
REMARK    3  A    between atoms: C_13  and  C_14
REMARK                            x       y       z     vdW  Elec       q    Type
REMARK                         _______ _______ _______ _____ _____    ______ ____
ROOT
ATOM      1  C   UNL     1       6.474   4.880  14.521  0.00  0.00    +0.000 C 
ATOM      2  C   UNL     1       7.387   5.129  15.716  0.00  0.00    +0.000 C 
ATOM      3  O   UNL     1       6.575   5.615  16.784  0.00  0.00    +0.000 OA
ATOM      4  C   UNL     1       5.216   5.178  16.581  0.00  0.00    +0.000 C 
ATOM      5  C   UNL     1       4.323   6.379  16.914  0.00  0.00    +0.000 C 
ATOM      6  C   UNL     1       4.389   6.707  18.409  0.00  0.00    +0.000 C 
ATOM      7  N   UNL     1       3.982   5.586  19.273  0.00  0.00    +0.000 NA
ATOM      8  C   UNL     1       4.872   4.441  19.008  0.00  0.00    +0.000 C 
ATOM      9  C   UNL     1       4.912   4.008  17.537  0.00  0.00    +0.000 C 
ATOM     10  C   UNL     1       5.083   4.742  15.110  0.00  0.00    +0.000 C 
ENDROOT
BRANCH   1  15
ATOM     11  C   UNL     1       4.562   2.121  10.754  0.00  0.00    +0.000 A 
ATOM     12  C   UNL     1       4.181   3.245  11.437  0.00  0.00    +0.000 A 
ATOM     13  N   UNL     1       4.937   3.826  12.378  0.00  0.00    +0.000 NA
ATOM     14  C   UNL     1       6.134   3.286  12.643  0.00  0.00    +0.000 A 
ATOM     15  N   UNL     1       6.909   3.793  13.660  0.00  0.00    +0.000 N 
ATOM     16  N   UNL     1       6.616   2.222  11.987  0.00  0.00    +0.000 NA
ATOM     17  C   UNL     1       5.805   1.646  11.079  0.00  0.00    +0.000 A 
ATOM     18  H   UNL     1       7.896   3.712  13.435  0.00  0.00    +0.000 HD
ENDBRANCH   1  15
BRANCH   7  19
ATOM     19  C   UNL     1       2.571   5.202  19.157  0.00  0.00    +0.000 C 
BRANCH  19  20
ATOM     20  C   UNL     1       2.178   4.216  20.209  0.00  0.00    +0.000 A 
ATOM     21  C   UNL     1       1.357   3.062  20.069  0.00  0.00    +0.000 A 
ATOM     22  C   UNL     1       1.278   2.486  21.315  0.00  0.00    +0.000 A 
ATOM     23  O   UNL     1       1.998   3.203  22.215  0.00  0.00    +0.000 OA
ATOM     24  C   UNL     1       2.541   4.246  21.540  0.00  0.00    +0.000 A 
ENDBRANCH  19  20
ENDBRANCH   7  19
TORSDOF 3
ENDMDL
MODEL 8
REMARK VINA RESULT:      -6.2      6.450      8.516
REMARK  Name = 
REMARK  3 active torsions:
REMARK  status: ('A' for Active; 'I' for Inactive)
REMARK    1  A    between atoms: N_5  and  C_6
REMARK    2  A    between atoms: N_12  and  C_13
REMARK    3  A    between atoms: C_13  and  C_14
REMARK                            x       y       z     vdW  Elec       q    Type
REMARK                         _______ _______ _______ _____ _____    ______ ____
ROOT
ATOM      1  C   UNL     1       2.804   7.627  18.521  0.00  0.00    +0.000 C 
ATOM      2  C   UNL     1       2.087   7.663  19.865  0.00  0.00    +0.000 C 
ATOM      3  O   UNL     1       1.403   8.912  19.955  0.00  0.00    +0.000 OA
ATOM      4  C   UNL     1       1.156   9.412  18.626  0.00  0.00    +0.000 C 
ATOM      5  C   UNL     1       1.468  10.913  18.666  0.00  0.00    +0.000 C 
ATOM      6  C   UNL     1       0.452  11.657  19.538  0.00  0.00    +0.000 C 
ATOM      7  N   UNL     1      -0.939  11.495  19.083  0.00  0.00    +0.000 NA
ATOM      8  C   UNL     1      -1.275  10.059  19.098  0.00  0.00    +0.000 C 
ATOM      9  C   UNL     1      -0.326   9.187  18.267  0.00  0.00    +0.000 C 
ATOM     10  C   UNL     1       2.083   8.648  17.663  0.00  0.00    +0.000 C 
ENDROOT
BRANCH   1  15
ATOM     11  C   UNL     1       6.342   4.907  16.166  0.00  0.00    +0.000 A 
ATOM     12  C   UNL     1       6.307   6.103  16.832  0.00  0.00    +0.000 A 
ATOM     13  N   UNL     1       5.211   6.574  17.443  0.00  0.00    +0.000 NA
ATOM     14  C   UNL     1       4.104   5.819  17.416  0.00  0.00    +0.000 A 
ATOM     15  N   UNL     1       2.931   6.296  17.952  0.00  0.00    +0.000 N 
ATOM     16  N   UNL     1       4.060   4.610  16.840  0.00  0.00    +0.000 NA
ATOM     17  C   UNL     1       5.171   4.197  16.201  0.00  0.00    +0.000 A 
ATOM     18  H   UNL     1       2.384   5.539  18.351  0.00  0.00    +0.000 HD
ENDBRANCH   1  15
BRANCH   7  19
ATOM     19  C   UNL     1      -1.233  12.097  17.777  0.00  0.00    +0.000 C 
BRANCH  19  20
ATOM     20  C   UNL     1      -2.554  11.647  17.246  0.00  0.00    +0.000 A 
ATOM     21  C   UNL     1      -3.829  11.731  17.875  0.00  0.00    +0.000 A 
ATOM     22  C   UNL     1      -4.733  11.177  16.999  0.00  0.00    +0.000 A 
ATOM     23  O   UNL     1      -4.105  10.759  15.871  0.00  0.00    +0.000 OA
ATOM     24  C   UNL     1      -2.789  11.048  16.025  0.00  0.00    +0.000 A 
ENDBRANCH  19  20
ENDBRANCH   7  19
TORSDOF 3
ENDMDL
MODEL 9
REMARK VINA RESULT:      -6.2      4.008     10.776
REMARK  Name = 
REMARK  3 active torsions:
REMARK  status: ('A' for Active; 'I' for Inactive)
REMARK    1  A    between atoms: N_5  and  C_6
REMARK    2  A    between atoms: N_12  and  C_13
REMARK    3  A    between atoms: C_13  and  C_14
REMARK                            x       y       z     vdW  Elec       q    Type
REMARK                         _______ _______ _______ _____ _____    ______ ____
ROOT
ATOM      1  C   UNL     1       9.232   9.741  18.449  0.00  0.00    +0.000 C 
ATOM      2  C   UNL     1       8.995  10.308  19.844  0.00  0.00    +0.000 C 
ATOM      3  O   UNL     1       9.975  11.321  20.068  0.00  0.00    +0.000 OA
ATOM      4  C   UNL     1      10.429  11.829  18.798  0.00  0.00    +0.000 C 
ATOM      5  C   UNL     1      11.951  11.975  18.913  0.00  0.00    +0.000 C 
ATOM      6  C   UNL     1      12.317  13.081  19.908  0.00  0.00    +0.000 C 
ATOM      7  N   UNL     1      11.760  14.397  19.552  0.00  0.00    +0.000 NA
ATOM      8  C   UNL     1      10.291  14.287  19.497  0.00  0.00    +0.000 C 
ATOM      9  C   UNL     1       9.781  13.203  18.540  0.00  0.00    +0.000 C 
ATOM     10  C   UNL     1      10.020  10.811  17.718  0.00  0.00    +0.000 C 
ENDROOT
BRANCH   1  15
ATOM     11  C   UNL     1       6.760   5.385  17.839  0.00  0.00    +0.000 A 
ATOM     12  C   UNL     1       7.809   5.817  18.605  0.00  0.00    +0.000 A 
ATOM     13  N   UNL     1       8.233   7.089  18.623  0.00  0.00    +0.000 NA
ATOM     14  C   UNL     1       7.576   7.980  17.868  0.00  0.00    +0.000 A 
ATOM     15  N   UNL     1       8.025   9.277  17.785  0.00  0.00    +0.000 N 
ATOM     16  N   UNL     1       6.503   7.662  17.132  0.00  0.00    +0.000 NA
ATOM     17  C   UNL     1       6.139   6.365  17.110  0.00  0.00    +0.000 A 
ATOM     18  H   UNL     1       7.247   9.920  17.678  0.00  0.00    +0.000 HD
ENDBRANCH   1  15
BRANCH   7  19
ATOM     19  C   UNL     1      12.297  14.977  18.315  0.00  0.00    +0.000 C 
BRANCH  19  20
ATOM     20  C   UNL     1      11.963  16.428  18.195  0.00  0.00    +0.000 A 
ATOM     21  C   UNL     1      11.306  17.093  17.121  0.00  0.00    +0.000 A 
ATOM     22  C   UNL     1      11.241  18.422  17.467  0.00  0.00    +0.000 A 
ATOM     23  O   UNL     1      11.809  18.624  18.683  0.00  0.00    +0.000 OA
ATOM     24  C   UNL     1      12.241  17.415  19.119  0.00  0.00    +0.000 A 
ENDBRANCH  19  20
ENDBRANCH   7  19
TORSDOF 3
ENDMDL
