MODEL 1
REMARK VINA RESULT:      -6.8      0.000      0.000
REMARK  Name = 
REMARK  10 active torsions:
REMARK  status: ('A' for Active; 'I' for Inactive)
REMARK    1  A    between atoms: C_1  and  O_2
REMARK    2  A    between atoms: O_2  and  C_3
REMARK    3  A    between atoms: C_5  and  O_6
REMARK    4  A    between atoms: O_6  and  C_7
REMARK    5  A    between atoms: C_9  and  C_10
REMARK    6  A    between atoms: C_10  and  C_11
REMARK    7  A    between atoms: C_13  and  C_14
REMARK    8  A    between atoms: C_15  and  C_16
REMARK    9  A    between atoms: C_18  and  C_19
REMARK   10  A    between atoms: C_21  and  C_22
REMARK                            x       y       z     vdW  Elec       q    Type
REMARK                         _______ _______ _______ _____ _____    ______ ____
ROOT
ATOM      1  C   UNL     1       5.123   3.985  16.622  0.00  0.00    +0.000 C 
ATOM      2  C   UNL     1       3.856   3.549  16.816  0.00  0.00    +0.000 C 
ENDROOT
BRANCH   2   3
ATOM      3  C   UNL     1       3.189   3.422  18.139  0.00  0.00    +0.000 A 
ATOM      4  C   UNL     1       2.480   4.517  18.691  0.00  0.00    +0.000 A 
ATOM      5  C   UNL     1       2.374   5.865  18.025  0.00  0.00    +0.000 C 
ATOM      6  C   UNL     1       1.854   4.385  19.946  0.00  0.00    +0.000 A 
ATOM      7  C   UNL     1       1.888   3.184  20.655  0.00  0.00    +0.000 A 
ATOM      8  C   UNL     1       1.185   3.037  21.972  0.00  0.00    +0.000 C 
ATOM      9  C   UNL     1       2.573   2.101  20.100  0.00  0.00    +0.000 A 
ATOM     10  C   UNL     1       3.254   2.212  18.870  0.00  0.00    +0.000 A 
ATOM     11  C   UNL     1       3.978   0.988  18.377  0.00  0.00    +0.000 C 
ENDBRANCH   2   3
BRANCH   1  16
ATOM     12  C   UNL     1       5.812   3.622  12.891  0.00  0.00    +0.000 A 
ATOM     13  C   UNL     1       6.928   4.449  12.756  0.00  0.00    +0.000 A 
ATOM     14  C   UNL     1       7.470   5.101  13.862  0.00  0.00    +0.000 A 
ATOM     15  C   UNL     1       6.861   4.964  15.110  0.00  0.00    +0.000 A 
ATOM     16  C   UNL     1       5.732   4.143  15.278  0.00  0.00    +0.000 A 
ATOM     17  C   UNL     1       5.224   3.468  14.149  0.00  0.00    +0.000 A 
BRANCH  12  19
ATOM     18  C   UNL     1       4.076   3.241  11.302  0.00  0.00    +0.000 C 
ATOM     19  O   UNL     1       5.412   3.014  11.734  0.00  0.00    +0.000 OA
ENDBRANCH  12  19
BRANCH  14  20
ATOM     20  O   UNL     1       8.574   5.869  13.610  0.00  0.00    +0.000 OA
ATOM     21  C   UNL     1       8.757   6.247  12.249  0.00  0.00    +0.000 C 
ENDBRANCH  14  20
ENDBRANCH   1  16
BRANCH   1  22
ATOM     22  C   UNL     1       5.907   4.377  17.864  0.00  0.00    +0.000 C 
ATOM     23  N   UNL     1       6.559   4.702  18.894  0.00  0.00    +0.000 NA
ENDBRANCH   1  22
TORSDOF 5
ENDMDL
MODEL 2
REMARK VINA RESULT:      -6.8      0.152      1.828
REMARK  Name = 
REMARK  10 active torsions:
REMARK  status: ('A' for Active; 'I' for Inactive)
REMARK    1  A    between atoms: C_1  and  O_2
REMARK    2  A    between atoms: O_2  and  C_3
REMARK    3  A    between atoms: C_5  and  O_6
REMARK    4  A    between atoms: O_6  and  C_7
REMARK    5  A    between atoms: C_9  and  C_10
REMARK    6  A    between atoms: C_10  and  C_11
REMARK    7  A    between atoms: C_13  and  C_14
REMARK    8  A    between atoms: C_15  and  C_16
REMARK    9  A    between atoms: C_18  and  C_19
REMARK   10  A    between atoms: C_21  and  C_22
REMARK                            x       y       z     vdW  Elec       q    Type
REMARK                         _______ _______ _______ _____ _____    ______ ____
ROOT
ATOM      1  C   UNL     1       5.193   4.022  16.539  0.00  0.00    +0.000 C 
ATOM      2  C   UNL     1       3.912   3.633  16.749  0.00  0.00    +0.000 C 
ENDROOT
BRANCH   2   3
ATOM      3  C   UNL     1       3.257   3.529  18.079  0.00  0.00    +0.000 A 
ATOM      4  C   UNL     1       3.284   2.308  18.796  0.00  0.00    +0.000 A 
ATOM      5  C   UNL     1       3.926   1.048  18.277  0.00  0.00    +0.000 C 
ATOM      6  C   UNL     1       2.659   2.222  20.056  0.00  0.00    +0.000 A 
ATOM      7  C   UNL     1       2.032   3.325  20.636  0.00  0.00    +0.000 A 
ATOM      8  C   UNL     1       1.403   3.238  21.995  0.00  0.00    +0.000 C 
ATOM      9  C   UNL     1       2.023   4.533  19.934  0.00  0.00    +0.000 A 
ATOM     10  C   UNL     1       2.594   4.641  18.649  0.00  0.00    +0.000 A 
ATOM     11  C   UNL     1       2.507   5.984  17.976  0.00  0.00    +0.000 C 
ENDBRANCH   2   3
BRANCH   1  16
ATOM     12  C   UNL     1       5.856   3.596  12.811  0.00  0.00    +0.000 A 
ATOM     13  C   UNL     1       6.967   4.425  12.653  0.00  0.00    +0.000 A 
ATOM     14  C   UNL     1       7.513   5.100  13.743  0.00  0.00    +0.000 A 
ATOM     15  C   UNL     1       6.914   4.983  14.998  0.00  0.00    +0.000 A 
ATOM     16  C   UNL     1       5.791   4.159  15.188  0.00  0.00    +0.000 A 
ATOM     17  C   UNL     1       5.278   3.462  14.076  0.00  0.00    +0.000 A 
BRANCH  12  19
ATOM     18  C   UNL     1       4.117   3.194  11.230  0.00  0.00    +0.000 C 
ATOM     19  O   UNL     1       5.451   2.965  11.668  0.00  0.00    +0.000 OA
ENDBRANCH  12  19
BRANCH  14  20
ATOM     20  O   UNL     1       8.612   5.869  13.470  0.00  0.00    +0.000 OA
ATOM     21  C   UNL     1       8.696   6.360  12.135  0.00  0.00    +0.000 C 
ENDBRANCH  14  20
ENDBRANCH   1  16
BRANCH   1  22
ATOM     22  C   UNL     1       6.005   4.385  17.773  0.00  0.00    +0.000 C 
ATOM     23  N   UNL     1       6.678   4.686  18.796  0.00  0.00    +0.000 NA
ENDBRANCH   1  22
TORSDOF 5
ENDMDL
MODEL 3
REMARK VINA RESULT:      -6.8      0.235      3.005
REMARK  Name = 
REMARK  10 active torsions:
REMARK  status: ('A' for Active; 'I' for Inactive)
REMARK    1  A    between atoms: C_1  and  O_2
REMARK    2  A    between atoms: O_2  and  C_3
REMARK    3  A    between atoms: C_5  and  O_6
REMARK    4  A    between atoms: O_6  and  C_7
REMARK    5  A    between atoms: C_9  and  C_10
REMARK    6  A    between atoms: C_10  and  C_11
REMARK    7  A    between atoms: C_13  and  C_14
REMARK    8  A    between atoms: C_15  and  C_16
REMARK    9  A    between atoms: C_18  and  C_19
REMARK   10  A    between atoms: C_21  and  C_22
REMARK                            x       y       z     vdW  Elec       q    Type
REMARK                         _______ _______ _______ _____ _____    ______ ____
ROOT
ATOM      1  C   UNL     1       5.269   4.035  16.486  0.00  0.00    +0.000 C 
ATOM      2  C   UNL     1       3.983   3.656  16.677  0.00  0.00    +0.000 C 
ENDROOT
BRANCH   2   3
ATOM      3  C   UNL     1       3.308   3.558  17.998  0.00  0.00    +0.000 A 
ATOM      4  C   UNL     1       3.302   2.333  18.710  0.00  0.00    +0.000 A 
ATOM      5  C   UNL     1       3.927   1.064  18.192  0.00  0.00    +0.000 C 
ATOM      6  C   UNL     1       2.658   2.253  19.960  0.00  0.00    +0.000 A 
ATOM      7  C   UNL     1       2.044   3.365  20.537  0.00  0.00    +0.000 A 
ATOM      8  C   UNL     1       1.394   3.284  21.887  0.00  0.00    +0.000 C 
ATOM      9  C   UNL     1       2.067   4.576  19.841  0.00  0.00    +0.000 A 
ATOM     10  C   UNL     1       2.657   4.680  18.565  0.00  0.00    +0.000 A 
ATOM     11  C   UNL     1       2.604   6.028  17.896  0.00  0.00    +0.000 C 
ENDBRANCH   2   3
BRANCH   1  16
ATOM     12  C   UNL     1       7.564   5.124  13.645  0.00  0.00    +0.000 A 
ATOM     13  C   UNL     1       7.014   4.405  12.584  0.00  0.00    +0.000 A 
ATOM     14  C   UNL     1       5.898   3.594  12.775  0.00  0.00    +0.000 A 
ATOM     15  C   UNL     1       5.353   3.459  14.053  0.00  0.00    +0.000 A 
ATOM     16  C   UNL     1       5.888   4.166  15.144  0.00  0.00    +0.000 A 
ATOM     17  C   UNL     1       6.996   5.006  14.917  0.00  0.00    +0.000 A 
BRANCH  12  19
ATOM     18  C   UNL     1       8.671   6.427  11.984  0.00  0.00    +0.000 C 
ATOM     19  O   UNL     1       8.630   5.911  13.308  0.00  0.00    +0.000 OA
ENDBRANCH  12  19
BRANCH  14  20
ATOM     20  O   UNL     1       5.436   2.953  11.657  0.00  0.00    +0.000 OA
ATOM     21  C   UNL     1       4.081   3.227  11.313  0.00  0.00    +0.000 C 
ENDBRANCH  14  20
ENDBRANCH   1  16
BRANCH   1  22
ATOM     22  C   UNL     1       6.066   4.391  17.731  0.00  0.00    +0.000 C 
ATOM     23  N   UNL     1       6.728   4.687  18.763  0.00  0.00    +0.000 NA
ENDBRANCH   1  22
TORSDOF 5
ENDMDL
MODEL 4
REMARK VINA RESULT:      -6.8      0.322      2.394
REMARK  Name = 
REMARK  10 active torsions:
REMARK  status: ('A' for Active; 'I' for Inactive)
REMARK    1  A    between atoms: C_1  and  O_2
REMARK    2  A    between atoms: O_2  and  C_3
REMARK    3  A    between atoms: C_5  and  O_6
REMARK    4  A    between atoms: O_6  and  C_7
REMARK    5  A    between atoms: C_9  and  C_10
REMARK    6  A    between atoms: C_10  and  C_11
REMARK    7  A    between atoms: C_13  and  C_14
REMARK    8  A    between atoms: C_15  and  C_16
REMARK    9  A    between atoms: C_18  and  C_19
REMARK   10  A    between atoms: C_21  and  C_22
REMARK                            x       y       z     vdW  Elec       q    Type
REMARK                         _______ _______ _______ _____ _____    ______ ____
ROOT
ATOM      1  C   UNL     1       5.342   4.038  16.461  0.00  0.00    +0.000 C 
ATOM      2  C   UNL     1       4.055   3.674  16.678  0.00  0.00    +0.000 C 
ENDROOT
BRANCH   2   3
ATOM      3  C   UNL     1       3.404   3.591  18.012  0.00  0.00    +0.000 A 
ATOM      4  C   UNL     1       2.812   4.740  18.591  0.00  0.00    +0.000 A 
ATOM      5  C   UNL     1       2.820   6.100  17.945  0.00  0.00    +0.000 C 
ATOM      6  C   UNL     1       2.199   4.648  19.856  0.00  0.00    +0.000 A 
ATOM      7  C   UNL     1       2.133   3.440  20.550  0.00  0.00    +0.000 A 
ATOM      8  C   UNL     1       1.443   3.339  21.878  0.00  0.00    +0.000 C 
ATOM      9  C   UNL     1       2.702   2.304  19.967  0.00  0.00    +0.000 A 
ATOM     10  C   UNL     1       3.368   2.370  18.726  0.00  0.00    +0.000 A 
ATOM     11  C   UNL     1       3.964   1.090  18.203  0.00  0.00    +0.000 C 
ENDBRANCH   2   3
BRANCH   1  16
ATOM     12  C   UNL     1       7.577   5.107  13.565  0.00  0.00    +0.000 A 
ATOM     13  C   UNL     1       7.017   4.367  12.524  0.00  0.00    +0.000 A 
ATOM     14  C   UNL     1       5.914   3.546  12.746  0.00  0.00    +0.000 A 
ATOM     15  C   UNL     1       5.392   3.426  14.035  0.00  0.00    +0.000 A 
ATOM     16  C   UNL     1       5.937   4.155  15.107  0.00  0.00    +0.000 A 
ATOM     17  C   UNL     1       7.032   5.003  14.848  0.00  0.00    +0.000 A 
BRANCH  12  19
ATOM     18  C   UNL     1       8.600   6.466  11.894  0.00  0.00    +0.000 C 
ATOM     19  O   UNL     1       8.628   5.900  13.198  0.00  0.00    +0.000 OA
ENDBRANCH  12  19
BRANCH  14  20
ATOM     20  O   UNL     1       5.440   2.884  11.646  0.00  0.00    +0.000 OA
ATOM     21  C   UNL     1       4.106   3.209  11.265  0.00  0.00    +0.000 C 
ENDBRANCH  14  20
ENDBRANCH   1  16
BRANCH   1  22
ATOM     22  C   UNL     1       6.166   4.391  17.689  0.00  0.00    +0.000 C 
ATOM     23  N   UNL     1       6.851   4.684  18.707  0.00  0.00    +0.000 NA
ENDBRANCH   1  22
TORSDOF 5
ENDMDL
MODEL 5
REMARK VINA RESULT:      -6.1      9.768     13.264
REMARK  Name = 
REMARK  10 active torsions:
REMARK  status: ('A' for Active; 'I' for Inactive)
REMARK    1  A    between atoms: C_1  and  O_2
REMARK    2  A    between atoms: O_2  and  C_3
REMARK    3  A    between atoms: C_5  and  O_6
REMARK    4  A    between atoms: O_6  and  C_7
REMARK    5  A    between atoms: C_9  and  C_10
REMARK    6  A    between atoms: C_10  and  C_11
REMARK    7  A    between atoms: C_13  and  C_14
REMARK    8  A    between atoms: C_15  and  C_16
REMARK    9  A    between atoms: C_18  and  C_19
REMARK   10  A    between atoms: C_21  and  C_22
REMARK                            x       y       z     vdW  Elec       q    Type
REMARK                         _______ _______ _______ _____ _____    ______ ____
ROOT
ATOM      1  C   UNL     1      -0.802  12.109  21.866  0.00  0.00    +0.000 C 
ATOM      2  C   UNL     1      -1.053  10.905  21.297  0.00  0.00    +0.000 C 
ENDROOT
BRANCH   2   3
ATOM      3  C   UNL     1      -0.142  10.198  20.359  0.00  0.00    +0.000 A 
ATOM      4  C   UNL     1      -0.234  10.427  18.964  0.00  0.00    +0.000 A 
ATOM      5  C   UNL     1      -1.247  11.347  18.333  0.00  0.00    +0.000 C 
ATOM      6  C   UNL     1       0.634   9.750  18.085  0.00  0.00    +0.000 A 
ATOM      7  C   UNL     1       1.610   8.872  18.556  0.00  0.00    +0.000 A 
ATOM      8  C   UNL     1       2.558   8.184  17.618  0.00  0.00    +0.000 C 
ATOM      9  C   UNL     1       1.710   8.662  19.933  0.00  0.00    +0.000 A 
ATOM     10  C   UNL     1       0.825   9.283  20.839  0.00  0.00    +0.000 A 
ATOM     11  C   UNL     1       1.010   8.968  22.298  0.00  0.00    +0.000 C 
ENDBRANCH   2   3
BRANCH   1  16
ATOM     12  C   UNL     1      -2.288  14.594  24.344  0.00  0.00    +0.000 A 
ATOM     13  C   UNL     1      -3.468  13.935  24.689  0.00  0.00    +0.000 A 
ATOM     14  C   UNL     1      -3.774  12.689  24.147  0.00  0.00    +0.000 A 
ATOM     15  C   UNL     1      -2.913  12.115  23.210  0.00  0.00    +0.000 A 
ATOM     16  C   UNL     1      -1.719  12.756  22.837  0.00  0.00    +0.000 A 
ATOM     17  C   UNL     1      -1.418  14.000  23.427  0.00  0.00    +0.000 A 
BRANCH  12  19
ATOM     18  C   UNL     1      -3.083  16.795  24.802  0.00  0.00    +0.000 C 
ATOM     19  O   UNL     1      -2.096  15.787  24.982  0.00  0.00    +0.000 OA
ENDBRANCH  12  19
BRANCH  14  20
ATOM     20  O   UNL     1      -4.949  12.132  24.573  0.00  0.00    +0.000 OA
ATOM     21  C   UNL     1      -6.133  12.756  24.084  0.00  0.00    +0.000 C 
ENDBRANCH  14  20
ENDBRANCH   1  16
BRANCH   1  22
ATOM     22  C   UNL     1       0.521  12.768  21.511  0.00  0.00    +0.000 C 
ATOM     23  N   UNL     1       1.619  13.315  21.216  0.00  0.00    +0.000 NA
ENDBRANCH   1  22
TORSDOF 5
ENDMDL
MODEL 6
REMARK VINA RESULT:      -6.0      5.643      8.174
REMARK  Name = 
REMARK  10 active torsions:
REMARK  status: ('A' for Active; 'I' for Inactive)
REMARK    1  A    between atoms: C_1  and  O_2
REMARK    2  A    between atoms: O_2  and  C_3
REMARK    3  A    between atoms: C_5  and  O_6
REMARK    4  A    between atoms: O_6  and  C_7
REMARK    5  A    between atoms: C_9  and  C_10
REMARK    6  A    between atoms: C_10  and  C_11
REMARK    7  A    between atoms: C_13  and  C_14
REMARK    8  A    between atoms: C_15  and  C_16
REMARK    9  A    between atoms: C_18  and  C_19
REMARK   10  A    between atoms: C_21  and  C_22
REMARK                            x       y       z     vdW  Elec       q    Type
REMARK                         _______ _______ _______ _____ _____    ______ ____
ROOT
ATOM      1  C   UNL     1       1.466   9.245  18.924  0.00  0.00    +0.000 C 
ATOM      2  C   UNL     1       0.250   9.148  19.512  0.00  0.00    +0.000 C 
ENDROOT
BRANCH   2   3
ATOM      3  C   UNL     1      -0.683  10.283  19.740  0.00  0.00    +0.000 A 
ATOM      4  C   UNL     1      -1.578  10.689  18.719  0.00  0.00    +0.000 A 
ATOM      5  C   UNL     1      -1.635  10.050  17.356  0.00  0.00    +0.000 C 
ATOM      6  C   UNL     1      -2.456  11.766  18.947  0.00  0.00    +0.000 A 
ATOM      7  C   UNL     1      -2.490  12.435  20.171  0.00  0.00    +0.000 A 
ATOM      8  C   UNL     1      -3.455  13.556  20.421  0.00  0.00    +0.000 C 
ATOM      9  C   UNL     1      -1.618  12.020  21.181  0.00  0.00    +0.000 A 
ATOM     10  C   UNL     1      -0.691  10.979  20.972  0.00  0.00    +0.000 A 
ATOM     11  C   UNL     1       0.215  10.630  22.122  0.00  0.00    +0.000 C 
ENDBRANCH   2   3
BRANCH   1  16
ATOM     12  C   UNL     1       4.001   6.896  17.318  0.00  0.00    +0.000 A 
ATOM     13  C   UNL     1       3.972   5.834  18.221  0.00  0.00    +0.000 A 
ATOM     14  C   UNL     1       3.126   5.861  19.327  0.00  0.00    +0.000 A 
ATOM     15  C   UNL     1       2.333   6.986  19.562  0.00  0.00    +0.000 A 
ATOM     16  C   UNL     1       2.344   8.075  18.673  0.00  0.00    +0.000 A 
ATOM     17  C   UNL     1       3.184   8.007  17.544  0.00  0.00    +0.000 A 
BRANCH  12  19
ATOM     18  C   UNL     1       6.028   5.961  16.480  0.00  0.00    +0.000 C 
ATOM     19  O   UNL     1       4.845   6.719  16.258  0.00  0.00    +0.000 OA
ENDBRANCH  12  19
BRANCH  14  20
ATOM     20  O   UNL     1       3.170   4.755  20.132  0.00  0.00    +0.000 OA
ATOM     21  C   UNL     1       2.002   4.522  20.914  0.00  0.00    +0.000 C 
ENDBRANCH  14  20
ENDBRANCH   1  16
BRANCH   1  22
ATOM     22  C   UNL     1       1.890  10.630  18.461  0.00  0.00    +0.000 C 
ATOM     23  N   UNL     1       2.242  11.778  18.075  0.00  0.00    +0.000 NA
ENDBRANCH   1  22
TORSDOF 5
ENDMDL
MODEL 7
REMARK VINA RESULT:      -6.0      5.695      8.021
REMARK  Name = 
REMARK  10 active torsions:
REMARK  status: ('A' for Active; 'I' for Inactive)
REMARK    1  A    between atoms: C_1  and  O_2
REMARK    2  A    between atoms: O_2  and  C_3
REMARK    3  A    between atoms: C_5  and  O_6
REMARK    4  A    between atoms: O_6  and  C_7
REMARK    5  A    between atoms: C_9  and  C_10
REMARK    6  A    between atoms: C_10  and  C_11
REMARK    7  A    between atoms: C_13  and  C_14
REMARK    8  A    between atoms: C_15  and  C_16
REMARK    9  A    between atoms: C_18  and  C_19
REMARK   10  A    between atoms: C_21  and  C_22
REMARK                            x       y       z     vdW  Elec       q    Type
REMARK                         _______ _______ _______ _____ _____    ______ ____
ROOT
ATOM      1  C   UNL     1       1.400   9.267  18.981  0.00  0.00    +0.000 C 
ATOM      2  C   UNL     1       0.181   9.182  19.566  0.00  0.00    +0.000 C 
ENDROOT
BRANCH   2   3
ATOM      3  C   UNL     1      -0.738  10.328  19.794  0.00  0.00    +0.000 A 
ATOM      4  C   UNL     1      -1.622  10.751  18.772  0.00  0.00    +0.000 A 
ATOM      5  C   UNL     1      -1.681  10.120  17.405  0.00  0.00    +0.000 C 
ATOM      6  C   UNL     1      -2.488  11.838  19.000  0.00  0.00    +0.000 A 
ATOM      7  C   UNL     1      -2.519  12.501  20.227  0.00  0.00    +0.000 A 
ATOM      8  C   UNL     1      -3.472  13.632  20.479  0.00  0.00    +0.000 C 
ATOM      9  C   UNL     1      -1.658  12.070  21.240  0.00  0.00    +0.000 A 
ATOM     10  C   UNL     1      -0.743  11.018  21.030  0.00  0.00    +0.000 A 
ATOM     11  C   UNL     1       0.152  10.652  22.183  0.00  0.00    +0.000 C 
ENDBRANCH   2   3
BRANCH   1  16
ATOM     12  C   UNL     1       3.115   5.884  19.357  0.00  0.00    +0.000 A 
ATOM     13  C   UNL     1       3.933   5.886  18.228  0.00  0.00    +0.000 A 
ATOM     14  C   UNL     1       3.951   6.977  17.362  0.00  0.00    +0.000 A 
ATOM     15  C   UNL     1       3.105   8.062  17.601  0.00  0.00    +0.000 A 
ATOM     16  C   UNL     1       2.265   8.088  18.728  0.00  0.00    +0.000 A 
ATOM     17  C   UNL     1       2.291   6.985  19.606  0.00  0.00    +0.000 A 
BRANCH  12  19
ATOM     18  C   UNL     1       3.859   3.629  19.570  0.00  0.00    +0.000 C 
ATOM     19  O   UNL     1       3.228   4.769  20.139  0.00  0.00    +0.000 OA
ENDBRANCH  12  19
BRANCH  14  20
ATOM     20  O   UNL     1       4.806   6.873  16.298  0.00  0.00    +0.000 OA
ATOM     21  C   UNL     1       5.277   5.557  16.021  0.00  0.00    +0.000 C 
ENDBRANCH  14  20
ENDBRANCH   1  16
BRANCH   1  22
ATOM     22  C   UNL     1       1.842  10.648  18.522  0.00  0.00    +0.000 C 
ATOM     23  N   UNL     1       2.208  11.794  18.143  0.00  0.00    +0.000 NA
ENDBRANCH   1  22
TORSDOF 5
ENDMDL
MODEL 8
REMARK VINA RESULT:      -6.0      5.300      7.701
REMARK  Name = 
REMARK  10 active torsions:
REMARK  status: ('A' for Active; 'I' for Inactive)
REMARK    1  A    between atoms: C_1  and  O_2
REMARK    2  A    between atoms: O_2  and  C_3
REMARK    3  A    between atoms: C_5  and  O_6
REMARK    4  A    between atoms: O_6  and  C_7
REMARK    5  A    between atoms: C_9  and  C_10
REMARK    6  A    between atoms: C_10  and  C_11
REMARK    7  A    between atoms: C_13  and  C_14
REMARK    8  A    between atoms: C_15  and  C_16
REMARK    9  A    between atoms: C_18  and  C_19
REMARK   10  A    between atoms: C_21  and  C_22
REMARK                            x       y       z     vdW  Elec       q    Type
REMARK                         _______ _______ _______ _____ _____    ______ ____
ROOT
ATOM      1  C   UNL     1       1.680   9.008  18.505  0.00  0.00    +0.000 C 
ATOM      2  C   UNL     1       0.482   8.904  19.128  0.00  0.00    +0.000 C 
ENDROOT
BRANCH   2   3
ATOM      3  C   UNL     1      -0.400  10.047  19.480  0.00  0.00    +0.000 A 
ATOM      4  C   UNL     1      -1.380  10.503  18.565  0.00  0.00    +0.000 A 
ATOM      5  C   UNL     1      -1.582   9.911  17.194  0.00  0.00    +0.000 C 
ATOM      6  C   UNL     1      -2.210  11.588  18.910  0.00  0.00    +0.000 A 
ATOM      7  C   UNL     1      -2.112  12.215  20.152  0.00  0.00    +0.000 A 
ATOM      8  C   UNL     1      -3.025  13.344  20.529  0.00  0.00    +0.000 C 
ATOM      9  C   UNL     1      -1.156  11.751  21.060  0.00  0.00    +0.000 A 
ATOM     10  C   UNL     1      -0.275  10.702  20.729  0.00  0.00    +0.000 A 
ATOM     11  C   UNL     1       0.729  10.299  21.775  0.00  0.00    +0.000 C 
ENDBRANCH   2   3
BRANCH   1  16
ATOM     12  C   UNL     1       4.460   6.856  17.034  0.00  0.00    +0.000 A 
ATOM     13  C   UNL     1       4.027   5.586  17.414  0.00  0.00    +0.000 A 
ATOM     14  C   UNL     1       2.837   5.419  18.119  0.00  0.00    +0.000 A 
ATOM     15  C   UNL     1       2.094   6.540  18.491  0.00  0.00    +0.000 A 
ATOM     16  C   UNL     1       2.506   7.834  18.128  0.00  0.00    +0.000 A 
ATOM     17  C   UNL     1       3.697   7.972  17.386  0.00  0.00    +0.000 A 
BRANCH  12  19
ATOM     18  C   UNL     1       6.774   6.290  16.913  0.00  0.00    +0.000 C 
ATOM     19  O   UNL     1       5.621   6.869  16.313  0.00  0.00    +0.000 OA
ENDBRANCH  12  19
BRANCH  14  20
ATOM     20  O   UNL     1       2.506   4.126  18.420  0.00  0.00    +0.000 OA
ATOM     21  C   UNL     1       2.576   3.209  17.331  0.00  0.00    +0.000 C 
ENDBRANCH  14  20
ENDBRANCH   1  16
BRANCH   1  22
ATOM     22  C   UNL     1       2.138  10.411  18.138  0.00  0.00    +0.000 C 
ATOM     23  N   UNL     1       2.516  11.575  17.834  0.00  0.00    +0.000 NA
ENDBRANCH   1  22
TORSDOF 5
ENDMDL
MODEL 9
REMARK VINA RESULT:      -6.0      5.713      8.146
REMARK  Name = 
REMARK  10 active torsions:
REMARK  status: ('A' for Active; 'I' for Inactive)
REMARK    1  A    between atoms: C_1  and  O_2
REMARK    2  A    between atoms: O_2  and  C_3
REMARK    3  A    between atoms: C_5  and  O_6
REMARK    4  A    between atoms: O_6  and  C_7
REMARK    5  A    between atoms: C_9  and  C_10
REMARK    6  A    between atoms: C_10  and  C_11
REMARK    7  A    between atoms: C_13  and  C_14
REMARK    8  A    between atoms: C_15  and  C_16
REMARK    9  A    between atoms: C_18  and  C_19
REMARK   10  A    between atoms: C_21  and  C_22
REMARK                            x       y       z     vdW  Elec       q    Type
REMARK                         _______ _______ _______ _____ _____    ______ ____
ROOT
ATOM      1  C   UNL     1       1.405   9.295  18.995  0.00  0.00    +0.000 C 
ATOM      2  C   UNL     1       0.188   9.194  19.582  0.00  0.00    +0.000 C 
ENDROOT
BRANCH   2   3
ATOM      3  C   UNL     1      -0.744  10.327  19.816  0.00  0.00    +0.000 A 
ATOM      4  C   UNL     1      -0.764  10.991  21.067  0.00  0.00    +0.000 A 
ATOM      5  C   UNL     1       0.103  10.597  22.235  0.00  0.00    +0.000 C 
ATOM      6  C   UNL     1      -1.652  12.063  21.277  0.00  0.00    +0.000 A 
ATOM      7  C   UNL     1      -2.503  12.514  20.268  0.00  0.00    +0.000 A 
ATOM      8  C   UNL     1      -3.419  13.683  20.485  0.00  0.00    +0.000 C 
ATOM      9  C   UNL     1      -2.469  11.869  19.029  0.00  0.00    +0.000 A 
ATOM     10  C   UNL     1      -1.629  10.760  18.800  0.00  0.00    +0.000 A 
ATOM     11  C   UNL     1      -1.690  10.129  17.435  0.00  0.00    +0.000 C 
ENDBRANCH   2   3
BRANCH   1  16
ATOM     12  C   UNL     1       3.928   6.949  17.366  0.00  0.00    +0.000 A 
ATOM     13  C   UNL     1       3.911   5.888  18.271  0.00  0.00    +0.000 A 
ATOM     14  C   UNL     1       3.076   5.915  19.386  0.00  0.00    +0.000 A 
ATOM     15  C   UNL     1       2.283   7.038  19.627  0.00  0.00    +0.000 A 
ATOM     16  C   UNL     1       2.283   8.127  18.737  0.00  0.00    +0.000 A 
ATOM     17  C   UNL     1       3.111   8.059  17.599  0.00  0.00    +0.000 A 
BRANCH  12  19
ATOM     18  C   UNL     1       5.510   5.563  16.241  0.00  0.00    +0.000 C 
ATOM     19  O   UNL     1       4.762   6.772  16.297  0.00  0.00    +0.000 OA
ENDBRANCH  12  19
BRANCH  14  20
ATOM     20  O   UNL     1       3.131   4.810  20.191  0.00  0.00    +0.000 OA
ATOM     21  C   UNL     1       3.683   3.643  19.588  0.00  0.00    +0.000 C 
ENDBRANCH  14  20
ENDBRANCH   1  16
BRANCH   1  22
ATOM     22  C   UNL     1       1.829  10.682  18.540  0.00  0.00    +0.000 C 
ATOM     23  N   UNL     1       2.180  11.833  18.163  0.00  0.00    +0.000 NA
ENDBRANCH   1  22
TORSDOF 5
ENDMDL
