MODEL 1
REMARK VINA RESULT:      -7.0      0.000      0.000
REMARK  Name = 
REMARK  2 active torsions:
REMARK  status: ('A' for Active; 'I' for Inactive)
REMARK    1  A    between atoms: C_2  and  C_4
REMARK    2  A    between atoms: C_13  and  N_14
REMARK                            x       y       z     vdW  Elec       q    Type
REMARK                         _______ _______ _______ _____ _____    ______ ____
ROOT
ATOM      1  C   UNL     1       5.837   4.329  16.538  0.00  0.00    +0.000 A 
ATOM      2  C   UNL     1       4.441   4.223  16.425  0.00  0.00    +0.000 A 
ATOM      3  C   UNL     1       3.648   4.057  17.547  0.00  0.00    +0.000 A 
ATOM      4  C   UNL     1       2.259   3.975  17.438  0.00  0.00    +0.000 A 
ATOM      5  C   UNL     1       1.494   3.766  18.579  0.00  0.00    +0.000 A 
ATOM      6  C   UNL     1       2.129   3.637  19.817  0.00  0.00    +0.000 A 
ATOM      7  N   UNL     1       3.485   3.747  19.909  0.00  0.00    +0.000 NA
ATOM      8  C   UNL     1       4.250   3.962  18.806  0.00  0.00    +0.000 A 
ATOM      9  N   UNL     1       5.598   4.093  18.922  0.00  0.00    +0.000 NA
ATOM     10  C   UNL     1       6.406   4.300  17.846  0.00  0.00    +0.000 A 
ENDROOT
BRANCH   1  12
ATOM     11  N   UNL     1       6.346   3.632  14.215  0.00  0.00    +0.000 N 
ATOM     12  C   UNL     1       6.597   4.458  15.264  0.00  0.00    +0.000 C 
ATOM     13  O   UNL     1       7.468   5.296  15.155  0.00  0.00    +0.000 OA
ATOM     14  H   UNL     1       6.882   3.717  13.339  0.00  0.00    +0.000 HD
ATOM     15  H   UNL     1       5.664   2.861  14.280  0.00  0.00    +0.000 HD
ENDBRANCH   1  12
BRANCH  10  16
ATOM     16  N   UNL     1       7.800   4.440  18.095  0.00  0.00    +0.000 N 
ATOM     17  H   UNL     1       8.383   3.598  18.215  0.00  0.00    +0.000 HD
ATOM     18  H   UNL     1       8.254   5.346  18.222  0.00  0.00    +0.000 HD
ENDBRANCH  10  16
TORSDOF 2
ENDMDL
MODEL 2
REMARK VINA RESULT:      -6.8      1.313      1.313
REMARK  Name = 
REMARK  2 active torsions:
REMARK  status: ('A' for Active; 'I' for Inactive)
REMARK    1  A    between atoms: C_2  and  C_4
REMARK    2  A    between atoms: C_13  and  N_14
REMARK                            x       y       z     vdW  Elec       q    Type
REMARK                         _______ _______ _______ _____ _____    ______ ____
ROOT
ATOM      1  C   UNL     1       5.402   5.097  17.256  0.00  0.00    +0.000 A 
ATOM      2  C   UNL     1       4.035   4.837  17.061  0.00  0.00    +0.000 A 
ATOM      3  C   UNL     1       3.327   4.050  17.954  0.00  0.00    +0.000 A 
ATOM      4  C   UNL     1       1.965   3.810  17.774  0.00  0.00    +0.000 A 
ATOM      5  C   UNL     1       1.292   2.981  18.665  0.00  0.00    +0.000 A 
ATOM      6  C   UNL     1       1.994   2.399  19.724  0.00  0.00    +0.000 A 
ATOM      7  N   UNL     1       3.319   2.666  19.900  0.00  0.00    +0.000 NA
ATOM      8  C   UNL     1       3.992   3.482  19.046  0.00  0.00    +0.000 A 
ATOM      9  N   UNL     1       5.307   3.755  19.253  0.00  0.00    +0.000 NA
ATOM     10  C   UNL     1       6.025   4.558  18.421  0.00  0.00    +0.000 A 
ENDROOT
BRANCH   1  12
ATOM     11  N   UNL     1       5.353   6.665  15.338  0.00  0.00    +0.000 N 
ATOM     12  C   UNL     1       6.076   5.915  16.211  0.00  0.00    +0.000 C 
ATOM     13  O   UNL     1       7.285   5.906  16.115  0.00  0.00    +0.000 OA
ATOM     14  H   UNL     1       5.823   7.222  14.609  0.00  0.00    +0.000 HD
ATOM     15  H   UNL     1       4.322   6.656  15.335  0.00  0.00    +0.000 HD
ENDBRANCH   1  12
BRANCH  10  16
ATOM     16  N   UNL     1       7.390   4.785  18.751  0.00  0.00    +0.000 N 
ATOM     17  H   UNL     1       7.653   5.627  19.285  0.00  0.00    +0.000 HD
ATOM     18  H   UNL     1       8.148   4.177  18.435  0.00  0.00    +0.000 HD
ENDBRANCH  10  16
TORSDOF 2
ENDMDL
MODEL 3
REMARK VINA RESULT:      -6.6      1.800      1.835
REMARK  Name = 
REMARK  2 active torsions:
REMARK  status: ('A' for Active; 'I' for Inactive)
REMARK    1  A    between atoms: C_2  and  C_4
REMARK    2  A    between atoms: C_13  and  N_14
REMARK                            x       y       z     vdW  Elec       q    Type
REMARK                         _______ _______ _______ _____ _____    ______ ____
ROOT
ATOM      1  C   UNL     1       5.225   5.592  17.677  0.00  0.00    +0.000 A 
ATOM      2  C   UNL     1       3.859   5.706  17.988  0.00  0.00    +0.000 A 
ATOM      3  C   UNL     1       3.258   4.832  18.877  0.00  0.00    +0.000 A 
ATOM      4  C   UNL     1       1.908   4.958  19.204  0.00  0.00    +0.000 A 
ATOM      5  C   UNL     1       1.323   4.039  20.068  0.00  0.00    +0.000 A 
ATOM      6  C   UNL     1       2.099   3.001  20.593  0.00  0.00    +0.000 A 
ATOM      7  N   UNL     1       3.423   2.910  20.284  0.00  0.00    +0.000 NA
ATOM      8  C   UNL     1       4.015   3.804  19.449  0.00  0.00    +0.000 A 
ATOM      9  N   UNL     1       5.343   3.710  19.173  0.00  0.00    +0.000 NA
ATOM     10  C   UNL     1       5.978   4.575  18.336  0.00  0.00    +0.000 A 
ENDROOT
BRANCH   1  12
ATOM     11  N   UNL     1       5.213   6.639  15.431  0.00  0.00    +0.000 N 
ATOM     12  C   UNL     1       5.757   6.553  16.673  0.00  0.00    +0.000 C 
ATOM     13  O   UNL     1       6.703   7.262  16.949  0.00  0.00    +0.000 OA
ATOM     14  H   UNL     1       5.591   7.298  14.735  0.00  0.00    +0.000 HD
ATOM     15  H   UNL     1       4.452   6.014  15.126  0.00  0.00    +0.000 HD
ENDBRANCH   1  12
BRANCH  10  16
ATOM     16  N   UNL     1       7.374   4.386  18.139  0.00  0.00    +0.000 N 
ATOM     17  H   UNL     1       7.920   5.103  17.640  0.00  0.00    +0.000 HD
ATOM     18  H   UNL     1       7.865   3.535  18.420  0.00  0.00    +0.000 HD
ENDBRANCH  10  16
TORSDOF 2
ENDMDL
MODEL 4
REMARK VINA RESULT:      -6.6      1.406      1.415
REMARK  Name = 
REMARK  2 active torsions:
REMARK  status: ('A' for Active; 'I' for Inactive)
REMARK    1  A    between atoms: C_2  and  C_4
REMARK    2  A    between atoms: C_13  and  N_14
REMARK                            x       y       z     vdW  Elec       q    Type
REMARK                         _______ _______ _______ _____ _____    ______ ____
ROOT
ATOM      1  C   UNL     1       5.997   4.976  15.850  0.00  0.00    +0.000 A 
ATOM      2  C   UNL     1       4.809   4.261  16.075  0.00  0.00    +0.000 A 
ATOM      3  C   UNL     1       4.064   4.465  17.223  0.00  0.00    +0.000 A 
ATOM      4  C   UNL     1       2.872   3.772  17.437  0.00  0.00    +0.000 A 
ATOM      5  C   UNL     1       2.169   3.968  18.620  0.00  0.00    +0.000 A 
ATOM      6  C   UNL     1       2.670   4.854  19.578  0.00  0.00    +0.000 A 
ATOM      7  N   UNL     1       3.822   5.543  19.340  0.00  0.00    +0.000 NA
ATOM      8  C   UNL     1       4.519   5.373  18.186  0.00  0.00    +0.000 A 
ATOM      9  N   UNL     1       5.652   6.087  17.957  0.00  0.00    +0.000 NA
ATOM     10  C   UNL     1       6.388   5.945  16.822  0.00  0.00    +0.000 A 
ENDROOT
BRANCH   1  12
ATOM     11  N   UNL     1       6.379   3.588  13.833  0.00  0.00    +0.000 N 
ATOM     12  C   UNL     1       6.744   4.644  14.605  0.00  0.00    +0.000 C 
ATOM     13  O   UNL     1       7.705   5.308  14.276  0.00  0.00    +0.000 OA
ATOM     14  H   UNL     1       6.905   3.355  12.978  0.00  0.00    +0.000 HD
ATOM     15  H   UNL     1       5.612   2.955  14.104  0.00  0.00    +0.000 HD
ENDBRANCH   1  12
BRANCH  10  16
ATOM     16  N   UNL     1       7.546   6.761  16.688  0.00  0.00    +0.000 N 
ATOM     17  H   UNL     1       7.581   7.479  15.949  0.00  0.00    +0.000 HD
ATOM     18  H   UNL     1       8.384   6.636  17.258  0.00  0.00    +0.000 HD
ENDBRANCH  10  16
TORSDOF 2
ENDMDL
MODEL 5
REMARK VINA RESULT:      -6.5      3.207      4.998
REMARK  Name = 
REMARK  2 active torsions:
REMARK  status: ('A' for Active; 'I' for Inactive)
REMARK    1  A    between atoms: C_2  and  C_4
REMARK    2  A    between atoms: C_13  and  N_14
REMARK                            x       y       z     vdW  Elec       q    Type
REMARK                         _______ _______ _______ _____ _____    ______ ____
ROOT
ATOM      1  C   UNL     1       3.175   3.561  20.153  0.00  0.00    +0.000 A 
ATOM      2  C   UNL     1       2.763   4.776  19.580  0.00  0.00    +0.000 A 
ATOM      3  C   UNL     1       3.582   5.459  18.698  0.00  0.00    +0.000 A 
ATOM      4  C   UNL     1       3.165   6.654  18.111  0.00  0.00    +0.000 A 
ATOM      5  C   UNL     1       4.028   7.338  17.262  0.00  0.00    +0.000 A 
ATOM      6  C   UNL     1       5.302   6.817  17.014  0.00  0.00    +0.000 A 
ATOM      7  N   UNL     1       5.682   5.635  17.575  0.00  0.00    +0.000 NA
ATOM      8  C   UNL     1       4.849   4.946  18.399  0.00  0.00    +0.000 A 
ATOM      9  N   UNL     1       5.238   3.756  18.929  0.00  0.00    +0.000 NA
ATOM     10  C   UNL     1       4.443   3.036  19.767  0.00  0.00    +0.000 A 
ENDROOT
BRANCH   1  12
ATOM     11  N   UNL     1       0.894   2.952  20.908  0.00  0.00    +0.000 N 
ATOM     12  C   UNL     1       2.236   2.935  21.125  0.00  0.00    +0.000 C 
ATOM     13  O   UNL     1       2.660   2.417  22.136  0.00  0.00    +0.000 OA
ATOM     14  H   UNL     1       0.247   2.527  21.588  0.00  0.00    +0.000 HD
ATOM     15  H   UNL     1       0.479   3.437  20.099  0.00  0.00    +0.000 HD
ENDBRANCH   1  12
BRANCH  10  16
ATOM     16  N   UNL     1       4.953   1.796  20.243  0.00  0.00    +0.000 N 
ATOM     17  H   UNL     1       5.395   1.139  19.583  0.00  0.00    +0.000 HD
ATOM     18  H   UNL     1       4.854   1.489  21.212  0.00  0.00    +0.000 HD
ENDBRANCH  10  16
TORSDOF 2
ENDMDL
MODEL 6
REMARK VINA RESULT:      -6.5      1.816      1.842
REMARK  Name = 
REMARK  2 active torsions:
REMARK  status: ('A' for Active; 'I' for Inactive)
REMARK    1  A    between atoms: C_2  and  C_4
REMARK    2  A    between atoms: C_13  and  N_14
REMARK                            x       y       z     vdW  Elec       q    Type
REMARK                         _______ _______ _______ _____ _____    ______ ____
ROOT
ATOM      1  C   UNL     1       6.157   5.348  17.575  0.00  0.00    +0.000 A 
ATOM      2  C   UNL     1       4.987   4.837  16.988  0.00  0.00    +0.000 A 
ATOM      3  C   UNL     1       4.176   3.952  17.676  0.00  0.00    +0.000 A 
ATOM      4  C   UNL     1       3.002   3.462  17.104  0.00  0.00    +0.000 A 
ATOM      5  C   UNL     1       2.231   2.541  17.804  0.00  0.00    +0.000 A 
ATOM      6  C   UNL     1       2.648   2.119  19.070  0.00  0.00    +0.000 A 
ATOM      7  N   UNL     1       3.783   2.629  19.625  0.00  0.00    +0.000 NA
ATOM      8  C   UNL     1       4.545   3.537  18.961  0.00  0.00    +0.000 A 
ATOM      9  N   UNL     1       5.661   4.053  19.541  0.00  0.00    +0.000 NA
ATOM     10  C   UNL     1       6.460   4.957  18.912  0.00  0.00    +0.000 A 
ENDROOT
BRANCH   1  12
ATOM     11  N   UNL     1       7.110   7.572  17.039  0.00  0.00    +0.000 N 
ATOM     12  C   UNL     1       6.980   6.256  16.728  0.00  0.00    +0.000 C 
ATOM     13  O   UNL     1       7.532   5.830  15.735  0.00  0.00    +0.000 OA
ATOM     14  H   UNL     1       7.672   8.200  16.445  0.00  0.00    +0.000 HD
ATOM     15  H   UNL     1       6.609   7.997  17.834  0.00  0.00    +0.000 HD
ENDBRANCH   1  12
BRANCH  10  16
ATOM     16  N   UNL     1       7.591   5.437  19.630  0.00  0.00    +0.000 N 
ATOM     17  H   UNL     1       8.457   4.880  19.649  0.00  0.00    +0.000 HD
ATOM     18  H   UNL     1       7.574   6.294  20.186  0.00  0.00    +0.000 HD
ENDBRANCH  10  16
TORSDOF 2
ENDMDL
MODEL 7
REMARK VINA RESULT:      -6.5      1.910      2.962
REMARK  Name = 
REMARK  2 active torsions:
REMARK  status: ('A' for Active; 'I' for Inactive)
REMARK    1  A    between atoms: C_2  and  C_4
REMARK    2  A    between atoms: C_13  and  N_14
REMARK                            x       y       z     vdW  Elec       q    Type
REMARK                         _______ _______ _______ _____ _____    ______ ____
ROOT
ATOM      1  C   UNL     1       6.503   5.253  18.533  0.00  0.00    +0.000 A 
ATOM      2  C   UNL     1       5.364   5.214  19.355  0.00  0.00    +0.000 A 
ATOM      3  C   UNL     1       4.179   4.659  18.902  0.00  0.00    +0.000 A 
ATOM      4  C   UNL     1       3.055   4.599  19.725  0.00  0.00    +0.000 A 
ATOM      5  C   UNL     1       1.868   4.075  19.226  0.00  0.00    +0.000 A 
ATOM      6  C   UNL     1       1.820   3.620  17.905  0.00  0.00    +0.000 A 
ATOM      7  N   UNL     1       2.936   3.662  17.124  0.00  0.00    +0.000 NA
ATOM      8  C   UNL     1       4.109   4.161  17.596  0.00  0.00    +0.000 A 
ATOM      9  N   UNL     1       5.217   4.172  16.809  0.00  0.00    +0.000 NA
ATOM     10  C   UNL     1       6.410   4.670  17.234  0.00  0.00    +0.000 A 
ENDROOT
BRANCH   1  12
ATOM     11  N   UNL     1       8.312   5.422  20.217  0.00  0.00    +0.000 N 
ATOM     12  C   UNL     1       7.709   5.913  19.103  0.00  0.00    +0.000 C 
ATOM     13  O   UNL     1       8.158   6.916  18.586  0.00  0.00    +0.000 OA
ATOM     14  H   UNL     1       9.141   5.889  20.615  0.00  0.00    +0.000 HD
ATOM     15  H   UNL     1       7.932   4.614  20.731  0.00  0.00    +0.000 HD
ENDBRANCH   1  12
BRANCH  10  16
ATOM     16  N   UNL     1       7.502   4.609  16.325  0.00  0.00    +0.000 N 
ATOM     17  H   UNL     1       8.070   5.452  16.153  0.00  0.00    +0.000 HD
ATOM     18  H   UNL     1       7.726   3.775  15.779  0.00  0.00    +0.000 HD
ENDBRANCH  10  16
TORSDOF 2
ENDMDL
MODEL 8
REMARK VINA RESULT:      -6.5      2.308      5.113
REMARK  Name = 
REMARK  2 active torsions:
REMARK  status: ('A' for Active; 'I' for Inactive)
REMARK    1  A    between atoms: C_2  and  C_4
REMARK    2  A    between atoms: C_13  and  N_14
REMARK                            x       y       z     vdW  Elec       q    Type
REMARK                         _______ _______ _______ _____ _____    ______ ____
ROOT
ATOM      1  C   UNL     1       5.768   4.535  17.056  0.00  0.00    +0.000 A 
ATOM      2  C   UNL     1       5.451   3.913  15.836  0.00  0.00    +0.000 A 
ATOM      3  C   UNL     1       6.163   4.202  14.685  0.00  0.00    +0.000 A 
ATOM      4  C   UNL     1       5.865   3.568  13.479  0.00  0.00    +0.000 A 
ATOM      5  C   UNL     1       6.570   3.913  12.331  0.00  0.00    +0.000 A 
ATOM      6  C   UNL     1       7.565   4.891  12.406  0.00  0.00    +0.000 A 
ATOM      7  N   UNL     1       7.862   5.481  13.598  0.00  0.00    +0.000 NA
ATOM      8  C   UNL     1       7.191   5.151  14.733  0.00  0.00    +0.000 A 
ATOM      9  N   UNL     1       7.518   5.733  15.917  0.00  0.00    +0.000 NA
ATOM     10  C   UNL     1       6.868   5.442  17.077  0.00  0.00    +0.000 A 
ENDROOT
BRANCH   1  12
ATOM     11  N   UNL     1       5.293   3.235  19.112  0.00  0.00    +0.000 N 
ATOM     12  C   UNL     1       4.908   4.185  18.220  0.00  0.00    +0.000 C 
ATOM     13  O   UNL     1       3.838   4.736  18.375  0.00  0.00    +0.000 OA
ATOM     14  H   UNL     1       4.690   2.989  19.911  0.00  0.00    +0.000 HD
ATOM     15  H   UNL     1       6.161   2.692  18.989  0.00  0.00    +0.000 HD
ENDBRANCH   1  12
BRANCH  10  16
ATOM     16  N   UNL     1       7.314   6.102  18.256  0.00  0.00    +0.000 N 
ATOM     17  H   UNL     1       7.578   5.546  19.083  0.00  0.00    +0.000 HD
ATOM     18  H   UNL     1       7.333   7.119  18.351  0.00  0.00    +0.000 HD
ENDBRANCH  10  16
TORSDOF 2
ENDMDL
MODEL 9
REMARK VINA RESULT:      -6.4      2.605      4.480
REMARK  Name = 
REMARK  2 active torsions:
REMARK  status: ('A' for Active; 'I' for Inactive)
REMARK    1  A    between atoms: C_2  and  C_4
REMARK    2  A    between atoms: C_13  and  N_14
REMARK                            x       y       z     vdW  Elec       q    Type
REMARK                         _______ _______ _______ _____ _____    ______ ____
ROOT
ATOM      1  C   UNL     1       3.775   4.058  17.974  0.00  0.00    +0.000 A 
ATOM      2  C   UNL     1       4.273   5.227  17.374  0.00  0.00    +0.000 A 
ATOM      3  C   UNL     1       5.516   5.729  17.720  0.00  0.00    +0.000 A 
ATOM      4  C   UNL     1       6.021   6.876  17.108  0.00  0.00    +0.000 A 
ATOM      5  C   UNL     1       7.254   7.379  17.508  0.00  0.00    +0.000 A 
ATOM      6  C   UNL     1       7.965   6.728  18.521  0.00  0.00    +0.000 A 
ATOM      7  N   UNL     1       7.467   5.593  19.088  0.00  0.00    +0.000 NA
ATOM      8  C   UNL     1       6.269   5.080  18.704  0.00  0.00    +0.000 A 
ATOM      9  N   UNL     1       5.802   3.933  19.265  0.00  0.00    +0.000 NA
ATOM     10  C   UNL     1       4.605   3.387  18.920  0.00  0.00    +0.000 A 
ENDROOT
BRANCH   1  12
ATOM     11  N   UNL     1       1.370   4.509  17.582  0.00  0.00    +0.000 N 
ATOM     12  C   UNL     1       2.408   3.634  17.562  0.00  0.00    +0.000 C 
ATOM     13  O   UNL     1       2.203   2.487  17.221  0.00  0.00    +0.000 OA
ATOM     14  H   UNL     1       0.423   4.208  17.307  0.00  0.00    +0.000 HD
ATOM     15  H   UNL     1       1.477   5.475  17.927  0.00  0.00    +0.000 HD
ENDBRANCH   1  12
BRANCH  10  16
ATOM     16  N   UNL     1       4.232   2.174  19.564  0.00  0.00    +0.000 N 
ATOM     17  H   UNL     1       3.632   2.205  20.401  0.00  0.00    +0.000 HD
ATOM     18  H   UNL     1       4.580   1.259  19.271  0.00  0.00    +0.000 HD
ENDBRANCH  10  16
TORSDOF 2
ENDMDL
