MODEL 1
REMARK VINA RESULT:      -6.1      0.000      0.000
REMARK  Name = 
REMARK  13 active torsions:
REMARK  status: ('A' for Active; 'I' for Inactive)
REMARK    1  A    between atoms: C_1  and  O_2
REMARK    2  A    between atoms: O_2  and  C_3
REMARK    3  A    between atoms: C_3  and  C_4
REMARK    4  A    between atoms: C_11  and  C_12
REMARK    5  A    between atoms: C_13  and  C_14
REMARK    6  A    between atoms: C_17  and  C_18
REMARK    7  A    between atoms: C_19  and  O_20
REMARK    8  A    between atoms: O_20  and  C_21
REMARK    9  A    between atoms: N_25  and  C_26
REMARK   10  A    between atoms: C_26  and  C_27
REMARK   11  A    between atoms: C_26  and  C_28
REMARK   12  A    between atoms: C_28  and  O_29
REMARK   13  A    between atoms: O_29  and  C_30
REMARK                            x       y       z     vdW  Elec       q    Type
REMARK                         _______ _______ _______ _____ _____    ______ ____
ROOT
ATOM      1  C   UNL     1       3.774   4.478  18.895  0.00  0.00    +0.000 A 
ATOM      2  N   UNL     1       4.320   5.134  17.893  0.00  0.00    +0.000 NA
ATOM      3  C   UNL     1       3.746   6.366  17.879  0.00  0.00    +0.000 A 
ATOM      4  C   UNL     1       3.986   7.404  16.983  0.00  0.00    +0.000 A 
ATOM      5  N   UNL     1       3.320   8.572  17.082  0.00  0.00    +0.000 NA
ATOM      6  C   UNL     1       2.446   8.753  18.076  0.00  0.00    +0.000 A 
ATOM      7  C   UNL     1       1.825   9.991  18.124  0.00  0.00    +0.000 A 
ATOM      8  C   UNL     1       0.966  10.388  19.162  0.00  0.00    +0.000 A 
ATOM      9  C   UNL     1       0.689   9.444  20.168  0.00  0.00    +0.000 A 
ATOM     10  C   UNL     1       1.228   8.145  20.083  0.00  0.00    +0.000 A 
ATOM     11  C   UNL     1       2.139   7.784  19.065  0.00  0.00    +0.000 A 
ATOM     12  C   UNL     1       2.824   6.523  18.919  0.00  0.00    +0.000 A 
ATOM     13  N   UNL     1       2.853   5.274  19.570  0.00  0.00    +0.000 N 
ENDROOT
BRANCH   8  14
ATOM     14  C   UNL     1       0.453  11.767  19.145  0.00  0.00    +0.000 A 
ATOM     15  C   UNL     1      -0.752  12.311  18.578  0.00  0.00    +0.000 A 
ATOM     16  C   UNL     1      -1.844  11.674  17.799  0.00  0.00    +0.000 C 
ATOM     17  N   UNL     1      -0.866  13.621  18.829  0.00  0.00    +0.000 NA
ATOM     18  O   UNL     1       0.242  13.963  19.557  0.00  0.00    +0.000 OA
ATOM     19  C   UNL     1       1.026  12.871  19.758  0.00  0.00    +0.000 A 
ATOM     20  C   UNL     1       2.234  13.146  20.561  0.00  0.00    +0.000 C 
ENDBRANCH   8  14
BRANCH   9  21
ATOM     21  O   UNL     1      -0.105   9.837  21.213  0.00  0.00    +0.000 OA
ATOM     22  C   UNL     1       0.383   9.653  22.536  0.00  0.00    +0.000 C 
ENDBRANCH   9  21
BRANCH  13  23
ATOM     23  C   UNL     1       1.996   4.882  20.688  0.00  0.00    +0.000 C 
ATOM     24  C   UNL     1       0.699   4.241  20.180  0.00  0.00    +0.000 C 
BRANCH  23  25
ATOM     25  C   UNL     1       2.574   3.997  21.817  0.00  0.00    +0.000 C 
BRANCH  25  26
ATOM     26  O   UNL     1       1.709   2.901  22.110  0.00  0.00    +0.000 OA
ATOM     27  C   UNL     1       2.319   1.659  21.769  0.00  0.00    +0.000 C 
ENDBRANCH  25  26
ENDBRANCH  23  25
ENDBRANCH  13  23
BRANCH   1  28
ATOM     28  C   UNL     1       4.173   3.075  19.201  0.00  0.00    +0.000 C 
BRANCH  28  30
ATOM     29  C   UNL     1       2.533   1.975  17.931  0.00  0.00    +0.000 C 
ATOM     30  O   UNL     1       3.921   2.270  18.049  0.00  0.00    +0.000 OA
ENDBRANCH  28  30
ENDBRANCH   1  28
TORSDOF 7
ENDMDL
MODEL 2
REMARK VINA RESULT:      -6.1      0.660      1.578
REMARK  Name = 
REMARK  13 active torsions:
REMARK  status: ('A' for Active; 'I' for Inactive)
REMARK    1  A    between atoms: C_1  and  O_2
REMARK    2  A    between atoms: O_2  and  C_3
REMARK    3  A    between atoms: C_3  and  C_4
REMARK    4  A    between atoms: C_11  and  C_12
REMARK    5  A    between atoms: C_13  and  C_14
REMARK    6  A    between atoms: C_17  and  C_18
REMARK    7  A    between atoms: C_19  and  O_20
REMARK    8  A    between atoms: O_20  and  C_21
REMARK    9  A    between atoms: N_25  and  C_26
REMARK   10  A    between atoms: C_26  and  C_27
REMARK   11  A    between atoms: C_26  and  C_28
REMARK   12  A    between atoms: C_28  and  O_29
REMARK   13  A    between atoms: O_29  and  C_30
REMARK                            x       y       z     vdW  Elec       q    Type
REMARK                         _______ _______ _______ _____ _____    ______ ____
ROOT
ATOM      1  C   UNL     1       3.662   4.700  18.872  0.00  0.00    +0.000 A 
ATOM      2  N   UNL     1       4.132   5.457  17.904  0.00  0.00    +0.000 NA
ATOM      3  C   UNL     1       3.491   6.652  18.002  0.00  0.00    +0.000 A 
ATOM      4  C   UNL     1       3.639   7.765  17.179  0.00  0.00    +0.000 A 
ATOM      5  N   UNL     1       2.914   8.882  17.387  0.00  0.00    +0.000 NA
ATOM      6  C   UNL     1       2.069   8.939  18.421  0.00  0.00    +0.000 A 
ATOM      7  C   UNL     1       1.383  10.132  18.582  0.00  0.00    +0.000 A 
ATOM      8  C   UNL     1       0.545  10.402  19.676  0.00  0.00    +0.000 A 
ATOM      9  C   UNL     1       0.359   9.373  20.618  0.00  0.00    +0.000 A 
ATOM     10  C   UNL     1       0.964   8.117  20.418  0.00  0.00    +0.000 A 
ATOM     11  C   UNL     1       1.855   7.884  19.345  0.00  0.00    +0.000 A 
ATOM     12  C   UNL     1       2.602   6.679  19.081  0.00  0.00    +0.000 A 
ATOM     13  N   UNL     1       2.725   5.390  19.636  0.00  0.00    +0.000 N 
ENDROOT
BRANCH   8  14
ATOM     14  C   UNL     1      -0.045  11.747  19.780  0.00  0.00    +0.000 A 
ATOM     15  C   UNL     1       0.525  12.987  20.236  0.00  0.00    +0.000 A 
ATOM     16  C   UNL     1       1.868  13.307  20.784  0.00  0.00    +0.000 C 
ATOM     17  N   UNL     1      -0.344  13.999  20.122  0.00  0.00    +0.000 NA
ATOM     18  O   UNL     1      -1.486  13.457  19.593  0.00  0.00    +0.000 OA
ATOM     19  C   UNL     1      -1.317  12.126  19.379  0.00  0.00    +0.000 A 
ATOM     20  C   UNL     1      -2.495  11.465  18.782  0.00  0.00    +0.000 C 
ENDBRANCH   8  14
BRANCH   9  21
ATOM     21  O   UNL     1      -0.416   9.642  21.715  0.00  0.00    +0.000 OA
ATOM     22  C   UNL     1       0.208   9.652  22.993  0.00  0.00    +0.000 C 
ENDBRANCH   9  21
BRANCH  13  23
ATOM     23  C   UNL     1       1.934   4.869  20.750  0.00  0.00    +0.000 C 
ATOM     24  C   UNL     1       0.687   4.138  20.237  0.00  0.00    +0.000 C 
BRANCH  23  25
ATOM     25  C   UNL     1       2.616   3.986  21.821  0.00  0.00    +0.000 C 
BRANCH  25  26
ATOM     26  O   UNL     1       1.845   2.819  22.098  0.00  0.00    +0.000 OA
ATOM     27  C   UNL     1       2.543   1.638  21.711  0.00  0.00    +0.000 C 
ENDBRANCH  25  26
ENDBRANCH  23  25
ENDBRANCH  13  23
BRANCH   1  28
ATOM     28  C   UNL     1       4.149   3.303  19.059  0.00  0.00    +0.000 C 
BRANCH  28  30
ATOM     29  C   UNL     1       2.536   2.164  17.789  0.00  0.00    +0.000 C 
ATOM     30  O   UNL     1       3.898   2.572  17.858  0.00  0.00    +0.000 OA
ENDBRANCH  28  30
ENDBRANCH   1  28
TORSDOF 7
ENDMDL
MODEL 3
REMARK VINA RESULT:      -6.0      2.202      4.267
REMARK  Name = 
REMARK  13 active torsions:
REMARK  status: ('A' for Active; 'I' for Inactive)
REMARK    1  A    between atoms: C_1  and  O_2
REMARK    2  A    between atoms: O_2  and  C_3
REMARK    3  A    between atoms: C_3  and  C_4
REMARK    4  A    between atoms: C_11  and  C_12
REMARK    5  A    between atoms: C_13  and  C_14
REMARK    6  A    between atoms: C_17  and  C_18
REMARK    7  A    between atoms: C_19  and  O_20
REMARK    8  A    between atoms: O_20  and  C_21
REMARK    9  A    between atoms: N_25  and  C_26
REMARK   10  A    between atoms: C_26  and  C_27
REMARK   11  A    between atoms: C_26  and  C_28
REMARK   12  A    between atoms: C_28  and  O_29
REMARK   13  A    between atoms: O_29  and  C_30
REMARK                            x       y       z     vdW  Elec       q    Type
REMARK                         _______ _______ _______ _____ _____    ______ ____
ROOT
ATOM      1  C   UNL     1       4.477   4.928  18.448  0.00  0.00    +0.000 A 
ATOM      2  N   UNL     1       3.681   4.567  19.431  0.00  0.00    +0.000 NA
ATOM      3  C   UNL     1       2.894   5.641  19.704  0.00  0.00    +0.000 A 
ATOM      4  C   UNL     1       1.910   5.746  20.685  0.00  0.00    +0.000 A 
ATOM      5  N   UNL     1       1.220   6.891  20.854  0.00  0.00    +0.000 NA
ATOM      6  C   UNL     1       1.452   7.929  20.045  0.00  0.00    +0.000 A 
ATOM      7  C   UNL     1       0.681   9.059  20.267  0.00  0.00    +0.000 A 
ATOM      8  C   UNL     1       0.716  10.195  19.442  0.00  0.00    +0.000 A 
ATOM      9  C   UNL     1       1.631  10.189  18.372  0.00  0.00    +0.000 A 
ATOM     10  C   UNL     1       2.497   9.094  18.192  0.00  0.00    +0.000 A 
ATOM     11  C   UNL     1       2.404   7.933  18.993  0.00  0.00    +0.000 A 
ATOM     12  C   UNL     1       3.168   6.718  18.855  0.00  0.00    +0.000 A 
ATOM     13  N   UNL     1       4.212   6.233  18.043  0.00  0.00    +0.000 N 
ENDROOT
BRANCH   8  14
ATOM     14  C   UNL     1      -0.229  11.287  19.729  0.00  0.00    +0.000 A 
ATOM     15  C   UNL     1      -0.061  12.493  20.494  0.00  0.00    +0.000 A 
ATOM     16  C   UNL     1       1.095  13.011  21.270  0.00  0.00    +0.000 C 
ATOM     17  N   UNL     1      -1.165  13.251  20.466  0.00  0.00    +0.000 NA
ATOM     18  O   UNL     1      -2.068  12.572  19.692  0.00  0.00    +0.000 OA
ATOM     19  C   UNL     1      -1.521  11.411  19.243  0.00  0.00    +0.000 A 
ATOM     20  C   UNL     1      -2.422  10.627  18.375  0.00  0.00    +0.000 C 
ENDBRANCH   8  14
BRANCH   9  21
ATOM     21  O   UNL     1       1.638  11.271  17.531  0.00  0.00    +0.000 OA
ATOM     22  C   UNL     1       2.540  12.334  17.809  0.00  0.00    +0.000 C 
ENDBRANCH   9  21
BRANCH  13  23
ATOM     23  C   UNL     1       4.928   7.009  17.031  0.00  0.00    +0.000 C 
ATOM     24  C   UNL     1       6.329   7.388  17.528  0.00  0.00    +0.000 C 
BRANCH  23  25
ATOM     25  C   UNL     1       5.050   6.456  15.592  0.00  0.00    +0.000 C 
BRANCH  25  26
ATOM     26  O   UNL     1       6.394   6.084  15.292  0.00  0.00    +0.000 OA
ATOM     27  C   UNL     1       6.434   4.907  14.489  0.00  0.00    +0.000 C 
ENDBRANCH  25  26
ENDBRANCH  23  25
ENDBRANCH  13  23
BRANCH   1  28
ATOM     28  C   UNL     1       5.487   3.982  17.893  0.00  0.00    +0.000 C 
BRANCH  28  30
ATOM     29  C   UNL     1       7.787   4.452  17.839  0.00  0.00    +0.000 C 
ATOM     30  O   UNL     1       6.684   4.093  18.664  0.00  0.00    +0.000 OA
ENDBRANCH  28  30
ENDBRANCH   1  28
TORSDOF 7
ENDMDL
MODEL 4
REMARK VINA RESULT:      -5.9      2.270      4.109
REMARK  Name = 
REMARK  13 active torsions:
REMARK  status: ('A' for Active; 'I' for Inactive)
REMARK    1  A    between atoms: C_1  and  O_2
REMARK    2  A    between atoms: O_2  and  C_3
REMARK    3  A    between atoms: C_3  and  C_4
REMARK    4  A    between atoms: C_11  and  C_12
REMARK    5  A    between atoms: C_13  and  C_14
REMARK    6  A    between atoms: C_17  and  C_18
REMARK    7  A    between atoms: C_19  and  O_20
REMARK    8  A    between atoms: O_20  and  C_21
REMARK    9  A    between atoms: N_25  and  C_26
REMARK   10  A    between atoms: C_26  and  C_27
REMARK   11  A    between atoms: C_26  and  C_28
REMARK   12  A    between atoms: C_28  and  O_29
REMARK   13  A    between atoms: O_29  and  C_30
REMARK                            x       y       z     vdW  Elec       q    Type
REMARK                         _______ _______ _______ _____ _____    ______ ____
ROOT
ATOM      1  C   UNL     1       4.627   4.812  18.522  0.00  0.00    +0.000 A 
ATOM      2  N   UNL     1       3.858   4.362  19.491  0.00  0.00    +0.000 NA
ATOM      3  C   UNL     1       2.986   5.362  19.788  0.00  0.00    +0.000 A 
ATOM      4  C   UNL     1       1.994   5.361  20.765  0.00  0.00    +0.000 A 
ATOM      5  N   UNL     1       1.212   6.442  20.959  0.00  0.00    +0.000 NA
ATOM      6  C   UNL     1       1.362   7.516  20.179  0.00  0.00    +0.000 A 
ATOM      7  C   UNL     1       0.501   8.573  20.425  0.00  0.00    +0.000 A 
ATOM      8  C   UNL     1       0.447   9.729  19.631  0.00  0.00    +0.000 A 
ATOM      9  C   UNL     1       1.363   9.826  18.566  0.00  0.00    +0.000 A 
ATOM     10  C   UNL     1       2.316   8.810  18.363  0.00  0.00    +0.000 A 
ATOM     11  C   UNL     1       2.315   7.624  19.133  0.00  0.00    +0.000 A 
ATOM     12  C   UNL     1       3.175   6.479  18.968  0.00  0.00    +0.000 A 
ATOM     13  N   UNL     1       4.258   6.102  18.149  0.00  0.00    +0.000 N 
ENDROOT
BRANCH   8  14
ATOM     14  C   UNL     1      -0.584  10.733  19.941  0.00  0.00    +0.000 A 
ATOM     15  C   UNL     1      -1.620  11.298  19.117  0.00  0.00    +0.000 A 
ATOM     16  C   UNL     1      -1.961  11.086  17.687  0.00  0.00    +0.000 C 
ATOM     17  N   UNL     1      -2.385  12.153  19.806  0.00  0.00    +0.000 NA
ATOM     18  O   UNL     1      -1.880  12.169  21.080  0.00  0.00    +0.000 OA
ATOM     19  C   UNL     1      -0.819  11.324  21.173  0.00  0.00    +0.000 A 
ATOM     20  C   UNL     1      -0.228  11.259  22.525  0.00  0.00    +0.000 C 
ENDBRANCH   8  14
BRANCH   9  21
ATOM     21  O   UNL     1       1.285  10.926  17.753  0.00  0.00    +0.000 OA
ATOM     22  C   UNL     1       2.187  12.001  17.987  0.00  0.00    +0.000 C 
ENDBRANCH   9  21
BRANCH  13  23
ATOM     23  C   UNL     1       4.912   6.960  17.163  0.00  0.00    +0.000 C 
ATOM     24  C   UNL     1       6.310   7.371  17.642  0.00  0.00    +0.000 C 
BRANCH  23  25
ATOM     25  C   UNL     1       5.014   6.489  15.693  0.00  0.00    +0.000 C 
BRANCH  25  26
ATOM     26  O   UNL     1       6.354   6.136  15.354  0.00  0.00    +0.000 OA
ATOM     27  C   UNL     1       6.386   4.975  14.528  0.00  0.00    +0.000 C 
ENDBRANCH  25  26
ENDBRANCH  23  25
ENDBRANCH  13  23
BRANCH   1  28
ATOM     28  C   UNL     1       5.712   3.967  17.949  0.00  0.00    +0.000 C 
BRANCH  28  30
ATOM     29  C   UNL     1       8.008   4.420  17.762  0.00  0.00    +0.000 C 
ATOM     30  O   UNL     1       6.920   4.235  18.661  0.00  0.00    +0.000 OA
ENDBRANCH  28  30
ENDBRANCH   1  28
TORSDOF 7
ENDMDL
MODEL 5
REMARK VINA RESULT:      -5.8      1.882      3.996
REMARK  Name = 
REMARK  13 active torsions:
REMARK  status: ('A' for Active; 'I' for Inactive)
REMARK    1  A    between atoms: C_1  and  O_2
REMARK    2  A    between atoms: O_2  and  C_3
REMARK    3  A    between atoms: C_3  and  C_4
REMARK    4  A    between atoms: C_11  and  C_12
REMARK    5  A    between atoms: C_13  and  C_14
REMARK    6  A    between atoms: C_17  and  C_18
REMARK    7  A    between atoms: C_19  and  O_20
REMARK    8  A    between atoms: O_20  and  C_21
REMARK    9  A    between atoms: N_25  and  C_26
REMARK   10  A    between atoms: C_26  and  C_27
REMARK   11  A    between atoms: C_26  and  C_28
REMARK   12  A    between atoms: C_28  and  O_29
REMARK   13  A    between atoms: O_29  and  C_30
REMARK                            x       y       z     vdW  Elec       q    Type
REMARK                         _______ _______ _______ _____ _____    ______ ____
ROOT
ATOM      1  C   UNL     1       4.163   4.683  18.657  0.00  0.00    +0.000 A 
ATOM      2  N   UNL     1       3.338   4.445  19.654  0.00  0.00    +0.000 NA
ATOM      3  C   UNL     1       2.651   5.598  19.870  0.00  0.00    +0.000 A 
ATOM      4  C   UNL     1       1.681   5.839  20.841  0.00  0.00    +0.000 A 
ATOM      5  N   UNL     1       1.096   7.049  20.949  0.00  0.00    +0.000 NA
ATOM      6  C   UNL     1       1.419   8.020  20.090  0.00  0.00    +0.000 A 
ATOM      7  C   UNL     1       0.752   9.223  20.251  0.00  0.00    +0.000 A 
ATOM      8  C   UNL     1       0.888  10.308  19.370  0.00  0.00    +0.000 A 
ATOM      9  C   UNL     1       1.798  10.167  18.306  0.00  0.00    +0.000 A 
ATOM     10  C   UNL     1       2.563   8.991  18.184  0.00  0.00    +0.000 A 
ATOM     11  C   UNL     1       2.368   7.885  19.043  0.00  0.00    +0.000 A 
ATOM     12  C   UNL     1       3.020   6.601  18.969  0.00  0.00    +0.000 A 
ATOM     13  N   UNL     1       4.015   5.985  18.186  0.00  0.00    +0.000 N 
ENDROOT
BRANCH   8  14
ATOM     14  C   UNL     1       0.045  11.493  19.598  0.00  0.00    +0.000 A 
ATOM     15  C   UNL     1       0.329  12.728  20.280  0.00  0.00    +0.000 A 
ATOM     16  C   UNL     1       1.539  13.193  21.004  0.00  0.00    +0.000 C 
ATOM     17  N   UNL     1      -0.707  13.573  20.218  0.00  0.00    +0.000 NA
ATOM     18  O   UNL     1      -1.680  12.926  19.503  0.00  0.00    +0.000 OA
ATOM     19  C   UNL     1      -1.242  11.697  19.123  0.00  0.00    +0.000 A 
ATOM     20  C   UNL     1      -2.222  10.938  18.321  0.00  0.00    +0.000 C 
ENDBRANCH   8  14
BRANCH   9  21
ATOM     21  O   UNL     1       1.901  11.200  17.411  0.00  0.00    +0.000 OA
ATOM     22  C   UNL     1       2.781  12.273  17.720  0.00  0.00    +0.000 C 
ENDBRANCH   9  21
BRANCH  13  23
ATOM     23  C   UNL     1       4.797   6.641  17.140  0.00  0.00    +0.000 C 
ATOM     24  C   UNL     1       6.163   7.085  17.679  0.00  0.00    +0.000 C 
BRANCH  23  25
ATOM     25  C   UNL     1       5.012   5.925  15.786  0.00  0.00    +0.000 C 
BRANCH  25  26
ATOM     26  O   UNL     1       6.397   5.840  15.459  0.00  0.00    +0.000 OA
ATOM     27  C   UNL     1       6.715   4.572  14.891  0.00  0.00    +0.000 C 
ENDBRANCH  25  26
ENDBRANCH  23  25
ENDBRANCH  13  23
BRANCH   1  28
ATOM     28  C   UNL     1       5.084   3.624  18.155  0.00  0.00    +0.000 C 
BRANCH  28  30
ATOM     29  C   UNL     1       3.625   1.794  17.978  0.00  0.00    +0.000 C 
ATOM     30  O   UNL     1       4.359   2.780  17.260  0.00  0.00    +0.000 OA
ENDBRANCH  28  30
ENDBRANCH   1  28
TORSDOF 7
ENDMDL
MODEL 6
REMARK VINA RESULT:      -5.7      1.835      3.721
REMARK  Name = 
REMARK  13 active torsions:
REMARK  status: ('A' for Active; 'I' for Inactive)
REMARK    1  A    between atoms: C_1  and  O_2
REMARK    2  A    between atoms: O_2  and  C_3
REMARK    3  A    between atoms: C_3  and  C_4
REMARK    4  A    between atoms: C_11  and  C_12
REMARK    5  A    between atoms: C_13  and  C_14
REMARK    6  A    between atoms: C_17  and  C_18
REMARK    7  A    between atoms: C_19  and  O_20
REMARK    8  A    between atoms: O_20  and  C_21
REMARK    9  A    between atoms: N_25  and  C_26
REMARK   10  A    between atoms: C_26  and  C_27
REMARK   11  A    between atoms: C_26  and  C_28
REMARK   12  A    between atoms: C_28  and  O_29
REMARK   13  A    between atoms: O_29  and  C_30
REMARK                            x       y       z     vdW  Elec       q    Type
REMARK                         _______ _______ _______ _____ _____    ______ ____
ROOT
ATOM      1  C   UNL     1       3.999   4.587  18.654  0.00  0.00    +0.000 A 
ATOM      2  N   UNL     1       3.191   4.392  19.674  0.00  0.00    +0.000 NA
ATOM      3  C   UNL     1       2.550   5.571  19.890  0.00  0.00    +0.000 A 
ATOM      4  C   UNL     1       1.614   5.860  20.880  0.00  0.00    +0.000 A 
ATOM      5  N   UNL     1       1.074   7.091  20.985  0.00  0.00    +0.000 NA
ATOM      6  C   UNL     1       1.409   8.037  20.104  0.00  0.00    +0.000 A 
ATOM      7  C   UNL     1       0.789   9.266  20.265  0.00  0.00    +0.000 A 
ATOM      8  C   UNL     1       0.940  10.334  19.365  0.00  0.00    +0.000 A 
ATOM      9  C   UNL     1       1.818  10.146  18.281  0.00  0.00    +0.000 A 
ATOM     10  C   UNL     1       2.538   8.942  18.158  0.00  0.00    +0.000 A 
ATOM     11  C   UNL     1       2.326   7.856  19.037  0.00  0.00    +0.000 A 
ATOM     12  C   UNL     1       2.931   6.549  18.966  0.00  0.00    +0.000 A 
ATOM     13  N   UNL     1       3.884   5.887  18.168  0.00  0.00    +0.000 N 
ENDROOT
BRANCH   8  14
ATOM     14  C   UNL     1       0.145  11.551  19.596  0.00  0.00    +0.000 A 
ATOM     15  C   UNL     1      -1.217  11.859  19.252  0.00  0.00    +0.000 A 
ATOM     16  C   UNL     1      -2.247  11.075  18.524  0.00  0.00    +0.000 C 
ATOM     17  N   UNL     1      -1.573  13.072  19.692  0.00  0.00    +0.000 NA
ATOM     18  O   UNL     1      -0.471  13.581  20.328  0.00  0.00    +0.000 OA
ATOM     19  C   UNL     1       0.549  12.684  20.285  0.00  0.00    +0.000 A 
ATOM     20  C   UNL     1       1.773  13.142  20.974  0.00  0.00    +0.000 C 
ENDBRANCH   8  14
BRANCH   9  21
ATOM     21  O   UNL     1       1.935  11.162  17.369  0.00  0.00    +0.000 OA
ATOM     22  C   UNL     1       2.862  12.205  17.638  0.00  0.00    +0.000 C 
ENDBRANCH   9  21
BRANCH  13  23
ATOM     23  C   UNL     1       4.662   6.501  17.093  0.00  0.00    +0.000 C 
ATOM     24  C   UNL     1       5.976   7.079  17.635  0.00  0.00    +0.000 C 
BRANCH  23  25
ATOM     25  C   UNL     1       4.973   5.687  15.816  0.00  0.00    +0.000 C 
BRANCH  25  26
ATOM     26  O   UNL     1       6.362   5.735  15.496  0.00  0.00    +0.000 OA
ATOM     27  C   UNL     1       6.701   4.745  14.528  0.00  0.00    +0.000 C 
ENDBRANCH  25  26
ENDBRANCH  23  25
ENDBRANCH  13  23
BRANCH   1  28
ATOM     28  C   UNL     1       4.870   3.490  18.145  0.00  0.00    +0.000 C 
BRANCH  28  30
ATOM     29  C   UNL     1       3.758   1.432  18.343  0.00  0.00    +0.000 C 
ATOM     30  O   UNL     1       4.047   2.529  17.483  0.00  0.00    +0.000 OA
ENDBRANCH  28  30
ENDBRANCH   1  28
TORSDOF 7
ENDMDL
MODEL 7
REMARK VINA RESULT:      -5.6      3.991      6.467
REMARK  Name = 
REMARK  13 active torsions:
REMARK  status: ('A' for Active; 'I' for Inactive)
REMARK    1  A    between atoms: C_1  and  O_2
REMARK    2  A    between atoms: O_2  and  C_3
REMARK    3  A    between atoms: C_3  and  C_4
REMARK    4  A    between atoms: C_11  and  C_12
REMARK    5  A    between atoms: C_13  and  C_14
REMARK    6  A    between atoms: C_17  and  C_18
REMARK    7  A    between atoms: C_19  and  O_20
REMARK    8  A    between atoms: O_20  and  C_21
REMARK    9  A    between atoms: N_25  and  C_26
REMARK   10  A    between atoms: C_26  and  C_27
REMARK   11  A    between atoms: C_26  and  C_28
REMARK   12  A    between atoms: C_28  and  O_29
REMARK   13  A    between atoms: O_29  and  C_30
REMARK                            x       y       z     vdW  Elec       q    Type
REMARK                         _______ _______ _______ _____ _____    ______ ____
ROOT
ATOM      1  C   UNL     1       1.504   8.544  19.916  0.00  0.00    +0.000 A 
ATOM      2  N   UNL     1       1.510   8.264  21.203  0.00  0.00    +0.000 NA
ATOM      3  C   UNL     1       0.688   9.169  21.798  0.00  0.00    +0.000 A 
ATOM      4  C   UNL     1       0.397   9.287  23.155  0.00  0.00    +0.000 A 
ATOM      5  N   UNL     1      -0.427  10.255  23.604  0.00  0.00    +0.000 NA
ATOM      6  C   UNL     1      -1.004  11.090  22.735  0.00  0.00    +0.000 A 
ATOM      7  C   UNL     1      -1.858  12.038  23.275  0.00  0.00    +0.000 A 
ATOM      8  C   UNL     1      -2.630  12.917  22.499  0.00  0.00    +0.000 A 
ATOM      9  C   UNL     1      -2.471  12.856  21.102  0.00  0.00    +0.000 A 
ATOM     10  C   UNL     1      -1.531  11.972  20.538  0.00  0.00    +0.000 A 
ATOM     11  C   UNL     1      -0.808  11.050  21.330  0.00  0.00    +0.000 A 
ATOM     12  C   UNL     1       0.111  10.040  20.868  0.00  0.00    +0.000 A 
ATOM     13  N   UNL     1       0.661   9.618  19.642  0.00  0.00    +0.000 N 
ENDROOT
BRANCH   8  14
ATOM     14  C   UNL     1      -3.573  13.807  23.195  0.00  0.00    +0.000 A 
ATOM     15  C   UNL     1      -5.003  13.731  23.334  0.00  0.00    +0.000 A 
ATOM     16  C   UNL     1      -5.991  12.763  22.795  0.00  0.00    +0.000 C 
ATOM     17  N   UNL     1      -5.476  14.725  24.096  0.00  0.00    +0.000 NA
ATOM     18  O   UNL     1      -4.386  15.464  24.472  0.00  0.00    +0.000 OA
ATOM     19  C   UNL     1      -3.252  14.924  23.951  0.00  0.00    +0.000 A 
ATOM     20  C   UNL     1      -2.021  15.646  24.330  0.00  0.00    +0.000 C 
ENDBRANCH   8  14
BRANCH   9  21
ATOM     21  O   UNL     1      -3.256  13.673  20.332  0.00  0.00    +0.000 OA
ATOM     22  C   UNL     1      -4.359  13.095  19.646  0.00  0.00    +0.000 C 
ENDBRANCH   9  21
BRANCH  13  23
ATOM     23  C   UNL     1       0.443  10.264  18.349  0.00  0.00    +0.000 C 
ATOM     24  C   UNL     1      -0.996  10.044  17.867  0.00  0.00    +0.000 C 
BRANCH  23  25
ATOM     25  C   UNL     1       0.797  11.760  18.176  0.00  0.00    +0.000 C 
BRANCH  25  26
ATOM     26  O   UNL     1       2.206  11.970  18.243  0.00  0.00    +0.000 OA
ATOM     27  C   UNL     1       2.508  13.306  18.636  0.00  0.00    +0.000 C 
ENDBRANCH  25  26
ENDBRANCH  23  25
ENDBRANCH  13  23
BRANCH   1  28
ATOM     28  C   UNL     1       2.311   7.742  18.954  0.00  0.00    +0.000 C 
BRANCH  28  30
ATOM     29  C   UNL     1       2.406   5.397  18.887  0.00  0.00    +0.000 C 
ATOM     30  O   UNL     1       2.769   6.563  19.618  0.00  0.00    +0.000 OA
ENDBRANCH  28  30
ENDBRANCH   1  28
TORSDOF 7
ENDMDL
MODEL 8
REMARK VINA RESULT:      -5.6      4.738      8.005
REMARK  Name = 
REMARK  13 active torsions:
REMARK  status: ('A' for Active; 'I' for Inactive)
REMARK    1  A    between atoms: C_1  and  O_2
REMARK    2  A    between atoms: O_2  and  C_3
REMARK    3  A    between atoms: C_3  and  C_4
REMARK    4  A    between atoms: C_11  and  C_12
REMARK    5  A    between atoms: C_13  and  C_14
REMARK    6  A    between atoms: C_17  and  C_18
REMARK    7  A    between atoms: C_19  and  O_20
REMARK    8  A    between atoms: O_20  and  C_21
REMARK    9  A    between atoms: N_25  and  C_26
REMARK   10  A    between atoms: C_26  and  C_27
REMARK   11  A    between atoms: C_26  and  C_28
REMARK   12  A    between atoms: C_28  and  O_29
REMARK   13  A    between atoms: O_29  and  C_30
REMARK                            x       y       z     vdW  Elec       q    Type
REMARK                         _______ _______ _______ _____ _____    ______ ____
ROOT
ATOM      1  C   UNL     1       0.065  10.342  18.602  0.00  0.00    +0.000 A 
ATOM      2  N   UNL     1       0.506  11.009  19.648  0.00  0.00    +0.000 NA
ATOM      3  C   UNL     1      -0.538  11.756  20.097  0.00  0.00    +0.000 A 
ATOM      4  C   UNL     1      -0.547  12.643  21.170  0.00  0.00    +0.000 A 
ATOM      5  N   UNL     1      -1.660  13.335  21.487  0.00  0.00    +0.000 NA
ATOM      6  C   UNL     1      -2.782  13.139  20.789  0.00  0.00    +0.000 A 
ATOM      7  C   UNL     1      -3.889  13.867  21.197  0.00  0.00    +0.000 A 
ATOM      8  C   UNL     1      -5.171  13.701  20.648  0.00  0.00    +0.000 A 
ATOM      9  C   UNL     1      -5.307  12.782  19.590  0.00  0.00    +0.000 A 
ATOM     10  C   UNL     1      -4.175  12.109  19.092  0.00  0.00    +0.000 A 
ATOM     11  C   UNL     1      -2.905  12.241  19.697  0.00  0.00    +0.000 A 
ATOM     12  C   UNL     1      -1.694  11.544  19.340  0.00  0.00    +0.000 A 
ATOM     13  N   UNL     1      -1.278  10.619  18.362  0.00  0.00    +0.000 N 
ENDROOT
BRANCH   8  14
ATOM     14  C   UNL     1      -6.280  14.465  21.241  0.00  0.00    +0.000 A 
ATOM     15  C   UNL     1      -7.002  14.267  22.470  0.00  0.00    +0.000 A 
ATOM     16  C   UNL     1      -6.893  13.217  23.514  0.00  0.00    +0.000 C 
ATOM     17  N   UNL     1      -7.916  15.226  22.662  0.00  0.00    +0.000 NA
ATOM     18  O   UNL     1      -7.816  16.064  21.583  0.00  0.00    +0.000 OA
ATOM     19  C   UNL     1      -6.845  15.628  20.740  0.00  0.00    +0.000 A 
ATOM     20  C   UNL     1      -6.651  16.492  19.558  0.00  0.00    +0.000 C 
ENDBRANCH   8  14
BRANCH   9  21
ATOM     21  O   UNL     1      -6.562  12.574  19.081  0.00  0.00    +0.000 OA
ATOM     22  C   UNL     1      -6.885  11.277  18.595  0.00  0.00    +0.000 C 
ENDBRANCH   9  21
BRANCH  13  23
ATOM     23  C   UNL     1      -2.099  10.128  17.256  0.00  0.00    +0.000 C 
ATOM     24  C   UNL     1      -3.319   9.362  17.783  0.00  0.00    +0.000 C 
BRANCH  23  25
ATOM     25  C   UNL     1      -2.571  11.114  16.162  0.00  0.00    +0.000 C 
BRANCH  25  26
ATOM     26  O   UNL     1      -3.764  10.653  15.530  0.00  0.00    +0.000 OA
ATOM     27  C   UNL     1      -3.490  10.138  14.230  0.00  0.00    +0.000 C 
ENDBRANCH  25  26
ENDBRANCH  23  25
ENDBRANCH  13  23
BRANCH   1  28
ATOM     28  C   UNL     1       0.960   9.417  17.850  0.00  0.00    +0.000 C 
BRANCH  28  30
ATOM     29  C   UNL     1       2.408   7.612  18.249  0.00  0.00    +0.000 C 
ATOM     30  O   UNL     1       1.878   8.827  18.771  0.00  0.00    +0.000 OA
ENDBRANCH  28  30
ENDBRANCH   1  28
TORSDOF 7
ENDMDL
MODEL 9
REMARK VINA RESULT:      -5.5      6.619      9.537
REMARK  Name = 
REMARK  13 active torsions:
REMARK  status: ('A' for Active; 'I' for Inactive)
REMARK    1  A    between atoms: C_1  and  O_2
REMARK    2  A    between atoms: O_2  and  C_3
REMARK    3  A    between atoms: C_3  and  C_4
REMARK    4  A    between atoms: C_11  and  C_12
REMARK    5  A    between atoms: C_13  and  C_14
REMARK    6  A    between atoms: C_17  and  C_18
REMARK    7  A    between atoms: C_19  and  O_20
REMARK    8  A    between atoms: O_20  and  C_21
REMARK    9  A    between atoms: N_25  and  C_26
REMARK   10  A    between atoms: C_26  and  C_27
REMARK   11  A    between atoms: C_26  and  C_28
REMARK   12  A    between atoms: C_28  and  O_29
REMARK   13  A    between atoms: O_29  and  C_30
REMARK                            x       y       z     vdW  Elec       q    Type
REMARK                         _______ _______ _______ _____ _____    ______ ____
ROOT
ATOM      1  C   UNL     1       2.546  14.903  18.226  0.00  0.00    +0.000 A 
ATOM      2  N   UNL     1       2.432  13.606  18.035  0.00  0.00    +0.000 NA
ATOM      3  C   UNL     1       1.296  13.220  18.673  0.00  0.00    +0.000 A 
ATOM      4  C   UNL     1       0.773  11.933  18.771  0.00  0.00    +0.000 A 
ATOM      5  N   UNL     1      -0.361  11.697  19.461  0.00  0.00    +0.000 NA
ATOM      6  C   UNL     1      -1.016  12.716  20.026  0.00  0.00    +0.000 A 
ATOM      7  C   UNL     1      -2.187  12.393  20.692  0.00  0.00    +0.000 A 
ATOM      8  C   UNL     1      -3.053  13.350  21.245  0.00  0.00    +0.000 A 
ATOM      9  C   UNL     1      -2.666  14.700  21.157  0.00  0.00    +0.000 A 
ATOM     10  C   UNL     1      -1.429  15.041  20.577  0.00  0.00    +0.000 A 
ATOM     11  C   UNL     1      -0.599  14.071  19.970  0.00  0.00    +0.000 A 
ATOM     12  C   UNL     1       0.640  14.301  19.269  0.00  0.00    +0.000 A 
ATOM     13  N   UNL     1       1.476  15.394  18.969  0.00  0.00    +0.000 N 
ENDROOT
BRANCH   8  14
ATOM     14  C   UNL     1      -4.316  12.879  21.837  0.00  0.00    +0.000 A 
ATOM     15  C   UNL     1      -4.723  12.770  23.212  0.00  0.00    +0.000 A 
ATOM     16  C   UNL     1      -3.997  13.058  24.476  0.00  0.00    +0.000 C 
ATOM     17  N   UNL     1      -5.985  12.336  23.319  0.00  0.00    +0.000 NA
ATOM     18  O   UNL     1      -6.431  12.155  22.037  0.00  0.00    +0.000 OA
ATOM     19  C   UNL     1      -5.454  12.482  21.151  0.00  0.00    +0.000 A 
ATOM     20  C   UNL     1      -5.861  12.340  19.738  0.00  0.00    +0.000 C 
ENDBRANCH   8  14
BRANCH   9  21
ATOM     21  O   UNL     1      -3.527  15.646  21.647  0.00  0.00    +0.000 OA
ATOM     22  C   UNL     1      -3.147  16.362  22.816  0.00  0.00    +0.000 C 
ENDBRANCH   9  21
BRANCH  13  23
ATOM     23  C   UNL     1       1.282  16.764  19.443  0.00  0.00    +0.000 C 
ATOM     24  C   UNL     1       2.250  17.086  20.588  0.00  0.00    +0.000 C 
BRANCH  23  25
ATOM     25  C   UNL     1       1.314  17.932  18.429  0.00  0.00    +0.000 C 
BRANCH  25  26
ATOM     26  O   UNL     1       0.279  17.801  17.456  0.00  0.00    +0.000 OA
ATOM     27  C   UNL     1       0.646  18.426  16.229  0.00  0.00    +0.000 C 
ENDBRANCH  25  26
ENDBRANCH  23  25
ENDBRANCH  13  23
BRANCH   1  28
ATOM     28  C   UNL     1       3.696  15.664  17.660  0.00  0.00    +0.000 C 
BRANCH  28  30
ATOM     29  C   UNL     1       5.837  14.720  17.853  0.00  0.00    +0.000 C 
ATOM     30  O   UNL     1       4.827  15.476  18.512  0.00  0.00    +0.000 OA
ENDBRANCH  28  30
ENDBRANCH   1  28
TORSDOF 7
ENDMDL
