MODEL 1
REMARK VINA RESULT:      -6.7      0.000      0.000
REMARK  Name = 
REMARK  10 active torsions:
REMARK  status: ('A' for Active; 'I' for Inactive)
REMARK    1  A    between atoms: C_1  and  C_2
REMARK    2  A    between atoms: C_2  and  C_3
REMARK    3  A    between atoms: C_3  and  N_4
REMARK    4  A    between atoms: N_4  and  C_5
REMARK    5  A    between atoms: C_5  and  C_6
REMARK    6  A    between atoms: C_6  and  C_7
REMARK    7  A    between atoms: C_8  and  C_10
REMARK    8  A    between atoms: C_11  and  N_12
REMARK    9  A    between atoms: C_13  and  C_15
REMARK   10  A    between atoms: C_15  and  C_16
REMARK                            x       y       z     vdW  Elec       q    Type
REMARK                         _______ _______ _______ _____ _____    ______ ____
ROOT
ATOM      1  C   UNL     1       4.919   4.241  18.123  0.00  0.00    +0.000 A 
ATOM      2  C   UNL     1       4.815   3.601  16.897  0.00  0.00    +0.000 A 
ATOM      3  S   UNL     1       3.299   2.904  16.613  0.00  0.00    +0.000 S 
ATOM      4  C   UNL     1       2.743   3.312  18.175  0.00  0.00    +0.000 A 
ATOM      5  C   UNL     1       3.630   4.160  18.829  0.00  0.00    +0.000 A 
ATOM      6  C   UNL     1       3.297   4.905  20.104  0.00  0.00    +0.000 C 
ATOM      7  C   UNL     1       1.832   5.303  20.235  0.00  0.00    +0.000 C 
ATOM      8  C   UNL     1       0.944   4.162  20.734  0.00  0.00    +0.000 C 
ATOM      9  C   UNL     1       1.210   2.786  20.116  0.00  0.00    +0.000 C 
ATOM     10  C   UNL     1       1.388   2.818  18.600  0.00  0.00    +0.000 C 
ENDROOT
BRANCH   2  11
ATOM     11  N   UNL     1       5.665   3.421  15.826  0.00  0.00    +0.000 N 
ATOM     12  C   UNL     1       5.742   4.353  14.808  0.00  0.00    +0.000 C 
ATOM     13  O   UNL     1       5.069   5.382  14.730  0.00  0.00    +0.000 OA
ATOM     14  H   UNL     1       6.508   2.898  16.024  0.00  0.00    +0.000 HD
BRANCH  12  15
ATOM     15  C   UNL     1       6.835   4.003  13.809  0.00  0.00    +0.000 C 
ATOM     16  C   UNL     1       6.293   3.495  12.483  0.00  0.00    +0.000 C 
ENDBRANCH  12  15
ENDBRANCH   2  11
BRANCH   1  18
ATOM     17  N   UNL     1       6.307   6.307  17.868  0.00  0.00    +0.000 N 
ATOM     18  C   UNL     1       6.095   5.059  18.490  0.00  0.00    +0.000 C 
ATOM     19  O   UNL     1       6.925   4.602  19.280  0.00  0.00    +0.000 OA
BRANCH  17  20
ATOM     20  C   UNL     1       7.569   6.994  18.163  0.00  0.00    +0.000 C 
BRANCH  20  22
ATOM     21  C   UNL     1       8.530   9.369  18.302  0.00  0.00    +0.000 C 
ATOM     22  C   UNL     1       7.729   8.363  17.487  0.00  0.00    +0.000 C 
ENDBRANCH  20  22
ENDBRANCH  17  20
BRANCH  17  23
ATOM     23  C   UNL     1       5.257   7.093  17.214  0.00  0.00    +0.000 C 
BRANCH  23  24
ATOM     24  C   UNL     1       4.172   7.635  18.142  0.00  0.00    +0.000 C 
ATOM     25  C   UNL     1       2.838   7.687  17.403  0.00  0.00    +0.000 C 
ENDBRANCH  23  24
ENDBRANCH  17  23
ENDBRANCH   1  18
TORSDOF 7
ENDMDL
MODEL 2
REMARK VINA RESULT:      -6.2      2.442      4.558
REMARK  Name = 
REMARK  10 active torsions:
REMARK  status: ('A' for Active; 'I' for Inactive)
REMARK    1  A    between atoms: C_1  and  C_2
REMARK    2  A    between atoms: C_2  and  C_3
REMARK    3  A    between atoms: C_3  and  N_4
REMARK    4  A    between atoms: N_4  and  C_5
REMARK    5  A    between atoms: C_5  and  C_6
REMARK    6  A    between atoms: C_6  and  C_7
REMARK    7  A    between atoms: C_8  and  C_10
REMARK    8  A    between atoms: C_11  and  N_12
REMARK    9  A    between atoms: C_13  and  C_15
REMARK   10  A    between atoms: C_15  and  C_16
REMARK                            x       y       z     vdW  Elec       q    Type
REMARK                         _______ _______ _______ _____ _____    ______ ____
ROOT
ATOM      1  C   UNL     1       3.592   6.144  18.449  0.00  0.00    +0.000 A 
ATOM      2  C   UNL     1       4.949   5.858  18.494  0.00  0.00    +0.000 A 
ATOM      3  S   UNL     1       5.297   4.221  18.747  0.00  0.00    +0.000 S 
ATOM      4  C   UNL     1       3.646   3.830  18.940  0.00  0.00    +0.000 A 
ATOM      5  C   UNL     1       2.823   4.899  18.602  0.00  0.00    +0.000 A 
ATOM      6  C   UNL     1       1.325   4.781  18.412  0.00  0.00    +0.000 C 
ATOM      7  C   UNL     1       0.865   3.434  17.868  0.00  0.00    +0.000 C 
ATOM      8  C   UNL     1       0.758   2.357  18.949  0.00  0.00    +0.000 C 
ATOM      9  C   UNL     1       1.903   2.312  19.966  0.00  0.00    +0.000 C 
ATOM     10  C   UNL     1       3.289   2.423  19.335  0.00  0.00    +0.000 C 
ENDROOT
BRANCH   2  11
ATOM     11  N   UNL     1       6.099   6.604  18.349  0.00  0.00    +0.000 N 
ATOM     12  C   UNL     1       6.633   6.863  17.100  0.00  0.00    +0.000 C 
ATOM     13  O   UNL     1       6.182   6.450  16.031  0.00  0.00    +0.000 OA
ATOM     14  H   UNL     1       6.253   7.307  19.061  0.00  0.00    +0.000 HD
BRANCH  12  15
ATOM     15  C   UNL     1       7.823   7.809  17.184  0.00  0.00    +0.000 C 
ATOM     16  C   UNL     1       8.360   7.969  18.597  0.00  0.00    +0.000 C 
ENDBRANCH  12  15
ENDBRANCH   2  11
BRANCH   1  18
ATOM     17  N   UNL     1       2.121   8.123  18.876  0.00  0.00    +0.000 N 
ATOM     18  C   UNL     1       3.079   7.476  18.066  0.00  0.00    +0.000 C 
ATOM     19  O   UNL     1       3.435   7.975  16.996  0.00  0.00    +0.000 OA
BRANCH  17  20
ATOM     20  C   UNL     1       1.541   9.367  18.360  0.00  0.00    +0.000 C 
BRANCH  20  22
ATOM     21  C   UNL     1      -0.870  10.231  18.211  0.00  0.00    +0.000 C 
ATOM     22  C   UNL     1       0.152   9.213  17.724  0.00  0.00    +0.000 C 
ENDBRANCH  20  22
ENDBRANCH  17  20
BRANCH  17  23
ATOM     23  C   UNL     1       1.897   7.819  20.292  0.00  0.00    +0.000 C 
BRANCH  23  24
ATOM     24  C   UNL     1       1.251   8.938  21.105  0.00  0.00    +0.000 C 
ATOM     25  C   UNL     1      -0.134   8.503  21.577  0.00  0.00    +0.000 C 
ENDBRANCH  23  24
ENDBRANCH  17  23
ENDBRANCH   1  18
TORSDOF 7
ENDMDL
MODEL 3
REMARK VINA RESULT:      -6.1      8.067     10.177
REMARK  Name = 
REMARK  10 active torsions:
REMARK  status: ('A' for Active; 'I' for Inactive)
REMARK    1  A    between atoms: C_1  and  C_2
REMARK    2  A    between atoms: C_2  and  C_3
REMARK    3  A    between atoms: C_3  and  N_4
REMARK    4  A    between atoms: N_4  and  C_5
REMARK    5  A    between atoms: C_5  and  C_6
REMARK    6  A    between atoms: C_6  and  C_7
REMARK    7  A    between atoms: C_8  and  C_10
REMARK    8  A    between atoms: C_11  and  N_12
REMARK    9  A    between atoms: C_13  and  C_15
REMARK   10  A    between atoms: C_15  and  C_16
REMARK                            x       y       z     vdW  Elec       q    Type
REMARK                         _______ _______ _______ _____ _____    ______ ____
ROOT
ATOM      1  C   UNL     1      -2.135  12.139  19.729  0.00  0.00    +0.000 A 
ATOM      2  C   UNL     1      -3.289  12.165  18.960  0.00  0.00    +0.000 A 
ATOM      3  S   UNL     1      -4.668  12.661  19.808  0.00  0.00    +0.000 S 
ATOM      4  C   UNL     1      -3.813  12.742  21.284  0.00  0.00    +0.000 A 
ATOM      5  C   UNL     1      -2.443  12.600  21.091  0.00  0.00    +0.000 A 
ATOM      6  C   UNL     1      -1.409  12.893  22.158  0.00  0.00    +0.000 C 
ATOM      7  C   UNL     1      -1.798  14.007  23.122  0.00  0.00    +0.000 C 
ATOM      8  C   UNL     1      -2.734  13.534  24.236  0.00  0.00    +0.000 C 
ATOM      9  C   UNL     1      -3.865  12.594  23.808  0.00  0.00    +0.000 C 
ATOM     10  C   UNL     1      -4.587  13.041  22.539  0.00  0.00    +0.000 C 
ENDROOT
BRANCH   2  11
ATOM     11  N   UNL     1      -3.575  11.903  17.637  0.00  0.00    +0.000 N 
ATOM     12  C   UNL     1      -3.488  10.621  17.125  0.00  0.00    +0.000 C 
ATOM     13  O   UNL     1      -3.132   9.624  17.754  0.00  0.00    +0.000 OA
ATOM     14  H   UNL     1      -4.260  12.513  17.211  0.00  0.00    +0.000 HD
BRANCH  12  15
ATOM     15  C   UNL     1      -3.972  10.559  15.683  0.00  0.00    +0.000 C 
ATOM     16  C   UNL     1      -2.906  10.072  14.716  0.00  0.00    +0.000 C 
ENDBRANCH  12  15
ENDBRANCH   2  11
BRANCH   1  18
ATOM     17  N   UNL     1       0.001  10.841  19.609  0.00  0.00    +0.000 N 
ATOM     18  C   UNL     1      -0.800  11.904  19.140  0.00  0.00    +0.000 C 
ATOM     19  O   UNL     1      -0.365  12.692  18.296  0.00  0.00    +0.000 OA
BRANCH  17  20
ATOM     20  C   UNL     1       1.372  10.759  19.093  0.00  0.00    +0.000 C 
BRANCH  20  22
ATOM     21  C   UNL     1       2.261   8.516  18.223  0.00  0.00    +0.000 C 
ATOM     22  C   UNL     1       1.551   9.820  17.891  0.00  0.00    +0.000 C 
ENDBRANCH  20  22
ENDBRANCH  17  20
BRANCH  17  23
ATOM     23  C   UNL     1      -0.517   9.667  20.316  0.00  0.00    +0.000 C 
BRANCH  23  24
ATOM     24  C   UNL     1       0.365   9.144  21.448  0.00  0.00    +0.000 C 
ATOM     25  C   UNL     1      -0.284   9.451  22.794  0.00  0.00    +0.000 C 
ENDBRANCH  23  24
ENDBRANCH  17  23
ENDBRANCH   1  18
TORSDOF 7
ENDMDL
MODEL 4
REMARK VINA RESULT:      -6.0      1.451      2.195
REMARK  Name = 
REMARK  10 active torsions:
REMARK  status: ('A' for Active; 'I' for Inactive)
REMARK    1  A    between atoms: C_1  and  C_2
REMARK    2  A    between atoms: C_2  and  C_3
REMARK    3  A    between atoms: C_3  and  N_4
REMARK    4  A    between atoms: N_4  and  C_5
REMARK    5  A    between atoms: C_5  and  C_6
REMARK    6  A    between atoms: C_6  and  C_7
REMARK    7  A    between atoms: C_8  and  C_10
REMARK    8  A    between atoms: C_11  and  N_12
REMARK    9  A    between atoms: C_13  and  C_15
REMARK   10  A    between atoms: C_15  and  C_16
REMARK                            x       y       z     vdW  Elec       q    Type
REMARK                         _______ _______ _______ _____ _____    ______ ____
ROOT
ATOM      1  C   UNL     1       4.393   5.353  17.498  0.00  0.00    +0.000 A 
ATOM      2  C   UNL     1       4.355   4.469  16.428  0.00  0.00    +0.000 A 
ATOM      3  S   UNL     1       3.529   3.029  16.758  0.00  0.00    +0.000 S 
ATOM      4  C   UNL     1       3.291   3.460  18.392  0.00  0.00    +0.000 A 
ATOM      5  C   UNL     1       3.649   4.782  18.631  0.00  0.00    +0.000 A 
ATOM      6  C   UNL     1       3.305   5.531  19.902  0.00  0.00    +0.000 C 
ATOM      7  C   UNL     1       1.990   5.108  20.544  0.00  0.00    +0.000 C 
ATOM      8  C   UNL     1       2.117   3.840  21.390  0.00  0.00    +0.000 C 
ATOM      9  C   UNL     1       2.958   2.712  20.785  0.00  0.00    +0.000 C 
ATOM     10  C   UNL     1       2.662   2.448  19.311  0.00  0.00    +0.000 C 
ENDROOT
BRANCH   2  11
ATOM     11  N   UNL     1       4.817   4.504  15.130  0.00  0.00    +0.000 N 
ATOM     12  C   UNL     1       6.041   3.957  14.791  0.00  0.00    +0.000 C 
ATOM     13  O   UNL     1       6.831   3.431  15.576  0.00  0.00    +0.000 OA
ATOM     14  H   UNL     1       4.103   4.492  14.414  0.00  0.00    +0.000 HD
BRANCH  12  15
ATOM     15  C   UNL     1       6.276   4.000  13.287  0.00  0.00    +0.000 C 
ATOM     16  C   UNL     1       5.133   3.400  12.486  0.00  0.00    +0.000 C 
ENDBRANCH  12  15
ENDBRANCH   2  11
BRANCH   1  18
ATOM     17  N   UNL     1       6.287   6.987  17.537  0.00  0.00    +0.000 N 
ATOM     18  C   UNL     1       4.911   6.731  17.364  0.00  0.00    +0.000 C 
ATOM     19  O   UNL     1       4.118   7.659  17.183  0.00  0.00    +0.000 OA
BRANCH  17  20
ATOM     20  C   UNL     1       6.710   8.392  17.545  0.00  0.00    +0.000 C 
BRANCH  20  22
ATOM     21  C   UNL     1       8.672   9.701  18.554  0.00  0.00    +0.000 C 
ATOM     22  C   UNL     1       8.230   8.605  17.594  0.00  0.00    +0.000 C 
ENDBRANCH  20  22
ENDBRANCH  17  20
BRANCH  17  23
ATOM     23  C   UNL     1       7.339   5.975  17.401  0.00  0.00    +0.000 C 
BRANCH  23  24
ATOM     24  C   UNL     1       7.461   4.999  18.568  0.00  0.00    +0.000 C 
ATOM     25  C   UNL     1       8.012   5.724  19.794  0.00  0.00    +0.000 C 
ENDBRANCH  23  24
ENDBRANCH  17  23
ENDBRANCH   1  18
TORSDOF 7
ENDMDL
MODEL 5
REMARK VINA RESULT:      -5.9      2.495      4.764
REMARK  Name = 
REMARK  10 active torsions:
REMARK  status: ('A' for Active; 'I' for Inactive)
REMARK    1  A    between atoms: C_1  and  C_2
REMARK    2  A    between atoms: C_2  and  C_3
REMARK    3  A    between atoms: C_3  and  N_4
REMARK    4  A    between atoms: N_4  and  C_5
REMARK    5  A    between atoms: C_5  and  C_6
REMARK    6  A    between atoms: C_6  and  C_7
REMARK    7  A    between atoms: C_8  and  C_10
REMARK    8  A    between atoms: C_11  and  N_12
REMARK    9  A    between atoms: C_13  and  C_15
REMARK   10  A    between atoms: C_15  and  C_16
REMARK                            x       y       z     vdW  Elec       q    Type
REMARK                         _______ _______ _______ _____ _____    ______ ____
ROOT
ATOM      1  C   UNL     1       3.502   5.762  18.350  0.00  0.00    +0.000 A 
ATOM      2  C   UNL     1       3.275   4.798  19.322  0.00  0.00    +0.000 A 
ATOM      3  S   UNL     1       2.216   5.295  20.546  0.00  0.00    +0.000 S 
ATOM      4  C   UNL     1       2.108   6.873  19.905  0.00  0.00    +0.000 A 
ATOM      5  C   UNL     1       2.703   6.960  18.651  0.00  0.00    +0.000 A 
ATOM      6  C   UNL     1       2.536   8.142  17.720  0.00  0.00    +0.000 C 
ATOM      7  C   UNL     1       1.186   8.840  17.827  0.00  0.00    +0.000 C 
ATOM      8  C   UNL     1       1.111   9.821  18.998  0.00  0.00    +0.000 C 
ATOM      9  C   UNL     1       1.719   9.338  20.317  0.00  0.00    +0.000 C 
ATOM     10  C   UNL     1       1.336   7.905  20.681  0.00  0.00    +0.000 C 
ENDROOT
BRANCH   2  11
ATOM     11  N   UNL     1       3.697   3.500  19.512  0.00  0.00    +0.000 N 
ATOM     12  C   UNL     1       3.050   2.440  18.905  0.00  0.00    +0.000 C 
ATOM     13  O   UNL     1       2.052   2.529  18.187  0.00  0.00    +0.000 OA
ATOM     14  H   UNL     1       4.688   3.385  19.683  0.00  0.00    +0.000 HD
BRANCH  12  15
ATOM     15  C   UNL     1       3.770   1.123  19.158  0.00  0.00    +0.000 C 
ATOM     16  C   UNL     1       4.844   1.225  20.228  0.00  0.00    +0.000 C 
ENDBRANCH  12  15
ENDBRANCH   2  11
BRANCH   1  18
ATOM     17  N   UNL     1       5.324   6.304  16.722  0.00  0.00    +0.000 N 
ATOM     18  C   UNL     1       4.253   5.470  17.110  0.00  0.00    +0.000 C 
ATOM     19  O   UNL     1       3.883   4.545  16.383  0.00  0.00    +0.000 OA
BRANCH  17  20
ATOM     20  C   UNL     1       5.924   6.051  15.408  0.00  0.00    +0.000 C 
BRANCH  20  22
ATOM     21  C   UNL     1       6.331   3.963  13.973  0.00  0.00    +0.000 C 
ATOM     22  C   UNL     1       6.631   4.694  15.274  0.00  0.00    +0.000 C 
ENDBRANCH  20  22
ENDBRANCH  17  20
BRANCH  17  23
ATOM     23  C   UNL     1       6.064   7.177  17.637  0.00  0.00    +0.000 C 
BRANCH  23  24
ATOM     24  C   UNL     1       7.544   6.841  17.806  0.00  0.00    +0.000 C 
ATOM     25  C   UNL     1       7.730   5.902  18.995  0.00  0.00    +0.000 C 
ENDBRANCH  23  24
ENDBRANCH  17  23
ENDBRANCH   1  18
TORSDOF 7
ENDMDL
MODEL 6
REMARK VINA RESULT:      -5.9      3.216      5.907
REMARK  Name = 
REMARK  10 active torsions:
REMARK  status: ('A' for Active; 'I' for Inactive)
REMARK    1  A    between atoms: C_1  and  C_2
REMARK    2  A    between atoms: C_2  and  C_3
REMARK    3  A    between atoms: C_3  and  N_4
REMARK    4  A    between atoms: N_4  and  C_5
REMARK    5  A    between atoms: C_5  and  C_6
REMARK    6  A    between atoms: C_6  and  C_7
REMARK    7  A    between atoms: C_8  and  C_10
REMARK    8  A    between atoms: C_11  and  N_12
REMARK    9  A    between atoms: C_13  and  C_15
REMARK   10  A    between atoms: C_15  and  C_16
REMARK                            x       y       z     vdW  Elec       q    Type
REMARK                         _______ _______ _______ _____ _____    ______ ____
ROOT
ATOM      1  C   UNL     1       2.326   6.669  19.163  0.00  0.00    +0.000 A 
ATOM      2  C   UNL     1       2.101   6.219  20.456  0.00  0.00    +0.000 A 
ATOM      3  S   UNL     1       1.324   7.347  21.450  0.00  0.00    +0.000 S 
ATOM      4  C   UNL     1       1.364   8.546  20.235  0.00  0.00    +0.000 A 
ATOM      5  C   UNL     1       1.773   8.023  19.012  0.00  0.00    +0.000 A 
ATOM      6  C   UNL     1       1.653   8.765  17.698  0.00  0.00    +0.000 C 
ATOM      7  C   UNL     1       0.457   9.704  17.613  0.00  0.00    +0.000 C 
ATOM      8  C   UNL     1       0.707  11.054  18.289  0.00  0.00    +0.000 C 
ATOM      9  C   UNL     1       1.423  11.004  19.641  0.00  0.00    +0.000 C 
ATOM     10  C   UNL     1       0.884   9.928  20.582  0.00  0.00    +0.000 C 
ENDROOT
BRANCH   2  11
ATOM     11  N   UNL     1       2.343   5.037  21.124  0.00  0.00    +0.000 N 
ATOM     12  C   UNL     1       1.538   3.929  20.934  0.00  0.00    +0.000 C 
ATOM     13  O   UNL     1       0.544   3.885  20.207  0.00  0.00    +0.000 OA
ATOM     14  H   UNL     1       3.312   4.857  21.351  0.00  0.00    +0.000 HD
BRANCH  12  15
ATOM     15  C   UNL     1       2.074   2.712  21.675  0.00  0.00    +0.000 C 
ATOM     16  C   UNL     1       3.405   2.221  21.131  0.00  0.00    +0.000 C 
ENDBRANCH  12  15
ENDBRANCH   2  11
BRANCH   1  18
ATOM     17  N   UNL     1       4.200   5.796  17.754  0.00  0.00    +0.000 N 
ATOM     18  C   UNL     1       2.832   5.780  18.095  0.00  0.00    +0.000 C 
ATOM     19  O   UNL     1       2.034   5.089  17.457  0.00  0.00    +0.000 OA
BRANCH  17  20
ATOM     20  C   UNL     1       4.606   5.007  16.586  0.00  0.00    +0.000 C 
BRANCH  20  22
ATOM     21  C   UNL     1       6.760   5.039  15.192  0.00  0.00    +0.000 C 
ATOM     22  C   UNL     1       5.475   5.763  15.570  0.00  0.00    +0.000 C 
ENDBRANCH  20  22
ENDBRANCH  17  20
BRANCH  17  23
ATOM     23  C   UNL     1       5.266   6.277  18.637  0.00  0.00    +0.000 C 
BRANCH  23  24
ATOM     24  C   UNL     1       6.265   5.217  19.093  0.00  0.00    +0.000 C 
ATOM     25  C   UNL     1       7.684   5.774  19.013  0.00  0.00    +0.000 C 
ENDBRANCH  23  24
ENDBRANCH  17  23
ENDBRANCH   1  18
TORSDOF 7
ENDMDL
MODEL 7
REMARK VINA RESULT:      -5.8      2.406      4.863
REMARK  Name = 
REMARK  10 active torsions:
REMARK  status: ('A' for Active; 'I' for Inactive)
REMARK    1  A    between atoms: C_1  and  C_2
REMARK    2  A    between atoms: C_2  and  C_3
REMARK    3  A    between atoms: C_3  and  N_4
REMARK    4  A    between atoms: N_4  and  C_5
REMARK    5  A    between atoms: C_5  and  C_6
REMARK    6  A    between atoms: C_6  and  C_7
REMARK    7  A    between atoms: C_8  and  C_10
REMARK    8  A    between atoms: C_11  and  N_12
REMARK    9  A    between atoms: C_13  and  C_15
REMARK   10  A    between atoms: C_15  and  C_16
REMARK                            x       y       z     vdW  Elec       q    Type
REMARK                         _______ _______ _______ _____ _____    ______ ____
ROOT
ATOM      1  C   UNL     1       3.253   5.628  18.469  0.00  0.00    +0.000 A 
ATOM      2  C   UNL     1       2.927   4.661  19.409  0.00  0.00    +0.000 A 
ATOM      3  S   UNL     1       1.895   5.214  20.631  0.00  0.00    +0.000 S 
ATOM      4  C   UNL     1       1.935   6.813  20.036  0.00  0.00    +0.000 A 
ATOM      5  C   UNL     1       2.556   6.882  18.794  0.00  0.00    +0.000 A 
ATOM      6  C   UNL     1       2.509   8.101  17.896  0.00  0.00    +0.000 C 
ATOM      7  C   UNL     1       1.224   8.911  18.003  0.00  0.00    +0.000 C 
ATOM      8  C   UNL     1       1.214   9.862  19.202  0.00  0.00    +0.000 C 
ATOM      9  C   UNL     1       1.755   9.290  20.515  0.00  0.00    +0.000 C 
ATOM     10  C   UNL     1       1.243   7.886  20.831  0.00  0.00    +0.000 C 
ENDROOT
BRANCH   2  11
ATOM     11  N   UNL     1       3.231   3.326  19.567  0.00  0.00    +0.000 N 
ATOM     12  C   UNL     1       4.541   2.897  19.677  0.00  0.00    +0.000 C 
ATOM     13  O   UNL     1       5.536   3.621  19.618  0.00  0.00    +0.000 OA
ATOM     14  H   UNL     1       2.534   2.776  20.051  0.00  0.00    +0.000 HD
BRANCH  12  15
ATOM     15  C   UNL     1       4.620   1.406  19.971  0.00  0.00    +0.000 C 
ATOM     16  C   UNL     1       5.375   1.089  21.251  0.00  0.00    +0.000 C 
ENDBRANCH  12  15
ENDBRANCH   2  11
BRANCH   1  18
ATOM     17  N   UNL     1       5.156   6.039  16.897  0.00  0.00    +0.000 N 
ATOM     18  C   UNL     1       3.997   5.307  17.232  0.00  0.00    +0.000 C 
ATOM     19  O   UNL     1       3.550   4.453  16.463  0.00  0.00    +0.000 OA
BRANCH  17  20
ATOM     20  C   UNL     1       5.755   5.775  15.584  0.00  0.00    +0.000 C 
BRANCH  20  22
ATOM     21  C   UNL     1       6.238   3.785  14.037  0.00  0.00    +0.000 C 
ATOM     22  C   UNL     1       6.380   4.380  15.431  0.00  0.00    +0.000 C 
ENDBRANCH  20  22
ENDBRANCH  17  20
BRANCH  17  23
ATOM     23  C   UNL     1       5.963   6.795  17.858  0.00  0.00    +0.000 C 
BRANCH  23  24
ATOM     24  C   UNL     1       7.420   7.013  17.459  0.00  0.00    +0.000 C 
ATOM     25  C   UNL     1       7.803   8.475  17.674  0.00  0.00    +0.000 C 
ENDBRANCH  23  24
ENDBRANCH  17  23
ENDBRANCH   1  18
TORSDOF 7
ENDMDL
MODEL 8
REMARK VINA RESULT:      -5.8      2.487      4.594
REMARK  Name = 
REMARK  10 active torsions:
REMARK  status: ('A' for Active; 'I' for Inactive)
REMARK    1  A    between atoms: C_1  and  C_2
REMARK    2  A    between atoms: C_2  and  C_3
REMARK    3  A    between atoms: C_3  and  N_4
REMARK    4  A    between atoms: N_4  and  C_5
REMARK    5  A    between atoms: C_5  and  C_6
REMARK    6  A    between atoms: C_6  and  C_7
REMARK    7  A    between atoms: C_8  and  C_10
REMARK    8  A    between atoms: C_11  and  N_12
REMARK    9  A    between atoms: C_13  and  C_15
REMARK   10  A    between atoms: C_15  and  C_16
REMARK                            x       y       z     vdW  Elec       q    Type
REMARK                         _______ _______ _______ _____ _____    ______ ____
ROOT
ATOM      1  C   UNL     1       3.632   6.275  18.141  0.00  0.00    +0.000 A 
ATOM      2  C   UNL     1       4.995   6.159  17.905  0.00  0.00    +0.000 A 
ATOM      3  S   UNL     1       5.598   4.593  18.129  0.00  0.00    +0.000 S 
ATOM      4  C   UNL     1       4.088   4.017  18.680  0.00  0.00    +0.000 A 
ATOM      5  C   UNL     1       3.081   4.957  18.491  0.00  0.00    +0.000 A 
ATOM      6  C   UNL     1       1.604   4.648  18.627  0.00  0.00    +0.000 C 
ATOM      7  C   UNL     1       1.221   3.227  18.234  0.00  0.00    +0.000 C 
ATOM      8  C   UNL     1       1.481   2.208  19.345  0.00  0.00    +0.000 C 
ATOM      9  C   UNL     1       2.807   2.360  20.097  0.00  0.00    +0.000 C 
ATOM     10  C   UNL     1       4.006   2.602  19.183  0.00  0.00    +0.000 C 
ENDROOT
BRANCH   2  11
ATOM     11  N   UNL     1       5.983   7.029  17.498  0.00  0.00    +0.000 N 
ATOM     12  C   UNL     1       7.229   7.029  18.095  0.00  0.00    +0.000 C 
ATOM     13  O   UNL     1       7.570   6.308  19.034  0.00  0.00    +0.000 OA
ATOM     14  H   UNL     1       5.949   7.299  16.523  0.00  0.00    +0.000 HD
BRANCH  12  15
ATOM     15  C   UNL     1       8.187   7.982  17.395  0.00  0.00    +0.000 C 
ATOM     16  C   UNL     1       8.376   9.293  18.139  0.00  0.00    +0.000 C 
ENDBRANCH  12  15
ENDBRANCH   2  11
BRANCH   1  18
ATOM     17  N   UNL     1       2.023   8.073  18.804  0.00  0.00    +0.000 N 
ATOM     18  C   UNL     1       2.882   7.512  17.836  0.00  0.00    +0.000 C 
ATOM     19  O   UNL     1       2.953   7.997  16.704  0.00  0.00    +0.000 OA
BRANCH  17  20
ATOM     20  C   UNL     1       1.193   9.208  18.383  0.00  0.00    +0.000 C 
BRANCH  20  22
ATOM     21  C   UNL     1       1.091  11.568  19.384  0.00  0.00    +0.000 C 
ATOM     22  C   UNL     1       1.865  10.581  18.521  0.00  0.00    +0.000 C 
ENDBRANCH  20  22
ENDBRANCH  17  20
BRANCH  17  23
ATOM     23  C   UNL     1       2.121   7.816  20.243  0.00  0.00    +0.000 C 
BRANCH  23  24
ATOM     24  C   UNL     1       0.846   8.076  21.042  0.00  0.00    +0.000 C 
ATOM     25  C   UNL     1       1.133   9.065  22.169  0.00  0.00    +0.000 C 
ENDBRANCH  23  24
ENDBRANCH  17  23
ENDBRANCH   1  18
TORSDOF 7
ENDMDL
MODEL 9
REMARK VINA RESULT:      -5.7      7.657     10.012
REMARK  Name = 
REMARK  10 active torsions:
REMARK  status: ('A' for Active; 'I' for Inactive)
REMARK    1  A    between atoms: C_1  and  C_2
REMARK    2  A    between atoms: C_2  and  C_3
REMARK    3  A    between atoms: C_3  and  N_4
REMARK    4  A    between atoms: N_4  and  C_5
REMARK    5  A    between atoms: C_5  and  C_6
REMARK    6  A    between atoms: C_6  and  C_7
REMARK    7  A    between atoms: C_8  and  C_10
REMARK    8  A    between atoms: C_11  and  N_12
REMARK    9  A    between atoms: C_13  and  C_15
REMARK   10  A    between atoms: C_15  and  C_16
REMARK                            x       y       z     vdW  Elec       q    Type
REMARK                         _______ _______ _______ _____ _____    ______ ____
ROOT
ATOM      1  C   UNL     1      -1.263  11.566  19.361  0.00  0.00    +0.000 A 
ATOM      2  C   UNL     1      -0.423  10.516  19.704  0.00  0.00    +0.000 A 
ATOM      3  S   UNL     1      -0.271  10.275  21.372  0.00  0.00    +0.000 S 
ATOM      4  C   UNL     1      -1.221  11.649  21.726  0.00  0.00    +0.000 A 
ATOM      5  C   UNL     1      -1.826  12.161  20.583  0.00  0.00    +0.000 A 
ATOM      6  C   UNL     1      -2.929  13.199  20.608  0.00  0.00    +0.000 C 
ATOM      7  C   UNL     1      -3.846  13.111  21.821  0.00  0.00    +0.000 C 
ATOM      8  C   UNL     1      -3.260  13.785  23.064  0.00  0.00    +0.000 C 
ATOM      9  C   UNL     1      -1.774  13.525  23.329  0.00  0.00    +0.000 C 
ATOM     10  C   UNL     1      -1.368  12.062  23.164  0.00  0.00    +0.000 C 
ENDROOT
BRANCH   2  11
ATOM     11  N   UNL     1       0.307   9.590  18.989  0.00  0.00    +0.000 N 
ATOM     12  C   UNL     1       1.463   9.949  18.323  0.00  0.00    +0.000 C 
ATOM     13  O   UNL     1       1.932  11.087  18.268  0.00  0.00    +0.000 OA
ATOM     14  H   UNL     1       0.261   8.640  19.335  0.00  0.00    +0.000 HD
BRANCH  12  15
ATOM     15  C   UNL     1       2.160   8.739  17.716  0.00  0.00    +0.000 C 
ATOM     16  C   UNL     1       2.432   7.637  18.726  0.00  0.00    +0.000 C 
ENDBRANCH  12  15
ENDBRANCH   2  11
BRANCH   1  18
ATOM     17  N   UNL     1      -2.755  11.134  17.400  0.00  0.00    +0.000 N 
ATOM     18  C   UNL     1      -1.666  11.830  17.964  0.00  0.00    +0.000 C 
ATOM     19  O   UNL     1      -0.992  12.602  17.277  0.00  0.00    +0.000 OA
BRANCH  17  20
ATOM     20  C   UNL     1      -3.004  11.329  15.968  0.00  0.00    +0.000 C 
BRANCH  20  22
ATOM     21  C   UNL     1      -3.614  10.067  13.819  0.00  0.00    +0.000 C 
ATOM     22  C   UNL     1      -2.797  10.077  15.103  0.00  0.00    +0.000 C 
ENDBRANCH  20  22
ENDBRANCH  17  20
BRANCH  17  23
ATOM     23  C   UNL     1      -3.817  10.490  18.180  0.00  0.00    +0.000 C 
BRANCH  23  24
ATOM     24  C   UNL     1      -5.240  10.895  17.803  0.00  0.00    +0.000 C 
ATOM     25  C   UNL     1      -5.614  12.195  18.510  0.00  0.00    +0.000 C 
ENDBRANCH  23  24
ENDBRANCH  17  23
ENDBRANCH   1  18
TORSDOF 7
ENDMDL
