MODEL 1
REMARK VINA RESULT:      -7.8      0.000      0.000
REMARK  Name = 
REMARK  7 active torsions:
REMARK  status: ('A' for Active; 'I' for Inactive)
REMARK    1  A    between atoms: C_1  and  O_2
REMARK    2  A    between atoms: O_2  and  C_3
REMARK    3  A    between atoms: C_5  and  O_6
REMARK    4  A    between atoms: O_6  and  C_7
REMARK    5  A    between atoms: C_8  and  C_9
REMARK    6  A    between atoms: C_14  and  N_15
REMARK    7  A    between atoms: C_18  and  N_19
REMARK                            x       y       z     vdW  Elec       q    Type
REMARK                         _______ _______ _______ _____ _____    ______ ____
ROOT
ATOM      1  C   UNL     1       2.088   7.366  19.690  0.00  0.00    +0.000 A 
ATOM      2  C   UNL     1       2.043   8.358  18.732  0.00  0.00    +0.000 A 
ATOM      3  N   UNL     1       1.236   9.341  19.245  0.00  0.00    +0.000 N 
ATOM      4  C   UNL     1       0.807  10.528  18.668  0.00  0.00    +0.000 A 
ATOM      5  C   UNL     1      -0.013  11.332  19.367  0.00  0.00    +0.000 A 
ATOM      6  C   UNL     1      -0.439  10.963  20.729  0.00  0.00    +0.000 A 
ATOM      7  C   UNL     1      -0.002   9.788  21.245  0.00  0.00    +0.000 A 
ATOM      8  C   UNL     1       0.856   8.930  20.508  0.00  0.00    +0.000 A 
ATOM      9  N   UNL     1       1.361   7.752  20.800  0.00  0.00    +0.000 NA
ENDROOT
BRANCH   1  13
ATOM     10  C   UNL     1       3.821   3.441  19.629  0.00  0.00    +0.000 A 
ATOM     11  C   UNL     1       4.315   4.422  18.767  0.00  0.00    +0.000 A 
ATOM     12  C   UNL     1       3.799   5.728  18.756  0.00  0.00    +0.000 A 
ATOM     13  C   UNL     1       2.740   6.059  19.627  0.00  0.00    +0.000 A 
ATOM     14  C   UNL     1       2.225   5.051  20.468  0.00  0.00    +0.000 A 
ATOM     15  C   UNL     1       2.752   3.756  20.467  0.00  0.00    +0.000 A 
ATOM     16 CL   UNL     1       2.060   2.586  21.533  0.00  0.00    +0.000 Cl
BRANCH  10  18
ATOM     17  C   UNL     1       3.838   1.291  18.650  0.00  0.00    +0.000 C 
ATOM     18  O   UNL     1       4.323   2.164  19.668  0.00  0.00    +0.000 OA
ENDBRANCH  10  18
BRANCH  12  19
ATOM     19  O   UNL     1       4.323   6.705  17.949  0.00  0.00    +0.000 OA
ATOM     20  C   UNL     1       4.754   6.323  16.646  0.00  0.00    +0.000 C 
ENDBRANCH  12  19
ENDBRANCH   1  13
BRANCH   6  21
ATOM     21  N   UNL     1      -1.314  11.824  21.395  0.00  0.00    +0.000 N 
ATOM     22  C   UNL     1      -2.136  12.825  20.698  0.00  0.00    +0.000 C 
ATOM     23  C   UNL     1      -3.569  12.772  21.224  0.00  0.00    +0.000 C 
ATOM     24  C   UNL     1      -3.594  12.936  22.748  0.00  0.00    +0.000 C 
ATOM     25  C   UNL     1      -2.671  11.917  23.419  0.00  0.00    +0.000 C 
ATOM     26  C   UNL     1      -1.260  12.034  22.851  0.00  0.00    +0.000 C 
BRANCH  24  27
ATOM     27  N   UNL     1      -4.956  12.791  23.270  0.00  0.00    +0.000 NA
ATOM     28  H   UNL     1      -5.115  13.477  24.008  0.00  0.00    +0.000 HD
ATOM     29  H   UNL     1      -5.064  11.877  23.705  0.00  0.00    +0.000 HD
ENDBRANCH  24  27
ENDBRANCH   6  21
TORSDOF 5
ENDMDL
MODEL 2
REMARK VINA RESULT:      -7.8      4.006      9.530
REMARK  Name = 
REMARK  7 active torsions:
REMARK  status: ('A' for Active; 'I' for Inactive)
REMARK    1  A    between atoms: C_1  and  O_2
REMARK    2  A    between atoms: O_2  and  C_3
REMARK    3  A    between atoms: C_5  and  O_6
REMARK    4  A    between atoms: O_6  and  C_7
REMARK    5  A    between atoms: C_8  and  C_9
REMARK    6  A    between atoms: C_14  and  N_15
REMARK    7  A    between atoms: C_18  and  N_19
REMARK                            x       y       z     vdW  Elec       q    Type
REMARK                         _______ _______ _______ _____ _____    ______ ____
ROOT
ATOM      1  C   UNL     1       1.027   8.905  19.761  0.00  0.00    +0.000 A 
ATOM      2  C   UNL     1       1.236   7.788  20.545  0.00  0.00    +0.000 A 
ATOM      3  N   UNL     1       2.187   7.044  19.895  0.00  0.00    +0.000 N 
ATOM      4  C   UNL     1       2.714   5.801  20.217  0.00  0.00    +0.000 A 
ATOM      5  C   UNL     1       3.631   5.253  19.401  0.00  0.00    +0.000 A 
ATOM      6  C   UNL     1       4.077   5.966  18.191  0.00  0.00    +0.000 A 
ATOM      7  C   UNL     1       3.525   7.172  17.914  0.00  0.00    +0.000 A 
ATOM      8  C   UNL     1       2.549   7.753  18.766  0.00  0.00    +0.000 A 
ATOM      9  N   UNL     1       1.873   8.875  18.668  0.00  0.00    +0.000 NA
ENDROOT
BRANCH   1  13
ATOM     10  C   UNL     1      -1.901  12.024  20.095  0.00  0.00    +0.000 A 
ATOM     11  C   UNL     1      -1.159  11.656  21.220  0.00  0.00    +0.000 A 
ATOM     12  C   UNL     1      -0.176  10.656  21.165  0.00  0.00    +0.000 A 
ATOM     13  C   UNL     1       0.062   9.987  19.946  0.00  0.00    +0.000 A 
ATOM     14  C   UNL     1      -0.717  10.342  18.825  0.00  0.00    +0.000 A 
ATOM     15  C   UNL     1      -1.691  11.342  18.897  0.00  0.00    +0.000 A 
ATOM     16 CL   UNL     1      -2.596  11.711  17.473  0.00  0.00    +0.000 Cl
BRANCH  10  18
ATOM     17  C   UNL     1      -4.070  12.660  20.780  0.00  0.00    +0.000 C 
ATOM     18  O   UNL     1      -2.854  13.010  20.123  0.00  0.00    +0.000 OA
ENDBRANCH  10  18
BRANCH  12  19
ATOM     19  O   UNL     1       0.590  10.335  22.257  0.00  0.00    +0.000 OA
ATOM     20  C   UNL     1      -0.048   9.651  23.331  0.00  0.00    +0.000 C 
ENDBRANCH  12  19
ENDBRANCH   1  13
BRANCH   6  21
ATOM     21  N   UNL     1       5.011   5.333  17.367  0.00  0.00    +0.000 N 
ATOM     22  C   UNL     1       4.628   4.429  16.272  0.00  0.00    +0.000 C 
ATOM     23  C   UNL     1       5.424   4.776  15.015  0.00  0.00    +0.000 C 
ATOM     24  C   UNL     1       6.929   4.759  15.304  0.00  0.00    +0.000 C 
ATOM     25  C   UNL     1       7.264   5.660  16.494  0.00  0.00    +0.000 C 
ATOM     26  C   UNL     1       6.440   5.251  17.711  0.00  0.00    +0.000 C 
BRANCH  24  27
ATOM     27  N   UNL     1       7.695   5.183  14.129  0.00  0.00    +0.000 NA
ATOM     28  H   UNL     1       8.584   5.585  14.427  0.00  0.00    +0.000 HD
ATOM     29  H   UNL     1       7.197   5.926  13.642  0.00  0.00    +0.000 HD
ENDBRANCH  24  27
ENDBRANCH   6  21
TORSDOF 5
ENDMDL
MODEL 3
REMARK VINA RESULT:      -7.7      2.377      3.233
REMARK  Name = 
REMARK  7 active torsions:
REMARK  status: ('A' for Active; 'I' for Inactive)
REMARK    1  A    between atoms: C_1  and  O_2
REMARK    2  A    between atoms: O_2  and  C_3
REMARK    3  A    between atoms: C_5  and  O_6
REMARK    4  A    between atoms: O_6  and  C_7
REMARK    5  A    between atoms: C_8  and  C_9
REMARK    6  A    between atoms: C_14  and  N_15
REMARK    7  A    between atoms: C_18  and  N_19
REMARK                            x       y       z     vdW  Elec       q    Type
REMARK                         _______ _______ _______ _____ _____    ______ ____
ROOT
ATOM      1  C   UNL     1       2.673   6.995  18.790  0.00  0.00    +0.000 A 
ATOM      2  C   UNL     1       2.317   6.899  20.121  0.00  0.00    +0.000 A 
ATOM      3  N   UNL     1       1.578   8.021  20.395  0.00  0.00    +0.000 N 
ATOM      4  C   UNL     1       1.032   8.452  21.596  0.00  0.00    +0.000 A 
ATOM      5  C   UNL     1       0.359   9.615  21.624  0.00  0.00    +0.000 A 
ATOM      6  C   UNL     1       0.197  10.415  20.397  0.00  0.00    +0.000 A 
ATOM      7  C   UNL     1       0.759   9.958  19.251  0.00  0.00    +0.000 A 
ATOM      8  C   UNL     1       1.479   8.734  19.217  0.00  0.00    +0.000 A 
ATOM      9  N   UNL     1       2.120   8.135  18.239  0.00  0.00    +0.000 NA
ENDROOT
BRANCH   1  13
ATOM     10  C   UNL     1       5.365   4.519  16.548  0.00  0.00    +0.000 A 
ATOM     11  C   UNL     1       4.061   4.077  16.782  0.00  0.00    +0.000 A 
ATOM     12  C   UNL     1       3.133   4.852  17.494  0.00  0.00    +0.000 A 
ATOM     13  C   UNL     1       3.527   6.107  18.003  0.00  0.00    +0.000 A 
ATOM     14  C   UNL     1       4.856   6.528  17.790  0.00  0.00    +0.000 A 
ATOM     15  C   UNL     1       5.768   5.744  17.078  0.00  0.00    +0.000 A 
ATOM     16 CL   UNL     1       7.374   6.341  16.865  0.00  0.00    +0.000 Cl
BRANCH  10  18
ATOM     17  C   UNL     1       6.178   3.885  14.422  0.00  0.00    +0.000 C 
ATOM     18  O   UNL     1       6.283   3.784  15.840  0.00  0.00    +0.000 OA
ENDBRANCH  10  18
BRANCH  12  19
ATOM     19  O   UNL     1       1.837   4.441  17.676  0.00  0.00    +0.000 OA
ATOM     20  C   UNL     1       1.626   3.204  18.350  0.00  0.00    +0.000 C 
ENDBRANCH  12  19
ENDBRANCH   1  13
BRANCH   6  21
ATOM     21  N   UNL     1      -0.486  11.629  20.494  0.00  0.00    +0.000 N 
ATOM     22  C   UNL     1      -1.323  12.165  19.409  0.00  0.00    +0.000 C 
ATOM     23  C   UNL     1      -2.653  12.655  19.980  0.00  0.00    +0.000 C 
ATOM     24  C   UNL     1      -2.420  13.666  21.108  0.00  0.00    +0.000 C 
ATOM     25  C   UNL     1      -1.488  13.085  22.173  0.00  0.00    +0.000 C 
ATOM     26  C   UNL     1      -0.182  12.625  21.535  0.00  0.00    +0.000 C 
BRANCH  24  27
ATOM     27  N   UNL     1      -3.688  14.069  21.723  0.00  0.00    +0.000 NA
ATOM     28  H   UNL     1      -4.198  13.240  22.028  0.00  0.00    +0.000 HD
ATOM     29  H   UNL     1      -4.278  14.526  21.030  0.00  0.00    +0.000 HD
ENDBRANCH  24  27
ENDBRANCH   6  21
TORSDOF 5
ENDMDL
MODEL 4
REMARK VINA RESULT:      -7.7      3.957      9.434
REMARK  Name = 
REMARK  7 active torsions:
REMARK  status: ('A' for Active; 'I' for Inactive)
REMARK    1  A    between atoms: C_1  and  O_2
REMARK    2  A    between atoms: O_2  and  C_3
REMARK    3  A    between atoms: C_5  and  O_6
REMARK    4  A    between atoms: O_6  and  C_7
REMARK    5  A    between atoms: C_8  and  C_9
REMARK    6  A    between atoms: C_14  and  N_15
REMARK    7  A    between atoms: C_18  and  N_19
REMARK                            x       y       z     vdW  Elec       q    Type
REMARK                         _______ _______ _______ _____ _____    ______ ____
ROOT
ATOM      1  C   UNL     1       0.873   9.089  19.699  0.00  0.00    +0.000 A 
ATOM      2  C   UNL     1       1.086   8.006  20.527  0.00  0.00    +0.000 A 
ATOM      3  N   UNL     1       2.058   7.253  19.921  0.00  0.00    +0.000 N 
ATOM      4  C   UNL     1       2.599   6.031  20.297  0.00  0.00    +0.000 A 
ATOM      5  C   UNL     1       3.538   5.468  19.517  0.00  0.00    +0.000 A 
ATOM      6  C   UNL     1       3.992   6.142  18.288  0.00  0.00    +0.000 A 
ATOM      7  C   UNL     1       3.426   7.328  17.957  0.00  0.00    +0.000 A 
ATOM      8  C   UNL     1       2.427   7.925  18.772  0.00  0.00    +0.000 A 
ATOM      9  N   UNL     1       1.736   9.032  18.621  0.00  0.00    +0.000 NA
ENDROOT
BRANCH   1  13
ATOM     10  C   UNL     1      -1.907  12.307  20.276  0.00  0.00    +0.000 A 
ATOM     11  C   UNL     1      -1.859  11.655  19.042  0.00  0.00    +0.000 A 
ATOM     12  C   UNL     1      -0.983  10.585  18.802  0.00  0.00    +0.000 A 
ATOM     13  C   UNL     1      -0.112  10.162  19.828  0.00  0.00    +0.000 A 
ATOM     14  C   UNL     1      -0.144  10.850  21.058  0.00  0.00    +0.000 A 
ATOM     15  C   UNL     1      -1.023  11.914  21.280  0.00  0.00    +0.000 A 
ATOM     16 CL   UNL     1      -0.994  12.696  22.820  0.00  0.00    +0.000 Cl
BRANCH  10  18
ATOM     17  C   UNL     1      -4.113  12.961  20.806  0.00  0.00    +0.000 C 
ATOM     18  O   UNL     1      -2.767  13.344  20.536  0.00  0.00    +0.000 OA
ENDBRANCH  10  18
BRANCH  12  19
ATOM     19  O   UNL     1      -0.977   9.910  17.608  0.00  0.00    +0.000 OA
ATOM     20  C   UNL     1      -2.180   9.909  16.845  0.00  0.00    +0.000 C 
ENDBRANCH  12  19
ENDBRANCH   1  13
BRANCH   6  21
ATOM     21  N   UNL     1       4.948   5.494  17.503  0.00  0.00    +0.000 N 
ATOM     22  C   UNL     1       4.598   4.524  16.454  0.00  0.00    +0.000 C 
ATOM     23  C   UNL     1       5.393   4.829  15.185  0.00  0.00    +0.000 C 
ATOM     24  C   UNL     1       6.896   4.868  15.483  0.00  0.00    +0.000 C 
ATOM     25  C   UNL     1       7.197   5.838  16.627  0.00  0.00    +0.000 C 
ATOM     26  C   UNL     1       6.376   5.469  17.859  0.00  0.00    +0.000 C 
BRANCH  24  27
ATOM     27  N   UNL     1       7.658   5.253  14.292  0.00  0.00    +0.000 NA
ATOM     28  H   UNL     1       7.016   5.455  13.526  0.00  0.00    +0.000 HD
ATOM     29  H   UNL     1       8.232   4.471  13.982  0.00  0.00    +0.000 HD
ENDBRANCH  24  27
ENDBRANCH   6  21
TORSDOF 5
ENDMDL
MODEL 5
REMARK VINA RESULT:      -7.7      2.725      3.731
REMARK  Name = 
REMARK  7 active torsions:
REMARK  status: ('A' for Active; 'I' for Inactive)
REMARK    1  A    between atoms: C_1  and  O_2
REMARK    2  A    between atoms: O_2  and  C_3
REMARK    3  A    between atoms: C_5  and  O_6
REMARK    4  A    between atoms: O_6  and  C_7
REMARK    5  A    between atoms: C_8  and  C_9
REMARK    6  A    between atoms: C_14  and  N_15
REMARK    7  A    between atoms: C_18  and  N_19
REMARK                            x       y       z     vdW  Elec       q    Type
REMARK                         _______ _______ _______ _____ _____    ______ ____
ROOT
ATOM      1  C   UNL     1       2.641   7.048  18.727  0.00  0.00    +0.000 A 
ATOM      2  C   UNL     1       2.221   6.963  20.039  0.00  0.00    +0.000 A 
ATOM      3  N   UNL     1       1.562   8.137  20.301  0.00  0.00    +0.000 N 
ATOM      4  C   UNL     1       0.998   8.594  21.484  0.00  0.00    +0.000 A 
ATOM      5  C   UNL     1       0.419   9.808  21.502  0.00  0.00    +0.000 A 
ATOM      6  C   UNL     1       0.375  10.633  20.282  0.00  0.00    +0.000 A 
ATOM      7  C   UNL     1       0.949  10.147  19.154  0.00  0.00    +0.000 A 
ATOM      8  C   UNL     1       1.570   8.871  19.130  0.00  0.00    +0.000 A 
ATOM      9  N   UNL     1       2.204   8.235  18.171  0.00  0.00    +0.000 NA
ENDROOT
BRANCH   1  13
ATOM     10  C   UNL     1       5.224   4.407  16.544  0.00  0.00    +0.000 A 
ATOM     11  C   UNL     1       3.911   4.013  16.815  0.00  0.00    +0.000 A 
ATOM     12  C   UNL     1       3.017   4.843  17.510  0.00  0.00    +0.000 A 
ATOM     13  C   UNL     1       3.456   6.105  17.963  0.00  0.00    +0.000 A 
ATOM     14  C   UNL     1       4.793   6.478  17.713  0.00  0.00    +0.000 A 
ATOM     15  C   UNL     1       5.670   5.639  17.019  0.00  0.00    +0.000 A 
ATOM     16 CL   UNL     1       7.289   6.180  16.758  0.00  0.00    +0.000 Cl
BRANCH  10  18
ATOM     17  C   UNL     1       6.155   3.849  14.446  0.00  0.00    +0.000 C 
ATOM     18  O   UNL     1       6.108   3.618  15.852  0.00  0.00    +0.000 OA
ENDBRANCH  10  18
BRANCH  12  19
ATOM     19  O   UNL     1       1.713   4.478  17.727  0.00  0.00    +0.000 OA
ATOM     20  C   UNL     1       1.475   3.333  18.540  0.00  0.00    +0.000 C 
ENDBRANCH  12  19
ENDBRANCH   1  13
BRANCH   6  21
ATOM     21  N   UNL     1      -0.214  11.896  20.369  0.00  0.00    +0.000 N 
ATOM     22  C   UNL     1      -0.491  12.563  21.651  0.00  0.00    +0.000 C 
ATOM     23  C   UNL     1      -0.027  14.017  21.586  0.00  0.00    +0.000 C 
ATOM     24  C   UNL     1      -0.663  14.736  20.391  0.00  0.00    +0.000 C 
ATOM     25  C   UNL     1      -0.405  13.966  19.095  0.00  0.00    +0.000 C 
ATOM     26  C   UNL     1      -0.899  12.529  19.230  0.00  0.00    +0.000 C 
BRANCH  24  27
ATOM     27  N   UNL     1      -0.150  16.103  20.267  0.00  0.00    +0.000 NA
ATOM     28  H   UNL     1      -0.850  16.692  19.815  0.00  0.00    +0.000 HD
ATOM     29  H   UNL     1       0.665  16.113  19.656  0.00  0.00    +0.000 HD
ENDBRANCH  24  27
ENDBRANCH   6  21
TORSDOF 5
ENDMDL
MODEL 6
REMARK VINA RESULT:      -7.6      2.610      3.577
REMARK  Name = 
REMARK  7 active torsions:
REMARK  status: ('A' for Active; 'I' for Inactive)
REMARK    1  A    between atoms: C_1  and  O_2
REMARK    2  A    between atoms: O_2  and  C_3
REMARK    3  A    between atoms: C_5  and  O_6
REMARK    4  A    between atoms: O_6  and  C_7
REMARK    5  A    between atoms: C_8  and  C_9
REMARK    6  A    between atoms: C_14  and  N_15
REMARK    7  A    between atoms: C_18  and  N_19
REMARK                            x       y       z     vdW  Elec       q    Type
REMARK                         _______ _______ _______ _____ _____    ______ ____
ROOT
ATOM      1  C   UNL     1       2.661   6.826  18.891  0.00  0.00    +0.000 A 
ATOM      2  C   UNL     1       2.126   6.567  20.137  0.00  0.00    +0.000 A 
ATOM      3  N   UNL     1       1.525   7.733  20.538  0.00  0.00    +0.000 N 
ATOM      4  C   UNL     1       0.894   8.040  21.736  0.00  0.00    +0.000 A 
ATOM      5  C   UNL     1       0.395   9.277  21.909  0.00  0.00    +0.000 A 
ATOM      6  C   UNL     1       0.509  10.285  20.841  0.00  0.00    +0.000 A 
ATOM      7  C   UNL     1       1.144   9.941  19.694  0.00  0.00    +0.000 A 
ATOM      8  C   UNL     1       1.680   8.639  19.507  0.00  0.00    +0.000 A 
ATOM      9  N   UNL     1       2.351   8.116  18.506  0.00  0.00    +0.000 NA
ENDROOT
BRANCH   1  13
ATOM     10  C   UNL     1       5.240   4.392  16.475  0.00  0.00    +0.000 A 
ATOM     11  C   UNL     1       3.934   3.966  16.728  0.00  0.00    +0.000 A 
ATOM     12  C   UNL     1       3.041   4.729  17.496  0.00  0.00    +0.000 A 
ATOM     13  C   UNL     1       3.475   5.955  18.045  0.00  0.00    +0.000 A 
ATOM     14  C   UNL     1       4.806   6.358  17.812  0.00  0.00    +0.000 A 
ATOM     15  C   UNL     1       5.682   5.586  17.044  0.00  0.00    +0.000 A 
ATOM     16 CL   UNL     1       7.294   6.160  16.810  0.00  0.00    +0.000 Cl
BRANCH  10  18
ATOM     17  C   UNL     1       6.074   3.934  14.313  0.00  0.00    +0.000 C 
ATOM     18  O   UNL     1       6.123   3.670  15.713  0.00  0.00    +0.000 OA
ENDBRANCH  10  18
BRANCH  12  19
ATOM     19  O   UNL     1       1.743   4.336  17.697  0.00  0.00    +0.000 OA
ATOM     20  C   UNL     1       1.522   3.153  18.459  0.00  0.00    +0.000 C 
ENDBRANCH  12  19
ENDBRANCH   1  13
BRANCH   6  21
ATOM     21  N   UNL     1      -0.002  11.561  21.091  0.00  0.00    +0.000 N 
ATOM     22  C   UNL     1      -1.275  11.790  21.791  0.00  0.00    +0.000 C 
ATOM     23  C   UNL     1      -1.093  12.878  22.848  0.00  0.00    +0.000 C 
ATOM     24  C   UNL     1      -0.520  14.154  22.220  0.00  0.00    +0.000 C 
ATOM     25  C   UNL     1       0.764  13.848  21.446  0.00  0.00    +0.000 C 
ATOM     26  C   UNL     1       0.505  12.762  20.407  0.00  0.00    +0.000 C 
BRANCH  24  27
ATOM     27  N   UNL     1      -0.254  15.169  23.243  0.00  0.00    +0.000 NA
ATOM     28  H   UNL     1      -0.119  14.716  24.147  0.00  0.00    +0.000 HD
ATOM     29  H   UNL     1      -1.065  15.775  23.348  0.00  0.00    +0.000 HD
ENDBRANCH  24  27
ENDBRANCH   6  21
TORSDOF 5
ENDMDL
MODEL 7
REMARK VINA RESULT:      -7.5      3.966      9.195
REMARK  Name = 
REMARK  7 active torsions:
REMARK  status: ('A' for Active; 'I' for Inactive)
REMARK    1  A    between atoms: C_1  and  O_2
REMARK    2  A    between atoms: O_2  and  C_3
REMARK    3  A    between atoms: C_5  and  O_6
REMARK    4  A    between atoms: O_6  and  C_7
REMARK    5  A    between atoms: C_8  and  C_9
REMARK    6  A    between atoms: C_14  and  N_15
REMARK    7  A    between atoms: C_18  and  N_19
REMARK                            x       y       z     vdW  Elec       q    Type
REMARK                         _______ _______ _______ _____ _____    ______ ____
ROOT
ATOM      1  C   UNL     1       0.559  10.420  20.651  0.00  0.00    +0.000 A 
ATOM      2  C   UNL     1       0.923  10.276  19.327  0.00  0.00    +0.000 A 
ATOM      3  N   UNL     1       1.473   9.025  19.222  0.00  0.00    +0.000 N 
ATOM      4  C   UNL     1       2.057   8.401  18.128  0.00  0.00    +0.000 A 
ATOM      5  C   UNL     1       2.557   7.162  18.276  0.00  0.00    +0.000 A 
ATOM      6  C   UNL     1       2.477   6.475  19.577  0.00  0.00    +0.000 A 
ATOM      7  C   UNL     1       1.909   7.129  20.618  0.00  0.00    +0.000 A 
ATOM      8  C   UNL     1       1.386   8.442  20.471  0.00  0.00    +0.000 A 
ATOM      9  N   UNL     1       0.834   9.256  21.342  0.00  0.00    +0.000 NA
ENDROOT
BRANCH   1  13
ATOM     10  C   UNL     1      -1.228  13.706  22.754  0.00  0.00    +0.000 A 
ATOM     11  C   UNL     1      -0.050  13.913  22.033  0.00  0.00    +0.000 A 
ATOM     12  C   UNL     1       0.569  12.879  21.312  0.00  0.00    +0.000 A 
ATOM     13  C   UNL     1      -0.002  11.589  21.326  0.00  0.00    +0.000 A 
ATOM     14  C   UNL     1      -1.173  11.384  22.085  0.00  0.00    +0.000 A 
ATOM     15  C   UNL     1      -1.776  12.425  22.796  0.00  0.00    +0.000 A 
ATOM     16 CL   UNL     1      -3.210  12.082  23.697  0.00  0.00    +0.000 Cl
BRANCH  10  18
ATOM     17  C   UNL     1      -1.229  15.082  24.673  0.00  0.00    +0.000 C 
ATOM     18  O   UNL     1      -1.858  14.707  23.451  0.00  0.00    +0.000 OA
ENDBRANCH  10  18
BRANCH  12  19
ATOM     19  O   UNL     1       1.695  13.096  20.560  0.00  0.00    +0.000 OA
ATOM     20  C   UNL     1       1.589  13.990  19.456  0.00  0.00    +0.000 C 
ENDBRANCH  12  19
ENDBRANCH   1  13
BRANCH   6  21
ATOM     21  N   UNL     1       3.040   5.200  19.678  0.00  0.00    +0.000 N 
ATOM     22  C   UNL     1       2.486   4.146  20.541  0.00  0.00    +0.000 C 
ATOM     23  C   UNL     1       2.416   2.831  19.768  0.00  0.00    +0.000 C 
ATOM     24  C   UNL     1       3.789   2.467  19.190  0.00  0.00    +0.000 C 
ATOM     25  C   UNL     1       4.350   3.622  18.359  0.00  0.00    +0.000 C 
ATOM     26  C   UNL     1       4.398   4.897  19.196  0.00  0.00    +0.000 C 
BRANCH  24  27
ATOM     27  N   UNL     1       3.709   1.257  18.368  0.00  0.00    +0.000 NA
ATOM     28  H   UNL     1       3.469   1.510  17.409  0.00  0.00    +0.000 HD
ATOM     29  H   UNL     1       2.953   0.662  18.701  0.00  0.00    +0.000 HD
ENDBRANCH  24  27
ENDBRANCH   6  21
TORSDOF 5
ENDMDL
MODEL 8
REMARK VINA RESULT:      -7.5      4.568      9.541
REMARK  Name = 
REMARK  7 active torsions:
REMARK  status: ('A' for Active; 'I' for Inactive)
REMARK    1  A    between atoms: C_1  and  O_2
REMARK    2  A    between atoms: O_2  and  C_3
REMARK    3  A    between atoms: C_5  and  O_6
REMARK    4  A    between atoms: O_6  and  C_7
REMARK    5  A    between atoms: C_8  and  C_9
REMARK    6  A    between atoms: C_14  and  N_15
REMARK    7  A    between atoms: C_18  and  N_19
REMARK                            x       y       z     vdW  Elec       q    Type
REMARK                         _______ _______ _______ _____ _____    ______ ____
ROOT
ATOM      1  C   UNL     1       1.239  10.567  19.307  0.00  0.00    +0.000 A 
ATOM      2  C   UNL     1       1.096   9.781  20.432  0.00  0.00    +0.000 A 
ATOM      3  N   UNL     1       1.491   8.520  20.063  0.00  0.00    +0.000 N 
ATOM      4  C   UNL     1       1.485   7.339  20.793  0.00  0.00    +0.000 A 
ATOM      5  C   UNL     1       1.903   6.207  20.200  0.00  0.00    +0.000 A 
ATOM      6  C   UNL     1       2.369   6.223  18.802  0.00  0.00    +0.000 A 
ATOM      7  C   UNL     1       2.345   7.399  18.128  0.00  0.00    +0.000 A 
ATOM      8  C   UNL     1       1.897   8.597  18.745  0.00  0.00    +0.000 A 
ATOM      9  N   UNL     1       1.762   9.815  18.272  0.00  0.00    +0.000 NA
ENDROOT
BRANCH   1  13
ATOM     10  C   UNL     1       0.435  14.742  18.726  0.00  0.00    +0.000 A 
ATOM     11  C   UNL     1      -0.622  13.830  18.700  0.00  0.00    +0.000 A 
ATOM     12  C   UNL     1      -0.421  12.456  18.902  0.00  0.00    +0.000 A 
ATOM     13  C   UNL     1       0.887  11.974  19.120  0.00  0.00    +0.000 A 
ATOM     14  C   UNL     1       1.951  12.899  19.110  0.00  0.00    +0.000 A 
ATOM     15  C   UNL     1       1.732  14.265  18.908  0.00  0.00    +0.000 A 
ATOM     16 CL   UNL     1       3.096  15.325  18.913  0.00  0.00    +0.000 Cl
BRANCH  10  18
ATOM     17  C   UNL     1      -0.873  16.647  19.215  0.00  0.00    +0.000 C 
ATOM     18  O   UNL     1       0.258  16.091  18.548  0.00  0.00    +0.000 OA
ENDBRANCH  10  18
BRANCH  12  19
ATOM     19  O   UNL     1      -1.467  11.569  18.932  0.00  0.00    +0.000 OA
ATOM     20  C   UNL     1      -2.273  11.460  17.762  0.00  0.00    +0.000 C 
ENDBRANCH  12  19
ENDBRANCH   1  13
BRANCH   6  21
ATOM     21  N   UNL     1       2.763   5.011  18.232  0.00  0.00    +0.000 N 
ATOM     22  C   UNL     1       4.157   4.714  17.867  0.00  0.00    +0.000 C 
ATOM     23  C   UNL     1       4.532   3.317  18.360  0.00  0.00    +0.000 C 
ATOM     24  C   UNL     1       3.542   2.272  17.834  0.00  0.00    +0.000 C 
ATOM     25  C   UNL     1       2.105   2.664  18.179  0.00  0.00    +0.000 C 
ATOM     26  C   UNL     1       1.800   4.062  17.650  0.00  0.00    +0.000 C 
BRANCH  24  27
ATOM     27  N   UNL     1       3.840   0.945  18.380  0.00  0.00    +0.000 NA
ATOM     28  H   UNL     1       3.217   0.254  17.960  0.00  0.00    +0.000 HD
ATOM     29  H   UNL     1       3.646   0.931  19.379  0.00  0.00    +0.000 HD
ENDBRANCH  24  27
ENDBRANCH   6  21
TORSDOF 5
ENDMDL
MODEL 9
REMARK VINA RESULT:      -7.4      1.415      1.474
REMARK  Name = 
REMARK  7 active torsions:
REMARK  status: ('A' for Active; 'I' for Inactive)
REMARK    1  A    between atoms: C_1  and  O_2
REMARK    2  A    between atoms: O_2  and  C_3
REMARK    3  A    between atoms: C_5  and  O_6
REMARK    4  A    between atoms: O_6  and  C_7
REMARK    5  A    between atoms: C_8  and  C_9
REMARK    6  A    between atoms: C_14  and  N_15
REMARK    7  A    between atoms: C_18  and  N_19
REMARK                            x       y       z     vdW  Elec       q    Type
REMARK                         _______ _______ _______ _____ _____    ______ ____
ROOT
ATOM      1  C   UNL     1       2.192   7.211  18.885  0.00  0.00    +0.000 A 
ATOM      2  C   UNL     1       2.168   8.336  18.087  0.00  0.00    +0.000 A 
ATOM      3  N   UNL     1       1.614   9.330  18.852  0.00  0.00    +0.000 N 
ATOM      4  C   UNL     1       1.302  10.640  18.516  0.00  0.00    +0.000 A 
ATOM      5  C   UNL     1       0.733  11.431  19.443  0.00  0.00    +0.000 A 
ATOM      6  C   UNL     1       0.456  10.917  20.796  0.00  0.00    +0.000 A 
ATOM      7  C   UNL     1       0.768   9.628  21.072  0.00  0.00    +0.000 A 
ATOM      8  C   UNL     1       1.361   8.784  20.096  0.00  0.00    +0.000 A 
ATOM      9  N   UNL     1       1.706   7.517  20.142  0.00  0.00    +0.000 NA
ENDROOT
BRANCH   1  13
ATOM     10  C   UNL     1       3.189   3.155  17.901  0.00  0.00    +0.000 A 
ATOM     11  C   UNL     1       4.119   4.168  17.656  0.00  0.00    +0.000 A 
ATOM     12  C   UNL     1       3.853   5.510  17.974  0.00  0.00    +0.000 A 
ATOM     13  C   UNL     1       2.609   5.852  18.542  0.00  0.00    +0.000 A 
ATOM     14  C   UNL     1       1.665   4.825  18.753  0.00  0.00    +0.000 A 
ATOM     15  C   UNL     1       1.946   3.495  18.431  0.00  0.00    +0.000 A 
ATOM     16 CL   UNL     1       0.730   2.304  18.726  0.00  0.00    +0.000 Cl
BRANCH  10  18
ATOM     17  C   UNL     1       4.023   1.084  18.672  0.00  0.00    +0.000 C 
ATOM     18  O   UNL     1       3.435   1.836  17.613  0.00  0.00    +0.000 OA
ENDBRANCH  10  18
BRANCH  12  19
ATOM     19  O   UNL     1       4.788   6.496  17.784  0.00  0.00    +0.000 OA
ATOM     20  C   UNL     1       5.268   6.703  16.459  0.00  0.00    +0.000 C 
ENDBRANCH  12  19
ENDBRANCH   1  13
BRANCH   6  21
ATOM     21  N   UNL     1      -0.163  11.777  21.706  0.00  0.00    +0.000 N 
ATOM     22  C   UNL     1       0.097  13.224  21.744  0.00  0.00    +0.000 C 
ATOM     23  C   UNL     1      -1.226  13.982  21.842  0.00  0.00    +0.000 C 
ATOM     24  C   UNL     1      -2.045  13.492  23.041  0.00  0.00    +0.000 C 
ATOM     25  C   UNL     1      -2.226  11.975  22.990  0.00  0.00    +0.000 C 
ATOM     26  C   UNL     1      -0.868  11.286  22.902  0.00  0.00    +0.000 C 
BRANCH  24  27
ATOM     27  N   UNL     1      -3.355  14.148  23.086  0.00  0.00    +0.000 NA
ATOM     28  H   UNL     1      -3.244  15.113  23.399  0.00  0.00    +0.000 HD
ATOM     29  H   UNL     1      -3.946  13.692  23.777  0.00  0.00    +0.000 HD
ENDBRANCH  24  27
ENDBRANCH   6  21
TORSDOF 5
ENDMDL
