MODEL 1
REMARK VINA RESULT:      -7.3      0.000      0.000
REMARK  Name = 
REMARK  3 active torsions:
REMARK  status: ('A' for Active; 'I' for Inactive)
REMARK    1  A    between atoms: N_1  and  C_2
REMARK    2  A    between atoms: C_7  and  C_9
REMARK    3  A    between atoms: C_12  and  C_13
REMARK                            x       y       z     vdW  Elec       q    Type
REMARK                         _______ _______ _______ _____ _____    ______ ____
ROOT
ATOM      1  C   UNL     1      -0.041  10.158  21.821  0.00  0.00    +0.000 A 
ATOM      2  C   UNL     1       0.203  10.718  20.571  0.00  0.00    +0.000 A 
ATOM      3  C   UNL     1       0.952  10.016  19.617  0.00  0.00    +0.000 A 
ATOM      4  C   UNL     1       1.404   8.737  19.921  0.00  0.00    +0.000 A 
ATOM      5  N   UNL     1       2.156   8.044  18.954  0.00  0.00    +0.000 N 
ATOM      6  C   UNL     1       2.656   6.769  19.140  0.00  0.00    +0.000 C 
ATOM      7  O   UNL     1       2.507   6.056  20.126  0.00  0.00    +0.000 OA
ATOM      8  N   UNL     1       1.136   8.163  21.102  0.00  0.00    +0.000 NA
ATOM      9  C   UNL     1       0.412   8.859  22.006  0.00  0.00    +0.000 A 
ATOM     10  H   UNL     1       2.377   8.546  18.110  0.00  0.00    +0.000 HD
ENDROOT
BRANCH   6  11
ATOM     11  C   UNL     1       3.502   6.216  18.044  0.00  0.00    +0.000 A 
ATOM     12  C   UNL     1       3.463   4.826  17.848  0.00  0.00    +0.000 A 
ATOM     13  C   UNL     1       4.213   4.225  16.836  0.00  0.00    +0.000 A 
ATOM     14  C   UNL     1       5.014   5.004  15.994  0.00  0.00    +0.000 A 
ATOM     15  C   UNL     1       5.038   6.398  16.178  0.00  0.00    +0.000 A 
ATOM     16  C   UNL     1       4.285   7.004  17.194  0.00  0.00    +0.000 A 
BRANCH  14  17
ATOM     17  C   UNL     1       5.832   4.361  14.899  0.00  0.00    +0.000 C 
ATOM     18  F   UNL     1       6.307   3.126  15.227  0.00  0.00    +0.000 F 
ATOM     19  F   UNL     1       5.126   4.196  13.747  0.00  0.00    +0.000 F 
ATOM     20  F   UNL     1       6.924   5.103  14.566  0.00  0.00    +0.000 F 
ENDBRANCH  14  17
ENDBRANCH   6  11
BRANCH   1  21
ATOM     21  N   UNL     1      -0.904  10.774  22.731  0.00  0.00    +0.000 N 
ATOM     22  H   UNL     1      -1.863  10.437  22.695  0.00  0.00    +0.000 HD
ATOM     23  H   UNL     1      -0.855  11.789  22.724  0.00  0.00    +0.000 HD
ENDBRANCH   1  21
TORSDOF 3
ENDMDL
MODEL 2
REMARK VINA RESULT:      -7.3      0.158      1.389
REMARK  Name = 
REMARK  3 active torsions:
REMARK  status: ('A' for Active; 'I' for Inactive)
REMARK    1  A    between atoms: N_1  and  C_2
REMARK    2  A    between atoms: C_7  and  C_9
REMARK    3  A    between atoms: C_12  and  C_13
REMARK                            x       y       z     vdW  Elec       q    Type
REMARK                         _______ _______ _______ _____ _____    ______ ____
ROOT
ATOM      1  C   UNL     1       0.050  10.202  21.819  0.00  0.00    +0.000 A 
ATOM      2  C   UNL     1       0.318  10.718  20.555  0.00  0.00    +0.000 A 
ATOM      3  C   UNL     1       1.030   9.958  19.618  0.00  0.00    +0.000 A 
ATOM      4  C   UNL     1       1.422   8.667  19.954  0.00  0.00    +0.000 A 
ATOM      5  N   UNL     1       2.137   7.914  19.003  0.00  0.00    +0.000 N 
ATOM      6  C   UNL     1       2.576   6.622  19.222  0.00  0.00    +0.000 C 
ATOM      7  O   UNL     1       2.395   5.942  20.225  0.00  0.00    +0.000 OA
ATOM      8  N   UNL     1       1.128   8.136  21.149  0.00  0.00    +0.000 NA
ATOM      9  C   UNL     1       0.441   8.888  22.036  0.00  0.00    +0.000 A 
ATOM     10  H   UNL     1       2.380   8.383  18.147  0.00  0.00    +0.000 HD
ENDROOT
BRANCH   6  11
ATOM     11  C   UNL     1       3.393   6.001  18.138  0.00  0.00    +0.000 A 
ATOM     12  C   UNL     1       4.166   6.867  17.348  0.00  0.00    +0.000 A 
ATOM     13  C   UNL     1       4.970   6.371  16.322  0.00  0.00    +0.000 A 
ATOM     14  C   UNL     1       5.022   4.996  16.068  0.00  0.00    +0.000 A 
ATOM     15  C   UNL     1       4.262   4.128  16.871  0.00  0.00    +0.000 A 
ATOM     16  C   UNL     1       3.454   4.624  17.904  0.00  0.00    +0.000 A 
BRANCH  14  17
ATOM     17  C   UNL     1       5.887   4.451  14.955  0.00  0.00    +0.000 C 
ATOM     18  F   UNL     1       5.253   4.394  13.750  0.00  0.00    +0.000 F 
ATOM     19  F   UNL     1       7.008   5.195  14.753  0.00  0.00    +0.000 F 
ATOM     20  F   UNL     1       6.317   3.184  15.209  0.00  0.00    +0.000 F 
ENDBRANCH  14  17
ENDBRANCH   6  11
BRANCH   1  21
ATOM     21  N   UNL     1      -0.781  10.882  22.714  0.00  0.00    +0.000 N 
ATOM     22  H   UNL     1      -1.453  10.290  23.195  0.00  0.00    +0.000 HD
ATOM     23  H   UNL     1      -1.215  11.714  22.324  0.00  0.00    +0.000 HD
ENDBRANCH   1  21
TORSDOF 3
ENDMDL
MODEL 3
REMARK VINA RESULT:      -7.2      5.911      8.623
REMARK  Name = 
REMARK  3 active torsions:
REMARK  status: ('A' for Active; 'I' for Inactive)
REMARK    1  A    between atoms: N_1  and  C_2
REMARK    2  A    between atoms: C_7  and  C_9
REMARK    3  A    between atoms: C_12  and  C_13
REMARK                            x       y       z     vdW  Elec       q    Type
REMARK                         _______ _______ _______ _____ _____    ______ ____
ROOT
ATOM      1  C   UNL     1       3.991   2.913  19.961  0.00  0.00    +0.000 A 
ATOM      2  C   UNL     1       3.000   2.838  20.935  0.00  0.00    +0.000 A 
ATOM      3  C   UNL     1       2.231   3.966  21.250  0.00  0.00    +0.000 A 
ATOM      4  C   UNL     1       2.441   5.145  20.543  0.00  0.00    +0.000 A 
ATOM      5  N   UNL     1       1.662   6.271  20.870  0.00  0.00    +0.000 N 
ATOM      6  C   UNL     1       1.779   7.494  20.237  0.00  0.00    +0.000 C 
ATOM      7  O   UNL     1       2.528   7.774  19.308  0.00  0.00    +0.000 OA
ATOM      8  N   UNL     1       3.358   5.221  19.568  0.00  0.00    +0.000 NA
ATOM      9  C   UNL     1       4.086   4.120  19.283  0.00  0.00    +0.000 A 
ATOM     10  H   UNL     1       1.033   6.173  21.650  0.00  0.00    +0.000 HD
ENDROOT
BRANCH   6  11
ATOM     11  C   UNL     1       0.934   8.603  20.766  0.00  0.00    +0.000 A 
ATOM     12  C   UNL     1       0.657   8.593  22.143  0.00  0.00    +0.000 A 
ATOM     13  C   UNL     1      -0.113   9.600  22.724  0.00  0.00    +0.000 A 
ATOM     14  C   UNL     1      -0.619  10.643  21.941  0.00  0.00    +0.000 A 
ATOM     15  C   UNL     1      -0.326  10.663  20.566  0.00  0.00    +0.000 A 
ATOM     16  C   UNL     1       0.450   9.653  19.980  0.00  0.00    +0.000 A 
BRANCH  14  17
ATOM     17  C   UNL     1      -1.459  11.735  22.562  0.00  0.00    +0.000 C 
ATOM     18  F   UNL     1      -2.281  11.293  23.555  0.00  0.00    +0.000 F 
ATOM     19  F   UNL     1      -0.704  12.724  23.114  0.00  0.00    +0.000 F 
ATOM     20  F   UNL     1      -2.268  12.344  21.652  0.00  0.00    +0.000 F 
ENDBRANCH  14  17
ENDBRANCH   6  11
BRANCH   1  21
ATOM     21  N   UNL     1       4.667   1.769  19.530  0.00  0.00    +0.000 N 
ATOM     22  H   UNL     1       4.068   1.057  19.121  0.00  0.00    +0.000 HD
ATOM     23  H   UNL     1       5.305   1.382  20.220  0.00  0.00    +0.000 HD
ENDBRANCH   1  21
TORSDOF 3
ENDMDL
MODEL 4
REMARK VINA RESULT:      -7.2      0.489      1.010
REMARK  Name = 
REMARK  3 active torsions:
REMARK  status: ('A' for Active; 'I' for Inactive)
REMARK    1  A    between atoms: N_1  and  C_2
REMARK    2  A    between atoms: C_7  and  C_9
REMARK    3  A    between atoms: C_12  and  C_13
REMARK                            x       y       z     vdW  Elec       q    Type
REMARK                         _______ _______ _______ _____ _____    ______ ____
ROOT
ATOM      1  C   UNL     1      -0.285  10.194  22.245  0.00  0.00    +0.000 A 
ATOM      2  C   UNL     1       0.102  10.837  21.074  0.00  0.00    +0.000 A 
ATOM      3  C   UNL     1       0.873  10.162  20.119  0.00  0.00    +0.000 A 
ATOM      4  C   UNL     1       1.204   8.829  20.338  0.00  0.00    +0.000 A 
ATOM      5  N   UNL     1       1.980   8.163  19.371  0.00  0.00    +0.000 N 
ATOM      6  C   UNL     1       2.368   6.841  19.477  0.00  0.00    +0.000 C 
ATOM      7  O   UNL     1       2.087   6.061  20.380  0.00  0.00    +0.000 OA
ATOM      8  N   UNL     1       0.798   8.180  21.438  0.00  0.00    +0.000 NA
ATOM      9  C   UNL     1       0.055   8.853  22.344  0.00  0.00    +0.000 A 
ATOM     10  H   UNL     1       2.306   8.716  18.595  0.00  0.00    +0.000 HD
ENDROOT
BRANCH   6  11
ATOM     11  C   UNL     1       3.259   6.317  18.402  0.00  0.00    +0.000 A 
ATOM     12  C   UNL     1       3.333   4.922  18.258  0.00  0.00    +0.000 A 
ATOM     13  C   UNL     1       4.131   4.346  17.270  0.00  0.00    +0.000 A 
ATOM     14  C   UNL     1       4.869   5.155  16.398  0.00  0.00    +0.000 A 
ATOM     15  C   UNL     1       4.781   6.552  16.530  0.00  0.00    +0.000 A 
ATOM     16  C   UNL     1       3.978   7.133  17.523  0.00  0.00    +0.000 A 
BRANCH  14  17
ATOM     17  C   UNL     1       5.739   4.539  15.328  0.00  0.00    +0.000 C 
ATOM     18  F   UNL     1       5.190   4.590  14.082  0.00  0.00    +0.000 F 
ATOM     19  F   UNL     1       6.952   5.148  15.228  0.00  0.00    +0.000 F 
ATOM     20  F   UNL     1       5.998   3.224  15.567  0.00  0.00    +0.000 F 
ENDBRANCH  14  17
ENDBRANCH   6  11
BRANCH   1  21
ATOM     21  N   UNL     1      -1.173  10.798  23.140  0.00  0.00    +0.000 N 
ATOM     22  H   UNL     1      -1.606  10.156  23.798  0.00  0.00    +0.000 HD
ATOM     23  H   UNL     1      -1.854  11.409  22.697  0.00  0.00    +0.000 HD
ENDBRANCH   1  21
TORSDOF 3
ENDMDL
MODEL 5
REMARK VINA RESULT:      -7.2      5.972      8.789
REMARK  Name = 
REMARK  3 active torsions:
REMARK  status: ('A' for Active; 'I' for Inactive)
REMARK    1  A    between atoms: N_1  and  C_2
REMARK    2  A    between atoms: C_7  and  C_9
REMARK    3  A    between atoms: C_12  and  C_13
REMARK                            x       y       z     vdW  Elec       q    Type
REMARK                         _______ _______ _______ _____ _____    ______ ____
ROOT
ATOM      1  C   UNL     1       3.785   3.105  19.753  0.00  0.00    +0.000 A 
ATOM      2  C   UNL     1       2.893   2.979  20.813  0.00  0.00    +0.000 A 
ATOM      3  C   UNL     1       2.147   4.084  21.244  0.00  0.00    +0.000 A 
ATOM      4  C   UNL     1       2.278   5.292  20.568  0.00  0.00    +0.000 A 
ATOM      5  N   UNL     1       1.524   6.394  21.012  0.00  0.00    +0.000 N 
ATOM      6  C   UNL     1       1.568   7.642  20.421  0.00  0.00    +0.000 C 
ATOM      7  O   UNL     1       2.222   7.968  19.436  0.00  0.00    +0.000 OA
ATOM      8  N   UNL     1       3.096   5.418  19.514  0.00  0.00    +0.000 NA
ATOM      9  C   UNL     1       3.804   4.338  19.117  0.00  0.00    +0.000 A 
ATOM     10  H   UNL     1       0.972   6.258  21.844  0.00  0.00    +0.000 HD
ENDROOT
BRANCH   6  11
ATOM     11  C   UNL     1       0.767   8.719  21.071  0.00  0.00    +0.000 A 
ATOM     12  C   UNL     1       0.299   9.753  20.244  0.00  0.00    +0.000 A 
ATOM     13  C   UNL     1      -0.469  10.794  20.766  0.00  0.00    +0.000 A 
ATOM     14  C   UNL     1      -0.790  10.820  22.128  0.00  0.00    +0.000 A 
ATOM     15  C   UNL     1      -0.336   9.775  22.952  0.00  0.00    +0.000 A 
ATOM     16  C   UNL     1       0.435   8.727  22.429  0.00  0.00    +0.000 A 
BRANCH  14  17
ATOM     17  C   UNL     1      -1.617  11.946  22.702  0.00  0.00    +0.000 C 
ATOM     18  F   UNL     1      -0.874  12.915  23.308  0.00  0.00    +0.000 F 
ATOM     19  F   UNL     1      -2.361  12.582  21.756  0.00  0.00    +0.000 F 
ATOM     20  F   UNL     1      -2.499  11.511  23.644  0.00  0.00    +0.000 F 
ENDBRANCH  14  17
ENDBRANCH   6  11
BRANCH   1  21
ATOM     21  N   UNL     1       4.427   1.987  19.214  0.00  0.00    +0.000 N 
ATOM     22  H   UNL     1       5.165   2.207  18.550  0.00  0.00    +0.000 HD
ATOM     23  H   UNL     1       3.793   1.277  18.859  0.00  0.00    +0.000 HD
ENDBRANCH   1  21
TORSDOF 3
ENDMDL
MODEL 6
REMARK VINA RESULT:      -7.1      1.580      2.251
REMARK  Name = 
REMARK  3 active torsions:
REMARK  status: ('A' for Active; 'I' for Inactive)
REMARK    1  A    between atoms: N_1  and  C_2
REMARK    2  A    between atoms: C_7  and  C_9
REMARK    3  A    between atoms: C_12  and  C_13
REMARK                            x       y       z     vdW  Elec       q    Type
REMARK                         _______ _______ _______ _____ _____    ______ ____
ROOT
ATOM      1  C   UNL     1      -0.913  10.938  22.348  0.00  0.00    +0.000 A 
ATOM      2  C   UNL     1      -0.245   9.906  22.999  0.00  0.00    +0.000 A 
ATOM      3  C   UNL     1       0.585   9.037  22.279  0.00  0.00    +0.000 A 
ATOM      4  C   UNL     1       0.767   9.250  20.917  0.00  0.00    +0.000 A 
ATOM      5  N   UNL     1       1.603   8.369  20.206  0.00  0.00    +0.000 N 
ATOM      6  C   UNL     1       1.861   8.481  18.853  0.00  0.00    +0.000 C 
ATOM      7  O   UNL     1       1.444   9.347  18.093  0.00  0.00    +0.000 OA
ATOM      8  N   UNL     1       0.170  10.269  20.283  0.00  0.00    +0.000 NA
ATOM      9  C   UNL     1      -0.625  11.093  20.999  0.00  0.00    +0.000 A 
ATOM     10  H   UNL     1       1.977   7.588  20.720  0.00  0.00    +0.000 HD
ENDROOT
BRANCH   6  11
ATOM     11  C   UNL     1       2.703   7.412  18.242  0.00  0.00    +0.000 A 
ATOM     12  C   UNL     1       2.320   6.083  18.483  0.00  0.00    +0.000 A 
ATOM     13  C   UNL     1       3.042   5.020  17.939  0.00  0.00    +0.000 A 
ATOM     14  C   UNL     1       4.162   5.266  17.137  0.00  0.00    +0.000 A 
ATOM     15  C   UNL     1       4.535   6.597  16.881  0.00  0.00    +0.000 A 
ATOM     16  C   UNL     1       3.809   7.666  17.426  0.00  0.00    +0.000 A 
BRANCH  14  17
ATOM     17  C   UNL     1       4.953   4.121  16.548  0.00  0.00    +0.000 C 
ATOM     18  F   UNL     1       4.933   4.088  15.186  0.00  0.00    +0.000 F 
ATOM     19  F   UNL     1       6.266   4.157  16.903  0.00  0.00    +0.000 F 
ATOM     20  F   UNL     1       4.487   2.908  16.957  0.00  0.00    +0.000 F 
ENDBRANCH  14  17
ENDBRANCH   6  11
BRANCH   1  21
ATOM     21  N   UNL     1      -1.627  11.901  23.066  0.00  0.00    +0.000 N 
ATOM     22  H   UNL     1      -1.906  12.711  22.518  0.00  0.00    +0.000 HD
ATOM     23  H   UNL     1      -1.193  12.166  23.946  0.00  0.00    +0.000 HD
ENDBRANCH   1  21
TORSDOF 3
ENDMDL
MODEL 7
REMARK VINA RESULT:      -7.0      1.282      1.969
REMARK  Name = 
REMARK  3 active torsions:
REMARK  status: ('A' for Active; 'I' for Inactive)
REMARK    1  A    between atoms: N_1  and  C_2
REMARK    2  A    between atoms: C_7  and  C_9
REMARK    3  A    between atoms: C_12  and  C_13
REMARK                            x       y       z     vdW  Elec       q    Type
REMARK                         _______ _______ _______ _____ _____    ______ ____
ROOT
ATOM      1  C   UNL     1      -0.498  10.302  21.741  0.00  0.00    +0.000 A 
ATOM      2  C   UNL     1       0.172   9.270  22.391  0.00  0.00    +0.000 A 
ATOM      3  C   UNL     1       1.049   8.440  21.681  0.00  0.00    +0.000 A 
ATOM      4  C   UNL     1       1.274   8.692  20.332  0.00  0.00    +0.000 A 
ATOM      5  N   UNL     1       2.157   7.850  19.630  0.00  0.00    +0.000 N 
ATOM      6  C   UNL     1       2.461   8.002  18.291  0.00  0.00    +0.000 C 
ATOM      7  O   UNL     1       2.049   8.877  17.537  0.00  0.00    +0.000 OA
ATOM      8  N   UNL     1       0.675   9.712  19.702  0.00  0.00    +0.000 NA
ATOM      9  C   UNL     1      -0.166  10.499  20.408  0.00  0.00    +0.000 A 
ATOM     10  H   UNL     1       2.532   7.065  20.139  0.00  0.00    +0.000 HD
ENDROOT
BRANCH   6  11
ATOM     11  C   UNL     1       3.351   6.970  17.685  0.00  0.00    +0.000 A 
ATOM     12  C   UNL     1       4.432   7.432  16.917  0.00  0.00    +0.000 A 
ATOM     13  C   UNL     1       5.323   6.536  16.325  0.00  0.00    +0.000 A 
ATOM     14  C   UNL     1       5.154   5.158  16.494  0.00  0.00    +0.000 A 
ATOM     15  C   UNL     1       4.082   4.696  17.279  0.00  0.00    +0.000 A 
ATOM     16  C   UNL     1       3.187   5.595  17.876  0.00  0.00    +0.000 A 
BRANCH  14  17
ATOM     17  C   UNL     1       6.111   4.181  15.853  0.00  0.00    +0.000 C 
ATOM     18  F   UNL     1       7.327   4.126  16.466  0.00  0.00    +0.000 F 
ATOM     19  F   UNL     1       5.634   2.906  15.852  0.00  0.00    +0.000 F 
ATOM     20  F   UNL     1       6.365   4.487  14.550  0.00  0.00    +0.000 F 
ENDBRANCH  14  17
ENDBRANCH   6  11
BRANCH   1  21
ATOM     21  N   UNL     1      -1.261  11.229  22.456  0.00  0.00    +0.000 N 
ATOM     22  H   UNL     1      -0.715  11.928  22.953  0.00  0.00    +0.000 HD
ATOM     23  H   UNL     1      -1.974  10.810  23.046  0.00  0.00    +0.000 HD
ENDBRANCH   1  21
TORSDOF 3
ENDMDL
MODEL 8
REMARK VINA RESULT:      -7.0      1.662      2.562
REMARK  Name = 
REMARK  3 active torsions:
REMARK  status: ('A' for Active; 'I' for Inactive)
REMARK    1  A    between atoms: N_1  and  C_2
REMARK    2  A    between atoms: C_7  and  C_9
REMARK    3  A    between atoms: C_12  and  C_13
REMARK                            x       y       z     vdW  Elec       q    Type
REMARK                         _______ _______ _______ _____ _____    ______ ____
ROOT
ATOM      1  C   UNL     1      -1.043  11.313  22.496  0.00  0.00    +0.000 A 
ATOM      2  C   UNL     1      -0.661  10.155  23.166  0.00  0.00    +0.000 A 
ATOM      3  C   UNL     1       0.108   9.182  22.514  0.00  0.00    +0.000 A 
ATOM      4  C   UNL     1       0.522   9.413  21.206  0.00  0.00    +0.000 A 
ATOM      5  N   UNL     1       1.293   8.428  20.562  0.00  0.00    +0.000 N 
ATOM      6  C   UNL     1       1.762   8.546  19.268  0.00  0.00    +0.000 C 
ATOM      7  O   UNL     1       1.613   9.501  18.514  0.00  0.00    +0.000 OA
ATOM      8  N   UNL     1       0.203  10.546  20.562  0.00  0.00    +0.000 NA
ATOM      9  C   UNL     1      -0.539  11.468  21.212  0.00  0.00    +0.000 A 
ATOM     10  H   UNL     1       1.451   7.574  21.073  0.00  0.00    +0.000 HD
ENDROOT
BRANCH   6  11
ATOM     11  C   UNL     1       2.494   7.371  18.712  0.00  0.00    +0.000 A 
ATOM     12  C   UNL     1       3.390   7.617  17.660  0.00  0.00    +0.000 A 
ATOM     13  C   UNL     1       4.126   6.579  17.089  0.00  0.00    +0.000 A 
ATOM     14  C   UNL     1       3.986   5.270  17.565  0.00  0.00    +0.000 A 
ATOM     15  C   UNL     1       3.103   5.027  18.631  0.00  0.00    +0.000 A 
ATOM     16  C   UNL     1       2.363   6.070  19.207  0.00  0.00    +0.000 A 
BRANCH  14  17
ATOM     17  C   UNL     1       4.776   4.139  16.949  0.00  0.00    +0.000 C 
ATOM     18  F   UNL     1       4.270   2.905  17.229  0.00  0.00    +0.000 F 
ATOM     19  F   UNL     1       4.834   4.222  15.592  0.00  0.00    +0.000 F 
ATOM     20  F   UNL     1       6.068   4.118  17.380  0.00  0.00    +0.000 F 
ENDBRANCH  14  17
ENDBRANCH   6  11
BRANCH   1  21
ATOM     21  N   UNL     1      -1.683  12.357  23.169  0.00  0.00    +0.000 N 
ATOM     22  H   UNL     1      -1.501  12.387  24.168  0.00  0.00    +0.000 HD
ATOM     23  H   UNL     1      -2.674  12.438  22.958  0.00  0.00    +0.000 HD
ENDBRANCH   1  21
TORSDOF 3
ENDMDL
MODEL 9
REMARK VINA RESULT:      -7.0      6.033      8.913
REMARK  Name = 
REMARK  3 active torsions:
REMARK  status: ('A' for Active; 'I' for Inactive)
REMARK    1  A    between atoms: N_1  and  C_2
REMARK    2  A    between atoms: C_7  and  C_9
REMARK    3  A    between atoms: C_12  and  C_13
REMARK                            x       y       z     vdW  Elec       q    Type
REMARK                         _______ _______ _______ _____ _____    ______ ____
ROOT
ATOM      1  C   UNL     1       3.841   3.779  19.277  0.00  0.00    +0.000 A 
ATOM      2  C   UNL     1       2.989   3.541  20.351  0.00  0.00    +0.000 A 
ATOM      3  C   UNL     1       2.205   4.578  20.873  0.00  0.00    +0.000 A 
ATOM      4  C   UNL     1       2.257   5.832  20.274  0.00  0.00    +0.000 A 
ATOM      5  N   UNL     1       1.464   6.865  20.810  0.00  0.00    +0.000 N 
ATOM      6  C   UNL     1       1.431   8.149  20.300  0.00  0.00    +0.000 C 
ATOM      7  O   UNL     1       2.038   8.569  19.321  0.00  0.00    +0.000 OA
ATOM      8  N   UNL     1       3.035   6.066  19.208  0.00  0.00    +0.000 NA
ATOM      9  C   UNL     1       3.782   5.050  18.723  0.00  0.00    +0.000 A 
ATOM     10  H   UNL     1       0.945   6.648  21.645  0.00  0.00    +0.000 HD
ENDROOT
BRANCH   6  11
ATOM     11  C   UNL     1       0.599   9.141  21.041  0.00  0.00    +0.000 A 
ATOM     12  C   UNL     1       0.148  10.258  20.320  0.00  0.00    +0.000 A 
ATOM     13  C   UNL     1      -0.646  11.229  20.931  0.00  0.00    +0.000 A 
ATOM     14  C   UNL     1      -1.011  11.100  22.275  0.00  0.00    +0.000 A 
ATOM     15  C   UNL     1      -0.574   9.971  22.991  0.00  0.00    +0.000 A 
ATOM     16  C   UNL     1       0.223   8.994  22.379  0.00  0.00    +0.000 A 
BRANCH  14  17
ATOM     17  C   UNL     1      -1.867  12.149  22.945  0.00  0.00    +0.000 C 
ATOM     18  F   UNL     1      -2.760  11.637  23.837  0.00  0.00    +0.000 F 
ATOM     19  F   UNL     1      -1.129  13.061  23.636  0.00  0.00    +0.000 F 
ATOM     20  F   UNL     1      -2.603  12.864  22.049  0.00  0.00    +0.000 F 
ENDBRANCH  14  17
ENDBRANCH   6  11
BRANCH   1  21
ATOM     21  N   UNL     1       4.520   2.732  18.649  0.00  0.00    +0.000 N 
ATOM     22  H   UNL     1       5.049   3.008  17.826  0.00  0.00    +0.000 HD
ATOM     23  H   UNL     1       3.945   1.912  18.477  0.00  0.00    +0.000 HD
ENDBRANCH   1  21
TORSDOF 3
ENDMDL
