MODEL 1
REMARK VINA RESULT:      -8.2      0.000      0.000
REMARK  Name = 
REMARK  12 active torsions:
REMARK  status: ('A' for Active; 'I' for Inactive)
REMARK    1  A    between atoms: C_1  and  C_2
REMARK    2  A    between atoms: C_2  and  N_3
REMARK    3  A    between atoms: N_3  and  C_4
REMARK    4  A    between atoms: C_7  and  C_8
REMARK    5  A    between atoms: C_8  and  O_10
REMARK    6  A    between atoms: O_10  and  C_11
REMARK    7  A    between atoms: C_11  and  C_12
REMARK    8  A    between atoms: C_14  and  N_15
REMARK    9  A    between atoms: C_16  and  C_18
REMARK   10  A    between atoms: C_20  and  S_21
REMARK   11  A    between atoms: S_21  and  N_24
REMARK   12  A    between atoms: C_32  and  C_33
REMARK                            x       y       z     vdW  Elec       q    Type
REMARK                         _______ _______ _______ _____ _____    ______ ____
ROOT
ATOM      1  N   UNL     1       2.450   6.997  18.755  0.00  0.00    +0.000 N 
ATOM      2  C   UNL     1       2.140   8.272  18.333  0.00  0.00    +0.000 C 
ATOM      3  O   UNL     1       2.301   8.690  17.188  0.00  0.00    +0.000 OA
ATOM      4  H   UNL     1       1.959   6.614  19.554  0.00  0.00    +0.000 HD
ENDROOT
BRANCH   2   5
ATOM      5  C   UNL     1       1.479   9.167  19.316  0.00  0.00    +0.000 A 
ATOM      6  C   UNL     1       1.415  10.535  18.969  0.00  0.00    +0.000 A 
ATOM      7  C   UNL     1       0.907  11.459  19.880  0.00  0.00    +0.000 A 
ATOM      8  C   UNL     1       0.403  11.020  21.107  0.00  0.00    +0.000 A 
ATOM      9  C   UNL     1       0.463   9.668  21.449  0.00  0.00    +0.000 A 
ATOM     10  C   UNL     1       1.033   8.723  20.580  0.00  0.00    +0.000 A 
ATOM     11  C   UNL     1       1.229   7.322  21.100  0.00  0.00    +0.000 C 
BRANCH   7  12
ATOM     12  S   UNL     1       0.816  13.192  19.479  0.00  0.00    +0.000 S 
ATOM     13  O   UNL     1       0.196  13.278  18.173  0.00  0.00    +0.000 OA
ATOM     14  O   UNL     1       0.225  13.861  20.617  0.00  0.00    +0.000 OA
BRANCH  12  15
ATOM     15  N   UNL     1       2.419  13.755  19.331  0.00  0.00    +0.000 NA
ATOM     16  C   UNL     1       3.129  14.251  20.549  0.00  0.00    +0.000 C 
ATOM     17  C   UNL     1       2.708  15.672  20.945  0.00  0.00    +0.000 C 
ATOM     18  O   UNL     1       2.811  16.606  19.861  0.00  0.00    +0.000 OA
ATOM     19  C   UNL     1       2.127  16.167  18.681  0.00  0.00    +0.000 C 
ATOM     20  C   UNL     1       2.604  14.778  18.238  0.00  0.00    +0.000 C 
ENDBRANCH  12  15
ENDBRANCH   7  12
ENDBRANCH   2   5
BRANCH   1  26
ATOM     21  C   UNL     1       2.704   4.801  17.698  0.00  0.00    +0.000 A 
ATOM     22  C   UNL     1       3.595   3.882  17.115  0.00  0.00    +0.000 A 
ATOM     23  C   UNL     1       4.890   4.241  16.747  0.00  0.00    +0.000 A 
ATOM     24  C   UNL     1       5.351   5.537  16.979  0.00  0.00    +0.000 A 
ATOM     25  C   UNL     1       4.497   6.461  17.589  0.00  0.00    +0.000 A 
ATOM     26  C   UNL     1       3.196   6.091  17.975  0.00  0.00    +0.000 A 
BRANCH  21  27
ATOM     27  N   UNL     1       1.418   4.329  17.990  0.00  0.00    +0.000 N 
ATOM     28  H   UNL     1       0.829   4.302  17.162  0.00  0.00    +0.000 HD
BRANCH  27  30
ATOM     29  C   UNL     1       1.175   3.695  20.329  0.00  0.00    +0.000 C 
ATOM     30  C   UNL     1       1.232   3.199  18.891  0.00  0.00    +0.000 C 
ENDBRANCH  27  30
ENDBRANCH  21  27
BRANCH  24  31
ATOM     31  C   UNL     1       6.772   5.851  16.672  0.00  0.00    +0.000 C 
ATOM     32  O   UNL     1       7.600   4.993  16.395  0.00  0.00    +0.000 OA
BRANCH  31  33
ATOM     33  O   UNL     1       7.018   7.168  16.857  0.00  0.00    +0.000 OA
BRANCH  33  34
ATOM     34  C   UNL     1       7.882   7.475  17.963  0.00  0.00    +0.000 C 
ATOM     35  C   UNL     1       8.161   8.968  17.921  0.00  0.00    +0.000 C 
ENDBRANCH  33  34
ENDBRANCH  31  33
ENDBRANCH  24  31
ENDBRANCH   1  26
TORSDOF 9
ENDMDL
MODEL 2
REMARK VINA RESULT:      -8.0      1.402      1.721
REMARK  Name = 
REMARK  12 active torsions:
REMARK  status: ('A' for Active; 'I' for Inactive)
REMARK    1  A    between atoms: C_1  and  C_2
REMARK    2  A    between atoms: C_2  and  N_3
REMARK    3  A    between atoms: N_3  and  C_4
REMARK    4  A    between atoms: C_7  and  C_8
REMARK    5  A    between atoms: C_8  and  O_10
REMARK    6  A    between atoms: O_10  and  C_11
REMARK    7  A    between atoms: C_11  and  C_12
REMARK    8  A    between atoms: C_14  and  N_15
REMARK    9  A    between atoms: C_16  and  C_18
REMARK   10  A    between atoms: C_20  and  S_21
REMARK   11  A    between atoms: S_21  and  N_24
REMARK   12  A    between atoms: C_32  and  C_33
REMARK                            x       y       z     vdW  Elec       q    Type
REMARK                         _______ _______ _______ _____ _____    ______ ____
ROOT
ATOM      1  N   UNL     1       2.162   7.980  19.440  0.00  0.00    +0.000 N 
ATOM      2  C   UNL     1       1.438   8.916  18.734  0.00  0.00    +0.000 C 
ATOM      3  O   UNL     1       1.091   8.794  17.560  0.00  0.00    +0.000 OA
ATOM      4  H   UNL     1       2.080   7.960  20.450  0.00  0.00    +0.000 HD
ENDROOT
BRANCH   2   5
ATOM      5  C   UNL     1       0.968  10.110  19.479  0.00  0.00    +0.000 A 
ATOM      6  C   UNL     1       1.345  11.364  18.949  0.00  0.00    +0.000 A 
ATOM      7  C   UNL     1       1.035  12.533  19.644  0.00  0.00    +0.000 A 
ATOM      8  C   UNL     1       0.298  12.463  20.828  0.00  0.00    +0.000 A 
ATOM      9  C   UNL     1      -0.078  11.224  21.351  0.00  0.00    +0.000 A 
ATOM     10  C   UNL     1       0.280  10.026  20.710  0.00  0.00    +0.000 A 
ATOM     11  C   UNL     1       0.000   8.734  21.433  0.00  0.00    +0.000 C 
BRANCH   7  12
ATOM     12  S   UNL     1       1.499  14.131  19.009  0.00  0.00    +0.000 S 
ATOM     13  O   UNL     1       2.429  13.887  17.926  0.00  0.00    +0.000 OA
ATOM     14  O   UNL     1       0.276  14.867  18.774  0.00  0.00    +0.000 OA
BRANCH  12  15
ATOM     15  N   UNL     1       2.348  14.935  20.250  0.00  0.00    +0.000 NA
ATOM     16  C   UNL     1       1.777  16.192  20.822  0.00  0.00    +0.000 C 
ATOM     17  C   UNL     1       2.013  17.413  19.924  0.00  0.00    +0.000 C 
ATOM     18  O   UNL     1       3.391  17.581  19.561  0.00  0.00    +0.000 OA
ATOM     19  C   UNL     1       3.965  16.396  18.994  0.00  0.00    +0.000 C 
ATOM     20  C   UNL     1       3.799  15.189  19.927  0.00  0.00    +0.000 C 
ENDBRANCH  12  15
ENDBRANCH   7  12
ENDBRANCH   2   5
BRANCH   1  26
ATOM     21  C   UNL     1       2.625   5.575  19.361  0.00  0.00    +0.000 A 
ATOM     22  C   UNL     1       3.452   4.562  18.843  0.00  0.00    +0.000 A 
ATOM     23  C   UNL     1       4.336   4.796  17.793  0.00  0.00    +0.000 A 
ATOM     24  C   UNL     1       4.447   6.072  17.240  0.00  0.00    +0.000 A 
ATOM     25  C   UNL     1       3.661   7.106  17.760  0.00  0.00    +0.000 A 
ATOM     26  C   UNL     1       2.781   6.871  18.832  0.00  0.00    +0.000 A 
BRANCH  21  27
ATOM     27  N   UNL     1       1.752   5.206  20.392  0.00  0.00    +0.000 N 
ATOM     28  H   UNL     1       1.276   6.012  20.790  0.00  0.00    +0.000 HD
BRANCH  27  30
ATOM     29  C   UNL     1       1.323   2.987  21.299  0.00  0.00    +0.000 C 
ATOM     30  C   UNL     1       0.912   4.022  20.262  0.00  0.00    +0.000 C 
ENDBRANCH  27  30
ENDBRANCH  21  27
BRANCH  24  31
ATOM     31  C   UNL     1       5.479   6.307  16.196  0.00  0.00    +0.000 C 
ATOM     32  O   UNL     1       5.211   6.695  15.066  0.00  0.00    +0.000 OA
BRANCH  31  33
ATOM     33  O   UNL     1       6.698   5.924  16.639  0.00  0.00    +0.000 OA
BRANCH  33  34
ATOM     34  C   UNL     1       7.394   6.905  17.426  0.00  0.00    +0.000 C 
ATOM     35  C   UNL     1       7.791   6.240  18.733  0.00  0.00    +0.000 C 
ENDBRANCH  33  34
ENDBRANCH  31  33
ENDBRANCH  24  31
ENDBRANCH   1  26
TORSDOF 9
ENDMDL
MODEL 3
REMARK VINA RESULT:      -8.0      1.360      1.629
REMARK  Name = 
REMARK  12 active torsions:
REMARK  status: ('A' for Active; 'I' for Inactive)
REMARK    1  A    between atoms: C_1  and  C_2
REMARK    2  A    between atoms: C_2  and  N_3
REMARK    3  A    between atoms: N_3  and  C_4
REMARK    4  A    between atoms: C_7  and  C_8
REMARK    5  A    between atoms: C_8  and  O_10
REMARK    6  A    between atoms: O_10  and  C_11
REMARK    7  A    between atoms: C_11  and  C_12
REMARK    8  A    between atoms: C_14  and  N_15
REMARK    9  A    between atoms: C_16  and  C_18
REMARK   10  A    between atoms: C_20  and  S_21
REMARK   11  A    between atoms: S_21  and  N_24
REMARK   12  A    between atoms: C_32  and  C_33
REMARK                            x       y       z     vdW  Elec       q    Type
REMARK                         _______ _______ _______ _____ _____    ______ ____
ROOT
ATOM      1  N   UNL     1       2.010   7.971  19.650  0.00  0.00    +0.000 N 
ATOM      2  C   UNL     1       1.327   8.980  19.008  0.00  0.00    +0.000 C 
ATOM      3  O   UNL     1       1.015   8.969  17.819  0.00  0.00    +0.000 OA
ATOM      4  H   UNL     1       1.896   7.864  20.652  0.00  0.00    +0.000 HD
ENDROOT
BRANCH   2   5
ATOM      5  C   UNL     1       0.859  10.116  19.841  0.00  0.00    +0.000 A 
ATOM      6  C   UNL     1       1.282  11.402  19.437  0.00  0.00    +0.000 A 
ATOM      7  C   UNL     1       0.975  12.512  20.223  0.00  0.00    +0.000 A 
ATOM      8  C   UNL     1       0.196  12.356  21.372  0.00  0.00    +0.000 A 
ATOM      9  C   UNL     1      -0.225  11.086  21.770  0.00  0.00    +0.000 A 
ATOM     10  C   UNL     1       0.128   9.940  21.037  0.00  0.00    +0.000 A 
ATOM     11  C   UNL     1      -0.205   8.597  21.633  0.00  0.00    +0.000 C 
BRANCH   7  12
ATOM     12  S   UNL     1       1.496  14.147  19.748  0.00  0.00    +0.000 S 
ATOM     13  O   UNL     1       0.876  14.419  18.467  0.00  0.00    +0.000 OA
ATOM     14  O   UNL     1       1.254  15.016  20.879  0.00  0.00    +0.000 OA
BRANCH  12  15
ATOM     15  N   UNL     1       3.183  14.083  19.505  0.00  0.00    +0.000 NA
ATOM     16  C   UNL     1       4.088  14.649  20.550  0.00  0.00    +0.000 C 
ATOM     17  C   UNL     1       4.178  16.180  20.493  0.00  0.00    +0.000 C 
ATOM     18  O   UNL     1       4.514  16.670  19.187  0.00  0.00    +0.000 OA
ATOM     19  C   UNL     1       3.653  16.158  18.162  0.00  0.00    +0.000 C 
ATOM     20  C   UNL     1       3.624  14.623  18.167  0.00  0.00    +0.000 C 
ENDBRANCH  12  15
ENDBRANCH   7  12
ENDBRANCH   2   5
BRANCH   1  26
ATOM     21  C   UNL     1       2.450   5.573  19.393  0.00  0.00    +0.000 A 
ATOM     22  C   UNL     1       3.273   4.594  18.807  0.00  0.00    +0.000 A 
ATOM     23  C   UNL     1       4.172   4.899  17.788  0.00  0.00    +0.000 A 
ATOM     24  C   UNL     1       4.301   6.212  17.335  0.00  0.00    +0.000 A 
ATOM     25  C   UNL     1       3.520   7.212  17.924  0.00  0.00    +0.000 A 
ATOM     26  C   UNL     1       2.625   6.904  18.966  0.00  0.00    +0.000 A 
BRANCH  21  27
ATOM     27  N   UNL     1       1.562   5.136  20.383  0.00  0.00    +0.000 N 
ATOM     28  H   UNL     1       0.924   5.874  20.670  0.00  0.00    +0.000 HD
BRANCH  27  30
ATOM     29  C   UNL     1       1.377   2.972  21.485  0.00  0.00    +0.000 C 
ATOM     30  C   UNL     1       0.947   3.817  20.295  0.00  0.00    +0.000 C 
ENDBRANCH  27  30
ENDBRANCH  21  27
BRANCH  24  31
ATOM     31  C   UNL     1       5.348   6.515  16.323  0.00  0.00    +0.000 C 
ATOM     32  O   UNL     1       5.098   7.009  15.231  0.00  0.00    +0.000 OA
BRANCH  31  33
ATOM     33  O   UNL     1       6.553   6.065  16.738  0.00  0.00    +0.000 OA
BRANCH  33  34
ATOM     34  C   UNL     1       7.302   6.988  17.547  0.00  0.00    +0.000 C 
ATOM     35  C   UNL     1       7.781   6.231  18.774  0.00  0.00    +0.000 C 
ENDBRANCH  33  34
ENDBRANCH  31  33
ENDBRANCH  24  31
ENDBRANCH   1  26
TORSDOF 9
ENDMDL
MODEL 4
REMARK VINA RESULT:      -8.0      4.996      8.186
REMARK  Name = 
REMARK  12 active torsions:
REMARK  status: ('A' for Active; 'I' for Inactive)
REMARK    1  A    between atoms: C_1  and  C_2
REMARK    2  A    between atoms: C_2  and  N_3
REMARK    3  A    between atoms: N_3  and  C_4
REMARK    4  A    between atoms: C_7  and  C_8
REMARK    5  A    between atoms: C_8  and  O_10
REMARK    6  A    between atoms: O_10  and  C_11
REMARK    7  A    between atoms: C_11  and  C_12
REMARK    8  A    between atoms: C_14  and  N_15
REMARK    9  A    between atoms: C_16  and  C_18
REMARK   10  A    between atoms: C_20  and  S_21
REMARK   11  A    between atoms: S_21  and  N_24
REMARK   12  A    between atoms: C_32  and  C_33
REMARK                            x       y       z     vdW  Elec       q    Type
REMARK                         _______ _______ _______ _____ _____    ______ ____
ROOT
ATOM      1  N   UNL     1       4.750   4.661  16.469  0.00  0.00    +0.000 N 
ATOM      2  C   UNL     1       4.434   5.898  16.985  0.00  0.00    +0.000 C 
ATOM      3  O   UNL     1       4.685   6.971  16.438  0.00  0.00    +0.000 OA
ATOM      4  H   UNL     1       4.200   3.858  16.753  0.00  0.00    +0.000 HD
ENDROOT
BRANCH   2   5
ATOM      5  C   UNL     1       3.652   5.925  18.247  0.00  0.00    +0.000 A 
ATOM      6  C   UNL     1       3.606   4.717  18.977  0.00  0.00    +0.000 A 
ATOM      7  C   UNL     1       2.808   4.626  20.117  0.00  0.00    +0.000 A 
ATOM      8  C   UNL     1       2.110   5.749  20.568  0.00  0.00    +0.000 A 
ATOM      9  C   UNL     1       2.158   6.944  19.848  0.00  0.00    +0.000 A 
ATOM     10  C   UNL     1       2.897   7.046  18.658  0.00  0.00    +0.000 A 
ATOM     11  C   UNL     1       2.746   8.306  17.846  0.00  0.00    +0.000 C 
BRANCH   7  12
ATOM     12  S   UNL     1       2.721   3.118  21.060  0.00  0.00    +0.000 S 
ATOM     13  O   UNL     1       4.081   2.642  21.199  0.00  0.00    +0.000 OA
ATOM     14  O   UNL     1       1.916   3.394  22.231  0.00  0.00    +0.000 OA
BRANCH  12  15
ATOM     15  N   UNL     1       1.869   1.984  20.112  0.00  0.00    +0.000 NA
ATOM     16  C   UNL     1       2.627   1.129  19.148  0.00  0.00    +0.000 C 
ATOM     17  C   UNL     1       2.995   1.873  17.858  0.00  0.00    +0.000 C 
ATOM     18  O   UNL     1       1.864   2.495  17.231  0.00  0.00    +0.000 OA
ATOM     19  C   UNL     1       1.124   3.335  18.125  0.00  0.00    +0.000 C 
ATOM     20  C   UNL     1       0.687   2.570  19.382  0.00  0.00    +0.000 C 
ENDBRANCH  12  15
ENDBRANCH   7  12
ENDBRANCH   2   5
BRANCH   1  26
ATOM     21  C   UNL     1       6.855   5.117  15.300  0.00  0.00    +0.000 A 
ATOM     22  C   UNL     1       7.538   5.084  14.070  0.00  0.00    +0.000 A 
ATOM     23  C   UNL     1       7.043   4.390  12.969  0.00  0.00    +0.000 A 
ATOM     24  C   UNL     1       5.820   3.724  13.052  0.00  0.00    +0.000 A 
ATOM     25  C   UNL     1       5.103   3.770  14.252  0.00  0.00    +0.000 A 
ATOM     26  C   UNL     1       5.597   4.486  15.357  0.00  0.00    +0.000 A 
BRANCH  21  27
ATOM     27  N   UNL     1       7.473   5.818  16.342  0.00  0.00    +0.000 N 
ATOM     28  H   UNL     1       7.136   6.776  16.405  0.00  0.00    +0.000 HD
BRANCH  27  30
ATOM     29  C   UNL     1       7.762   6.238  18.724  0.00  0.00    +0.000 C 
ATOM     30  C   UNL     1       7.697   5.179  17.633  0.00  0.00    +0.000 C 
ENDBRANCH  27  30
ENDBRANCH  21  27
BRANCH  24  31
ATOM     31  C   UNL     1       5.274   3.086  11.824  0.00  0.00    +0.000 C 
ATOM     32  O   UNL     1       5.663   2.005  11.403  0.00  0.00    +0.000 OA
BRANCH  31  33
ATOM     33  O   UNL     1       4.400   3.915  11.208  0.00  0.00    +0.000 OA
BRANCH  33  34
ATOM     34  C   UNL     1       3.320   3.260  10.523  0.00  0.00    +0.000 C 
ATOM     35  C   UNL     1       2.803   4.221   9.466  0.00  0.00    +0.000 C 
ENDBRANCH  33  34
ENDBRANCH  31  33
ENDBRANCH  24  31
ENDBRANCH   1  26
TORSDOF 9
ENDMDL
MODEL 5
REMARK VINA RESULT:      -8.0      2.920      8.378
REMARK  Name = 
REMARK  12 active torsions:
REMARK  status: ('A' for Active; 'I' for Inactive)
REMARK    1  A    between atoms: C_1  and  C_2
REMARK    2  A    between atoms: C_2  and  N_3
REMARK    3  A    between atoms: N_3  and  C_4
REMARK    4  A    between atoms: C_7  and  C_8
REMARK    5  A    between atoms: C_8  and  O_10
REMARK    6  A    between atoms: O_10  and  C_11
REMARK    7  A    between atoms: C_11  and  C_12
REMARK    8  A    between atoms: C_14  and  N_15
REMARK    9  A    between atoms: C_16  and  C_18
REMARK   10  A    between atoms: C_20  and  S_21
REMARK   11  A    between atoms: S_21  and  N_24
REMARK   12  A    between atoms: C_32  and  C_33
REMARK                            x       y       z     vdW  Elec       q    Type
REMARK                         _______ _______ _______ _____ _____    ______ ____
ROOT
ATOM      1  N   UNL     1       1.240  10.050  19.666  0.00  0.00    +0.000 N 
ATOM      2  C   UNL     1       1.679   9.119  18.751  0.00  0.00    +0.000 C 
ATOM      3  O   UNL     1       1.878   9.347  17.559  0.00  0.00    +0.000 OA
ATOM      4  H   UNL     1       1.462   9.915  20.646  0.00  0.00    +0.000 HD
ENDROOT
BRANCH   2   5
ATOM      5  C   UNL     1       2.023   7.771  19.269  0.00  0.00    +0.000 A 
ATOM      6  C   UNL     1       2.861   6.983  18.450  0.00  0.00    +0.000 A 
ATOM      7  C   UNL     1       3.147   5.667  18.811  0.00  0.00    +0.000 A 
ATOM      8  C   UNL     1       2.656   5.155  20.014  0.00  0.00    +0.000 A 
ATOM      9  C   UNL     1       1.830   5.934  20.826  0.00  0.00    +0.000 A 
ATOM     10  C   UNL     1       1.468   7.240  20.454  0.00  0.00    +0.000 A 
ATOM     11  C   UNL     1       0.428   7.942  21.288  0.00  0.00    +0.000 C 
BRANCH   7  12
ATOM     12  S   UNL     1       4.196   4.643  17.800  0.00  0.00    +0.000 S 
ATOM     13  O   UNL     1       4.980   3.835  18.710  0.00  0.00    +0.000 OA
ATOM     14  O   UNL     1       3.350   4.018  16.806  0.00  0.00    +0.000 OA
BRANCH  12  15
ATOM     15  N   UNL     1       5.267   5.684  16.976  0.00  0.00    +0.000 NA
ATOM     16  C   UNL     1       5.626   5.381  15.557  0.00  0.00    +0.000 C 
ATOM     17  C   UNL     1       6.676   4.269  15.436  0.00  0.00    +0.000 C 
ATOM     18  O   UNL     1       7.844   4.515  16.231  0.00  0.00    +0.000 OA
ATOM     19  C   UNL     1       7.535   4.794  17.602  0.00  0.00    +0.000 C 
ATOM     20  C   UNL     1       6.544   5.959  17.729  0.00  0.00    +0.000 C 
ENDBRANCH  12  15
ENDBRANCH   7  12
ENDBRANCH   2   5
BRANCH   1  26
ATOM     21  C   UNL     1      -0.545  11.473  18.775  0.00  0.00    +0.000 A 
ATOM     22  C   UNL     1      -0.874  12.723  18.218  0.00  0.00    +0.000 A 
ATOM     23  C   UNL     1       0.011  13.799  18.247  0.00  0.00    +0.000 A 
ATOM     24  C   UNL     1       1.277  13.651  18.813  0.00  0.00    +0.000 A 
ATOM     25  C   UNL     1       1.642  12.409  19.342  0.00  0.00    +0.000 A 
ATOM     26  C   UNL     1       0.754  11.320  19.297  0.00  0.00    +0.000 A 
BRANCH  21  27
ATOM     27  N   UNL     1      -1.532  10.482  18.716  0.00  0.00    +0.000 N 
ATOM     28  H   UNL     1      -2.305  10.680  19.347  0.00  0.00    +0.000 HD
BRANCH  27  30
ATOM     29  C   UNL     1      -3.439  10.084  17.254  0.00  0.00    +0.000 C 
ATOM     30  C   UNL     1      -1.938   9.917  17.435  0.00  0.00    +0.000 C 
ENDBRANCH  27  30
ENDBRANCH  21  27
BRANCH  24  31
ATOM     31  C   UNL     1       2.231  14.790  18.727  0.00  0.00    +0.000 C 
ATOM     32  O   UNL     1       1.931  15.877  18.252  0.00  0.00    +0.000 OA
BRANCH  31  33
ATOM     33  O   UNL     1       3.463  14.407  19.130  0.00  0.00    +0.000 OA
BRANCH  33  34
ATOM     34  C   UNL     1       4.503  15.374  18.908  0.00  0.00    +0.000 C 
ATOM     35  C   UNL     1       5.422  14.816  17.836  0.00  0.00    +0.000 C 
ENDBRANCH  33  34
ENDBRANCH  31  33
ENDBRANCH  24  31
ENDBRANCH   1  26
TORSDOF 9
ENDMDL
MODEL 6
REMARK VINA RESULT:      -7.9      2.874      8.635
REMARK  Name = 
REMARK  12 active torsions:
REMARK  status: ('A' for Active; 'I' for Inactive)
REMARK    1  A    between atoms: C_1  and  C_2
REMARK    2  A    between atoms: C_2  and  N_3
REMARK    3  A    between atoms: N_3  and  C_4
REMARK    4  A    between atoms: C_7  and  C_8
REMARK    5  A    between atoms: C_8  and  O_10
REMARK    6  A    between atoms: O_10  and  C_11
REMARK    7  A    between atoms: C_11  and  C_12
REMARK    8  A    between atoms: C_14  and  N_15
REMARK    9  A    between atoms: C_16  and  C_18
REMARK   10  A    between atoms: C_20  and  S_21
REMARK   11  A    between atoms: S_21  and  N_24
REMARK   12  A    between atoms: C_32  and  C_33
REMARK                            x       y       z     vdW  Elec       q    Type
REMARK                         _______ _______ _______ _____ _____    ______ ____
ROOT
ATOM      1  N   UNL     1       1.216  10.109  19.629  0.00  0.00    +0.000 N 
ATOM      2  C   UNL     1       1.675   9.179  18.721  0.00  0.00    +0.000 C 
ATOM      3  O   UNL     1       1.877   9.404  17.529  0.00  0.00    +0.000 OA
ATOM      4  H   UNL     1       1.434   9.982  20.610  0.00  0.00    +0.000 HD
ENDROOT
BRANCH   2   5
ATOM      5  C   UNL     1       2.036   7.840  19.249  0.00  0.00    +0.000 A 
ATOM      6  C   UNL     1       2.853   7.041  18.419  0.00  0.00    +0.000 A 
ATOM      7  C   UNL     1       3.151   5.731  18.791  0.00  0.00    +0.000 A 
ATOM      8  C   UNL     1       2.694   5.235  20.014  0.00  0.00    +0.000 A 
ATOM      9  C   UNL     1       1.889   6.025  20.837  0.00  0.00    +0.000 A 
ATOM     10  C   UNL     1       1.514   7.325  20.456  0.00  0.00    +0.000 A 
ATOM     11  C   UNL     1       0.495   8.037  21.308  0.00  0.00    +0.000 C 
BRANCH   7  12
ATOM     12  S   UNL     1       4.174   4.694  17.766  0.00  0.00    +0.000 S 
ATOM     13  O   UNL     1       4.959   3.876  18.666  0.00  0.00    +0.000 OA
ATOM     14  O   UNL     1       3.308   4.081  16.783  0.00  0.00    +0.000 OA
BRANCH  12  15
ATOM     15  N   UNL     1       5.247   5.722  16.930  0.00  0.00    +0.000 NA
ATOM     16  C   UNL     1       5.571   5.425  15.501  0.00  0.00    +0.000 C 
ATOM     17  C   UNL     1       6.596   4.294  15.347  0.00  0.00    +0.000 C 
ATOM     18  O   UNL     1       7.785   4.511  16.120  0.00  0.00    +0.000 OA
ATOM     19  C   UNL     1       7.510   4.783  17.500  0.00  0.00    +0.000 C 
ATOM     20  C   UNL     1       6.545   5.966  17.658  0.00  0.00    +0.000 C 
ENDBRANCH  12  15
ENDBRANCH   7  12
ENDBRANCH   2   5
BRANCH   1  26
ATOM     21  C   UNL     1      -0.610  11.511  18.788  0.00  0.00    +0.000 A 
ATOM     22  C   UNL     1      -0.964  12.746  18.214  0.00  0.00    +0.000 A 
ATOM     23  C   UNL     1      -0.079  13.820  18.170  0.00  0.00    +0.000 A 
ATOM     24  C   UNL     1       1.214  13.685  18.677  0.00  0.00    +0.000 A 
ATOM     25  C   UNL     1       1.604  12.458  19.221  0.00  0.00    +0.000 A 
ATOM     26  C   UNL     1       0.714  11.369  19.249  0.00  0.00    +0.000 A 
BRANCH  21  27
ATOM     27  N   UNL     1      -1.599  10.521  18.805  0.00  0.00    +0.000 N 
ATOM     28  H   UNL     1      -1.863  10.267  19.754  0.00  0.00    +0.000 HD
BRANCH  27  30
ATOM     29  C   UNL     1      -2.364   9.799  16.608  0.00  0.00    +0.000 C 
ATOM     30  C   UNL     1      -2.716  10.574  17.870  0.00  0.00    +0.000 C 
ENDBRANCH  27  30
ENDBRANCH  21  27
BRANCH  24  31
ATOM     31  C   UNL     1       2.163  14.819  18.513  0.00  0.00    +0.000 C 
ATOM     32  O   UNL     1       3.229  14.717  17.920  0.00  0.00    +0.000 OA
BRANCH  31  33
ATOM     33  O   UNL     1       1.731  15.902  19.197  0.00  0.00    +0.000 OA
BRANCH  33  34
ATOM     34  C   UNL     1       2.135  17.168  18.651  0.00  0.00    +0.000 C 
ATOM     35  C   UNL     1       1.020  17.644  17.734  0.00  0.00    +0.000 C 
ENDBRANCH  33  34
ENDBRANCH  31  33
ENDBRANCH  24  31
ENDBRANCH   1  26
TORSDOF 9
ENDMDL
MODEL 7
REMARK VINA RESULT:      -7.9      1.528      2.113
REMARK  Name = 
REMARK  12 active torsions:
REMARK  status: ('A' for Active; 'I' for Inactive)
REMARK    1  A    between atoms: C_1  and  C_2
REMARK    2  A    between atoms: C_2  and  N_3
REMARK    3  A    between atoms: N_3  and  C_4
REMARK    4  A    between atoms: C_7  and  C_8
REMARK    5  A    between atoms: C_8  and  O_10
REMARK    6  A    between atoms: O_10  and  C_11
REMARK    7  A    between atoms: C_11  and  C_12
REMARK    8  A    between atoms: C_14  and  N_15
REMARK    9  A    between atoms: C_16  and  C_18
REMARK   10  A    between atoms: C_20  and  S_21
REMARK   11  A    between atoms: S_21  and  N_24
REMARK   12  A    between atoms: C_32  and  C_33
REMARK                            x       y       z     vdW  Elec       q    Type
REMARK                         _______ _______ _______ _____ _____    ______ ____
ROOT
ATOM      1  N   UNL     1       2.242   7.944  19.309  0.00  0.00    +0.000 N 
ATOM      2  C   UNL     1       1.482   8.886  18.651  0.00  0.00    +0.000 C 
ATOM      3  O   UNL     1       1.092   8.785  17.489  0.00  0.00    +0.000 OA
ATOM      4  H   UNL     1       2.198   7.902  20.321  0.00  0.00    +0.000 HD
ENDROOT
BRANCH   2   5
ATOM      5  C   UNL     1       1.029  10.060  19.438  0.00  0.00    +0.000 A 
ATOM      6  C   UNL     1       1.354  11.329  18.909  0.00  0.00    +0.000 A 
ATOM      7  C   UNL     1       1.059  12.481  19.637  0.00  0.00    +0.000 A 
ATOM      8  C   UNL     1       0.386  12.379  20.857  0.00  0.00    +0.000 A 
ATOM      9  C   UNL     1       0.062  11.125  21.379  0.00  0.00    +0.000 A 
ATOM     10  C   UNL     1       0.409   9.944  20.702  0.00  0.00    +0.000 A 
ATOM     11  C   UNL     1       0.192   8.637  21.419  0.00  0.00    +0.000 C 
BRANCH   7  12
ATOM     12  S   UNL     1       1.458  14.096  19.002  0.00  0.00    +0.000 S 
ATOM     13  O   UNL     1       2.430  13.894  17.949  0.00  0.00    +0.000 OA
ATOM     14  O   UNL     1       0.205  14.767  18.728  0.00  0.00    +0.000 OA
BRANCH  12  15
ATOM     15  N   UNL     1       2.228  14.951  20.262  0.00  0.00    +0.000 NA
ATOM     16  C   UNL     1       1.590  16.195  20.790  0.00  0.00    +0.000 C 
ATOM     17  C   UNL     1       1.816  17.410  19.880  0.00  0.00    +0.000 C 
ATOM     18  O   UNL     1       3.200  17.622  19.567  0.00  0.00    +0.000 OA
ATOM     19  C   UNL     1       3.838  16.451  19.043  0.00  0.00    +0.000 C 
ATOM     20  C   UNL     1       3.680  15.254  19.990  0.00  0.00    +0.000 C 
ENDBRANCH  12  15
ENDBRANCH   7  12
ENDBRANCH   2   5
BRANCH   1  26
ATOM     21  C   UNL     1       2.553   5.529  19.033  0.00  0.00    +0.000 A 
ATOM     22  C   UNL     1       3.363   4.510  18.498  0.00  0.00    +0.000 A 
ATOM     23  C   UNL     1       4.366   4.776  17.569  0.00  0.00    +0.000 A 
ATOM     24  C   UNL     1       4.616   6.087  17.162  0.00  0.00    +0.000 A 
ATOM     25  C   UNL     1       3.850   7.123  17.705  0.00  0.00    +0.000 A 
ATOM     26  C   UNL     1       2.848   6.853  18.656  0.00  0.00    +0.000 A 
BRANCH  21  27
ATOM     27  N   UNL     1       1.555   5.131  19.930  0.00  0.00    +0.000 N 
ATOM     28  H   UNL     1       0.843   5.848  20.046  0.00  0.00    +0.000 HD
BRANCH  27  30
ATOM     29  C   UNL     1       1.382   3.058  21.197  0.00  0.00    +0.000 C 
ATOM     30  C   UNL     1       1.032   3.770  19.899  0.00  0.00    +0.000 C 
ENDBRANCH  27  30
ENDBRANCH  21  27
BRANCH  24  31
ATOM     31  C   UNL     1       5.766   6.341  16.253  0.00  0.00    +0.000 C 
ATOM     32  O   UNL     1       6.706   7.065  16.552  0.00  0.00    +0.000 OA
BRANCH  31  33
ATOM     33  O   UNL     1       5.555   5.763  15.049  0.00  0.00    +0.000 OA
BRANCH  33  34
ATOM     34  C   UNL     1       6.612   4.902  14.594  0.00  0.00    +0.000 C 
ATOM     35  C   UNL     1       5.994   3.882  13.653  0.00  0.00    +0.000 C 
ENDBRANCH  33  34
ENDBRANCH  31  33
ENDBRANCH  24  31
ENDBRANCH   1  26
TORSDOF 9
ENDMDL
MODEL 8
REMARK VINA RESULT:      -7.8      1.468      2.007
REMARK  Name = 
REMARK  12 active torsions:
REMARK  status: ('A' for Active; 'I' for Inactive)
REMARK    1  A    between atoms: C_1  and  C_2
REMARK    2  A    between atoms: C_2  and  N_3
REMARK    3  A    between atoms: N_3  and  C_4
REMARK    4  A    between atoms: C_7  and  C_8
REMARK    5  A    between atoms: C_8  and  O_10
REMARK    6  A    between atoms: O_10  and  C_11
REMARK    7  A    between atoms: C_11  and  C_12
REMARK    8  A    between atoms: C_14  and  N_15
REMARK    9  A    between atoms: C_16  and  C_18
REMARK   10  A    between atoms: C_20  and  S_21
REMARK   11  A    between atoms: S_21  and  N_24
REMARK   12  A    between atoms: C_32  and  C_33
REMARK                            x       y       z     vdW  Elec       q    Type
REMARK                         _______ _______ _______ _____ _____    ______ ____
ROOT
ATOM      1  N   UNL     1       2.533   6.945  18.933  0.00  0.00    +0.000 N 
ATOM      2  C   UNL     1       2.055   8.181  18.558  0.00  0.00    +0.000 C 
ATOM      3  O   UNL     1       2.029   8.601  17.402  0.00  0.00    +0.000 OA
ATOM      4  H   UNL     1       2.184   6.525  19.788  0.00  0.00    +0.000 HD
ENDROOT
BRANCH   2   5
ATOM      5  C   UNL     1       1.445   9.021  19.618  0.00  0.00    +0.000 A 
ATOM      6  C   UNL     1       1.543  10.419  19.440  0.00  0.00    +0.000 A 
ATOM      7  C   UNL     1       1.090  11.280  20.439  0.00  0.00    +0.000 A 
ATOM      8  C   UNL     1       0.484  10.757  21.584  0.00  0.00    +0.000 A 
ATOM      9  C   UNL     1       0.384   9.376  21.759  0.00  0.00    +0.000 A 
ATOM     10  C   UNL     1       0.894   8.483  20.802  0.00  0.00    +0.000 A 
ATOM     11  C   UNL     1       0.915   7.018  21.153  0.00  0.00    +0.000 C 
BRANCH   7  12
ATOM     12  S   UNL     1       1.202  13.047  20.250  0.00  0.00    +0.000 S 
ATOM     13  O   UNL     1       0.963  13.615  21.560  0.00  0.00    +0.000 OA
ATOM     14  O   UNL     1       2.435  13.322  19.544  0.00  0.00    +0.000 OA
BRANCH  12  15
ATOM     15  N   UNL     1      -0.084  13.524  19.236  0.00  0.00    +0.000 NA
ATOM     16  C   UNL     1      -0.264  14.975  18.926  0.00  0.00    +0.000 C 
ATOM     17  C   UNL     1      -0.932  15.747  20.070  0.00  0.00    +0.000 C 
ATOM     18  O   UNL     1      -2.161  15.148  20.505  0.00  0.00    +0.000 OA
ATOM     19  C   UNL     1      -2.019  13.758  20.825  0.00  0.00    +0.000 C 
ATOM     20  C   UNL     1      -1.422  12.969  19.652  0.00  0.00    +0.000 C 
ENDBRANCH  12  15
ENDBRANCH   7  12
ENDBRANCH   2   5
BRANCH   1  26
ATOM     21  C   UNL     1       2.756   4.834  17.708  0.00  0.00    +0.000 A 
ATOM     22  C   UNL     1       3.629   3.966  17.028  0.00  0.00    +0.000 A 
ATOM     23  C   UNL     1       4.909   4.359  16.643  0.00  0.00    +0.000 A 
ATOM     24  C   UNL     1       5.374   5.637  16.954  0.00  0.00    +0.000 A 
ATOM     25  C   UNL     1       4.539   6.508  17.660  0.00  0.00    +0.000 A 
ATOM     26  C   UNL     1       3.253   6.103  18.063  0.00  0.00    +0.000 A 
BRANCH  21  27
ATOM     27  N   UNL     1       1.483   4.334  18.009  0.00  0.00    +0.000 N 
ATOM     28  H   UNL     1       0.831   4.475  17.241  0.00  0.00    +0.000 HD
BRANCH  27  30
ATOM     29  C   UNL     1       0.914   3.292  20.136  0.00  0.00    +0.000 C 
ATOM     30  C   UNL     1       1.333   3.055  18.692  0.00  0.00    +0.000 C 
ENDBRANCH  27  30
ENDBRANCH  21  27
BRANCH  24  31
ATOM     31  C   UNL     1       6.782   5.980  16.622  0.00  0.00    +0.000 C 
ATOM     32  O   UNL     1       7.609   5.147  16.274  0.00  0.00    +0.000 OA
BRANCH  31  33
ATOM     33  O   UNL     1       7.023   7.287  16.872  0.00  0.00    +0.000 OA
BRANCH  33  34
ATOM     34  C   UNL     1       7.920   7.543  17.965  0.00  0.00    +0.000 C 
ATOM     35  C   UNL     1       8.210   9.034  17.976  0.00  0.00    +0.000 C 
ENDBRANCH  33  34
ENDBRANCH  31  33
ENDBRANCH  24  31
ENDBRANCH   1  26
TORSDOF 9
ENDMDL
MODEL 9
REMARK VINA RESULT:      -7.8      1.639      2.048
REMARK  Name = 
REMARK  12 active torsions:
REMARK  status: ('A' for Active; 'I' for Inactive)
REMARK    1  A    between atoms: C_1  and  C_2
REMARK    2  A    between atoms: C_2  and  N_3
REMARK    3  A    between atoms: N_3  and  C_4
REMARK    4  A    between atoms: C_7  and  C_8
REMARK    5  A    between atoms: C_8  and  O_10
REMARK    6  A    between atoms: O_10  and  C_11
REMARK    7  A    between atoms: C_11  and  C_12
REMARK    8  A    between atoms: C_14  and  N_15
REMARK    9  A    between atoms: C_16  and  C_18
REMARK   10  A    between atoms: C_20  and  S_21
REMARK   11  A    between atoms: S_21  and  N_24
REMARK   12  A    between atoms: C_32  and  C_33
REMARK                            x       y       z     vdW  Elec       q    Type
REMARK                         _______ _______ _______ _____ _____    ______ ____
ROOT
ATOM      1  N   UNL     1       2.072   7.959  19.569  0.00  0.00    +0.000 N 
ATOM      2  C   UNL     1       1.355   8.948  18.931  0.00  0.00    +0.000 C 
ATOM      3  O   UNL     1       0.982   8.899  17.760  0.00  0.00    +0.000 OA
ATOM      4  H   UNL     1       2.010   7.884  20.578  0.00  0.00    +0.000 HD
ENDROOT
BRANCH   2   5
ATOM      5  C   UNL     1       0.926  10.108  19.751  0.00  0.00    +0.000 A 
ATOM      6  C   UNL     1       1.430  11.368  19.359  0.00  0.00    +0.000 A 
ATOM      7  C   UNL     1       1.163  12.495  20.135  0.00  0.00    +0.000 A 
ATOM      8  C   UNL     1       0.344  12.384  21.262  0.00  0.00    +0.000 A 
ATOM      9  C   UNL     1      -0.156  11.139  21.648  0.00  0.00    +0.000 A 
ATOM     10  C   UNL     1       0.153   9.975  20.925  0.00  0.00    +0.000 A 
ATOM     11  C   UNL     1      -0.269   8.653  21.512  0.00  0.00    +0.000 C 
BRANCH   7  12
ATOM     12  S   UNL     1       1.785  14.099  19.675  0.00  0.00    +0.000 S 
ATOM     13  O   UNL     1       2.874  14.392  20.583  0.00  0.00    +0.000 OA
ATOM     14  O   UNL     1       2.008  14.074  18.245  0.00  0.00    +0.000 OA
BRANCH  12  15
ATOM     15  N   UNL     1       0.540  15.224  19.977  0.00  0.00    +0.000 NA
ATOM     16  C   UNL     1      -0.103  15.923  18.822  0.00  0.00    +0.000 C 
ATOM     17  C   UNL     1       0.751  17.074  18.277  0.00  0.00    +0.000 C 
ATOM     18  O   UNL     1       1.152  18.002  19.294  0.00  0.00    +0.000 OA
ATOM     19  C   UNL     1       1.786  17.365  20.410  0.00  0.00    +0.000 C 
ATOM     20  C   UNL     1       0.899  16.264  21.008  0.00  0.00    +0.000 C 
ENDBRANCH  12  15
ENDBRANCH   7  12
ENDBRANCH   2   5
BRANCH   1  26
ATOM     21  C   UNL     1       2.472   5.552  19.343  0.00  0.00    +0.000 A 
ATOM     22  C   UNL     1       3.266   4.551  18.754  0.00  0.00    +0.000 A 
ATOM     23  C   UNL     1       4.142   4.825  17.706  0.00  0.00    +0.000 A 
ATOM     24  C   UNL     1       4.277   6.128  17.227  0.00  0.00    +0.000 A 
ATOM     25  C   UNL     1       3.526   7.149  17.818  0.00  0.00    +0.000 A 
ATOM     26  C   UNL     1       2.655   6.872  18.888  0.00  0.00    +0.000 A 
BRANCH  21  27
ATOM     27  N   UNL     1       1.605   5.145  20.363  0.00  0.00    +0.000 N 
ATOM     28  H   UNL     1       1.003   5.904  20.673  0.00  0.00    +0.000 HD
BRANCH  27  30
ATOM     29  C   UNL     1       1.421   2.969  21.443  0.00  0.00    +0.000 C 
ATOM     30  C   UNL     1       0.942   3.848  20.297  0.00  0.00    +0.000 C 
ENDBRANCH  27  30
ENDBRANCH  21  27
BRANCH  24  31
ATOM     31  C   UNL     1       5.301   6.398  16.182  0.00  0.00    +0.000 C 
ATOM     32  O   UNL     1       5.393   5.744  15.152  0.00  0.00    +0.000 OA
BRANCH  31  33
ATOM     33  O   UNL     1       6.153   7.365  16.592  0.00  0.00    +0.000 OA
BRANCH  33  34
ATOM     34  C   UNL     1       7.256   6.906  17.390  0.00  0.00    +0.000 C 
ATOM     35  C   UNL     1       8.008   8.134  17.876  0.00  0.00    +0.000 C 
ENDBRANCH  33  34
ENDBRANCH  31  33
ENDBRANCH  24  31
ENDBRANCH   1  26
TORSDOF 9
ENDMDL
