MODEL 1
REMARK VINA RESULT:      -6.7      0.000      0.000
REMARK  Name = 
REMARK  15 active torsions:
REMARK  status: ('A' for Active; 'I' for Inactive)
REMARK    1  A    between atoms: C_1  and  C_2
REMARK    2  A    between atoms: C_2  and  C_3
REMARK    3  A    between atoms: C_3  and  C_4
REMARK    4  A    between atoms: C_4  and  C_5
REMARK    5  A    between atoms: C_5  and  C_6
REMARK    6  A    between atoms: C_6  and  O_7
REMARK    7  A    between atoms: C_6  and  C_8
REMARK    8  A    between atoms: C_8  and  C_9
REMARK    9  A    between atoms: C_9  and  O_10
REMARK   10  A    between atoms: C_9  and  C_11
REMARK   11  A    between atoms: C_11  and  C_12
REMARK   12  A    between atoms: C_12  and  C_13
REMARK   13  A    between atoms: C_16  and  O_17
REMARK   14  A    between atoms: C_18  and  O_19
REMARK   15  A    between atoms: O_19  and  C_20
REMARK                            x       y       z     vdW  Elec       q    Type
REMARK                         _______ _______ _______ _____ _____    ______ ____
ROOT
ATOM      1  C   UNL     1       5.982   6.917  17.698  0.00  0.00    +0.000 C 
ENDROOT
BRANCH   1   2
ATOM      2  O   UNL     1       6.875   7.593  16.814  0.00  0.00    +0.000 OA
ATOM      3  H   UNL     1       7.450   8.159  17.370  0.00  0.00    +0.000 HD
ENDBRANCH   1   2
BRANCH   1   4
ATOM      4  C   UNL     1       6.608   5.586  18.163  0.00  0.00    +0.000 C 
BRANCH   4   5
ATOM      5  C   UNL     1       7.409   4.856  17.072  0.00  0.00    +0.000 C 
BRANCH   5   6
ATOM      6  O   UNL     1       8.333   3.963  17.712  0.00  0.00    +0.000 OA
ATOM      7  H   UNL     1       9.233   4.268  17.486  0.00  0.00    +0.000 HD
ENDBRANCH   5   6
BRANCH   5   8
ATOM      8  C   UNL     1       6.557   4.041  16.092  0.00  0.00    +0.000 C 
BRANCH   8   9
ATOM      9  C   UNL     1       6.621   4.439  14.616  0.00  0.00    +0.000 C 
BRANCH   9  10
ATOM     10  C   UNL     1       5.582   3.787  13.699  0.00  0.00    +0.000 C 
BRANCH  10  12
ATOM     11  C   UNL     1       7.337   4.434  11.961  0.00  0.00    +0.000 C 
ATOM     12  C   UNL     1       6.226   3.471  12.342  0.00  0.00    +0.000 C 
ENDBRANCH  10  12
ENDBRANCH   9  10
ENDBRANCH   8   9
ENDBRANCH   5   8
ENDBRANCH   4   5
ENDBRANCH   1   4
BRANCH   1  13
ATOM     13  C   UNL     1       4.614   6.794  17.012  0.00  0.00    +0.000 C 
BRANCH  13  14
ATOM     14  C   UNL     1       3.466   6.714  18.015  0.00  0.00    +0.000 C 
BRANCH  14  15
ATOM     15  C   UNL     1       2.933   5.317  18.178  0.00  0.00    +0.000 A 
ATOM     16  C   UNL     1       3.190   4.342  17.211  0.00  0.00    +0.000 A 
ATOM     17  C   UNL     1       2.651   3.061  17.345  0.00  0.00    +0.000 A 
ATOM     18  C   UNL     1       1.854   2.745  18.451  0.00  0.00    +0.000 A 
ATOM     19  C   UNL     1       1.614   3.691  19.451  0.00  0.00    +0.000 A 
ATOM     20  C   UNL     1       2.163   4.970  19.302  0.00  0.00    +0.000 A 
BRANCH  18  21
ATOM     21  O   UNL     1       1.328   1.482  18.520  0.00  0.00    +0.000 OA
ATOM     22  H   UNL     1       1.953   0.906  18.988  0.00  0.00    +0.000 HD
ENDBRANCH  18  21
BRANCH  19  23
ATOM     23  O   UNL     1       0.886   3.558  20.602  0.00  0.00    +0.000 OA
ATOM     24  C   UNL     1       1.432   2.774  21.652  0.00  0.00    +0.000 C 
ENDBRANCH  19  23
ENDBRANCH  14  15
ENDBRANCH  13  14
ENDBRANCH   1  13
TORSDOF 13
ENDMDL
MODEL 2
REMARK VINA RESULT:      -6.6      1.638      2.697
REMARK  Name = 
REMARK  15 active torsions:
REMARK  status: ('A' for Active; 'I' for Inactive)
REMARK    1  A    between atoms: C_1  and  C_2
REMARK    2  A    between atoms: C_2  and  C_3
REMARK    3  A    between atoms: C_3  and  C_4
REMARK    4  A    between atoms: C_4  and  C_5
REMARK    5  A    between atoms: C_5  and  C_6
REMARK    6  A    between atoms: C_6  and  O_7
REMARK    7  A    between atoms: C_6  and  C_8
REMARK    8  A    between atoms: C_8  and  C_9
REMARK    9  A    between atoms: C_9  and  O_10
REMARK   10  A    between atoms: C_9  and  C_11
REMARK   11  A    between atoms: C_11  and  C_12
REMARK   12  A    between atoms: C_12  and  C_13
REMARK   13  A    between atoms: C_16  and  O_17
REMARK   14  A    between atoms: C_18  and  O_19
REMARK   15  A    between atoms: O_19  and  C_20
REMARK                            x       y       z     vdW  Elec       q    Type
REMARK                         _______ _______ _______ _____ _____    ______ ____
ROOT
ATOM      1  C   UNL     1       6.534   5.589  16.845  0.00  0.00    +0.000 C 
ENDROOT
BRANCH   1   2
ATOM      2  O   UNL     1       7.041   6.923  16.858  0.00  0.00    +0.000 OA
ATOM      3  H   UNL     1       7.197   7.158  17.796  0.00  0.00    +0.000 HD
ENDBRANCH   1   2
BRANCH   1   4
ATOM      4  C   UNL     1       5.604   5.391  15.630  0.00  0.00    +0.000 C 
BRANCH   4   5
ATOM      5  C   UNL     1       6.345   5.090  14.316  0.00  0.00    +0.000 C 
BRANCH   5   6
ATOM      6  O   UNL     1       7.752   5.257  14.545  0.00  0.00    +0.000 OA
ATOM      7  H   UNL     1       7.934   4.953  15.455  0.00  0.00    +0.000 HD
ENDBRANCH   5   6
BRANCH   5   8
ATOM      8  C   UNL     1       6.114   3.679  13.762  0.00  0.00    +0.000 C 
BRANCH   8   9
ATOM      9  C   UNL     1       6.351   3.473  12.265  0.00  0.00    +0.000 C 
BRANCH   9  10
ATOM     10  C   UNL     1       5.288   2.656  11.525  0.00  0.00    +0.000 C 
BRANCH  10  12
ATOM     11  C   UNL     1       3.299   3.500  10.164  0.00  0.00    +0.000 C 
ATOM     12  C   UNL     1       3.959   3.423  11.530  0.00  0.00    +0.000 C 
ENDBRANCH  10  12
ENDBRANCH   9  10
ENDBRANCH   8   9
ENDBRANCH   5   8
ENDBRANCH   4   5
ENDBRANCH   1   4
BRANCH   1  13
ATOM     13  C   UNL     1       5.898   5.295  18.211  0.00  0.00    +0.000 C 
BRANCH  13  14
ATOM     14  C   UNL     1       4.623   6.102  18.444  0.00  0.00    +0.000 C 
BRANCH  14  15
ATOM     15  C   UNL     1       3.517   5.280  19.046  0.00  0.00    +0.000 A 
ATOM     16  C   UNL     1       2.563   5.874  19.877  0.00  0.00    +0.000 A 
ATOM     17  C   UNL     1       1.568   5.096  20.471  0.00  0.00    +0.000 A 
ATOM     18  C   UNL     1       1.516   3.718  20.233  0.00  0.00    +0.000 A 
ATOM     19  C   UNL     1       2.435   3.107  19.376  0.00  0.00    +0.000 A 
ATOM     20  C   UNL     1       3.426   3.902  18.787  0.00  0.00    +0.000 A 
BRANCH  18  21
ATOM     21  O   UNL     1       0.535   2.997  20.862  0.00  0.00    +0.000 OA
ATOM     22  H   UNL     1      -0.278   3.526  20.886  0.00  0.00    +0.000 HD
ENDBRANCH  18  21
BRANCH  19  23
ATOM     23  O   UNL     1       2.525   1.791  19.011  0.00  0.00    +0.000 OA
ATOM     24  C   UNL     1       3.672   1.376  18.284  0.00  0.00    +0.000 C 
ENDBRANCH  19  23
ENDBRANCH  14  15
ENDBRANCH  13  14
ENDBRANCH   1  13
TORSDOF 13
ENDMDL
MODEL 3
REMARK VINA RESULT:      -6.6      1.036      2.061
REMARK  Name = 
REMARK  15 active torsions:
REMARK  status: ('A' for Active; 'I' for Inactive)
REMARK    1  A    between atoms: C_1  and  C_2
REMARK    2  A    between atoms: C_2  and  C_3
REMARK    3  A    between atoms: C_3  and  C_4
REMARK    4  A    between atoms: C_4  and  C_5
REMARK    5  A    between atoms: C_5  and  C_6
REMARK    6  A    between atoms: C_6  and  O_7
REMARK    7  A    between atoms: C_6  and  C_8
REMARK    8  A    between atoms: C_8  and  C_9
REMARK    9  A    between atoms: C_9  and  O_10
REMARK   10  A    between atoms: C_9  and  C_11
REMARK   11  A    between atoms: C_11  and  C_12
REMARK   12  A    between atoms: C_12  and  C_13
REMARK   13  A    between atoms: C_16  and  O_17
REMARK   14  A    between atoms: C_18  and  O_19
REMARK   15  A    between atoms: O_19  and  C_20
REMARK                            x       y       z     vdW  Elec       q    Type
REMARK                         _______ _______ _______ _____ _____    ______ ____
ROOT
ATOM      1  C   UNL     1       5.717   6.891  17.568  0.00  0.00    +0.000 C 
ENDROOT
BRANCH   1   2
ATOM      2  O   UNL     1       6.632   7.645  16.774  0.00  0.00    +0.000 OA
ATOM      3  H   UNL     1       7.059   8.293  17.372  0.00  0.00    +0.000 HD
ENDBRANCH   1   2
BRANCH   1   4
ATOM      4  C   UNL     1       6.291   5.485  17.841  0.00  0.00    +0.000 C 
BRANCH   4   5
ATOM      5  C   UNL     1       6.888   4.800  16.600  0.00  0.00    +0.000 C 
BRANCH   5   6
ATOM      6  O   UNL     1       8.035   4.042  17.012  0.00  0.00    +0.000 OA
ATOM      7  H   UNL     1       7.900   3.800  17.949  0.00  0.00    +0.000 HD
ENDBRANCH   5   6
BRANCH   5   8
ATOM      8  C   UNL     1       5.927   3.855  15.870  0.00  0.00    +0.000 C 
BRANCH   8   9
ATOM      9  C   UNL     1       5.569   4.206  14.425  0.00  0.00    +0.000 C 
BRANCH   9  10
ATOM     10  C   UNL     1       6.386   3.497  13.340  0.00  0.00    +0.000 C 
BRANCH  10  12
ATOM     11  C   UNL     1       4.494   3.183  11.655  0.00  0.00    +0.000 C 
ATOM     12  C   UNL     1       5.821   3.856  11.959  0.00  0.00    +0.000 C 
ENDBRANCH  10  12
ENDBRANCH   9  10
ENDBRANCH   8   9
ENDBRANCH   5   8
ENDBRANCH   4   5
ENDBRANCH   1   4
BRANCH   1  13
ATOM     13  C   UNL     1       4.342   6.915  16.886  0.00  0.00    +0.000 C 
BRANCH  13  14
ATOM     14  C   UNL     1       3.246   7.447  17.807  0.00  0.00    +0.000 C 
BRANCH  14  15
ATOM     15  C   UNL     1       2.561   6.358  18.586  0.00  0.00    +0.000 A 
ATOM     16  C   UNL     1       2.234   6.545  19.931  0.00  0.00    +0.000 A 
ATOM     17  C   UNL     1       1.643   5.511  20.660  0.00  0.00    +0.000 A 
ATOM     18  C   UNL     1       1.370   4.284  20.046  0.00  0.00    +0.000 A 
ATOM     19  C   UNL     1       1.652   4.085  18.692  0.00  0.00    +0.000 A 
ATOM     20  C   UNL     1       2.244   5.132  17.975  0.00  0.00    +0.000 A 
BRANCH  18  21
ATOM     21  O   UNL     1       0.813   3.295  20.814  0.00  0.00    +0.000 OA
ATOM     22  H   UNL     1      -0.029   3.024  20.416  0.00  0.00    +0.000 HD
ENDBRANCH  18  21
BRANCH  19  23
ATOM     23  O   UNL     1       1.437   2.972  17.925  0.00  0.00    +0.000 OA
ATOM     24  C   UNL     1       2.535   2.104  17.684  0.00  0.00    +0.000 C 
ENDBRANCH  19  23
ENDBRANCH  14  15
ENDBRANCH  13  14
ENDBRANCH   1  13
TORSDOF 13
ENDMDL
MODEL 4
REMARK VINA RESULT:      -6.5      1.642      6.750
REMARK  Name = 
REMARK  15 active torsions:
REMARK  status: ('A' for Active; 'I' for Inactive)
REMARK    1  A    between atoms: C_1  and  C_2
REMARK    2  A    between atoms: C_2  and  C_3
REMARK    3  A    between atoms: C_3  and  C_4
REMARK    4  A    between atoms: C_4  and  C_5
REMARK    5  A    between atoms: C_5  and  C_6
REMARK    6  A    between atoms: C_6  and  O_7
REMARK    7  A    between atoms: C_6  and  C_8
REMARK    8  A    between atoms: C_8  and  C_9
REMARK    9  A    between atoms: C_9  and  O_10
REMARK   10  A    between atoms: C_9  and  C_11
REMARK   11  A    between atoms: C_11  and  C_12
REMARK   12  A    between atoms: C_12  and  C_13
REMARK   13  A    between atoms: C_16  and  O_17
REMARK   14  A    between atoms: C_18  and  O_19
REMARK   15  A    between atoms: O_19  and  C_20
REMARK                            x       y       z     vdW  Elec       q    Type
REMARK                         _______ _______ _______ _____ _____    ______ ____
ROOT
ATOM      1  C   UNL     1       1.722   2.266  18.502  0.00  0.00    +0.000 C 
ENDROOT
BRANCH   1   2
ATOM      2  O   UNL     1       0.296   2.322  18.456  0.00  0.00    +0.000 OA
ATOM      3  H   UNL     1       0.055   2.689  17.580  0.00  0.00    +0.000 HD
ENDBRANCH   1   2
BRANCH   1   4
ATOM      4  C   UNL     1       2.203   2.313  19.967  0.00  0.00    +0.000 C 
BRANCH   4   5
ATOM      5  C   UNL     1       1.257   3.070  20.914  0.00  0.00    +0.000 C 
BRANCH   5   6
ATOM      6  O   UNL     1       1.776   2.965  22.248  0.00  0.00    +0.000 OA
ATOM      7  H   UNL     1       1.035   3.139  22.860  0.00  0.00    +0.000 HD
ENDBRANCH   5   6
BRANCH   5   8
ATOM      8  C   UNL     1       1.082   4.557  20.585  0.00  0.00    +0.000 C 
BRANCH   8   9
ATOM      9  C   UNL     1       2.351   5.408  20.513  0.00  0.00    +0.000 C 
BRANCH   9  10
ATOM     10  C   UNL     1       2.165   6.851  20.035  0.00  0.00    +0.000 C 
BRANCH  10  12
ATOM     11  C   UNL     1       2.250   8.281  17.921  0.00  0.00    +0.000 C 
ATOM     12  C   UNL     1       2.650   6.975  18.584  0.00  0.00    +0.000 C 
ENDBRANCH  10  12
ENDBRANCH   9  10
ENDBRANCH   8   9
ENDBRANCH   5   8
ENDBRANCH   4   5
ENDBRANCH   1   4
BRANCH   1  13
ATOM     13  C   UNL     1       2.283   3.368  17.593  0.00  0.00    +0.000 C 
BRANCH  13  14
ATOM     14  C   UNL     1       3.602   2.964  16.937  0.00  0.00    +0.000 C 
BRANCH  14  15
ATOM     15  C   UNL     1       4.735   3.888  17.292  0.00  0.00    +0.000 A 
ATOM     16  C   UNL     1       4.965   4.251  18.621  0.00  0.00    +0.000 A 
ATOM     17  C   UNL     1       5.987   5.147  18.937  0.00  0.00    +0.000 A 
ATOM     18  C   UNL     1       6.792   5.683  17.925  0.00  0.00    +0.000 A 
ATOM     19  C   UNL     1       6.606   5.306  16.592  0.00  0.00    +0.000 A 
ATOM     20  C   UNL     1       5.577   4.405  16.292  0.00  0.00    +0.000 A 
BRANCH  18  21
ATOM     21  O   UNL     1       7.763   6.578  18.286  0.00  0.00    +0.000 OA
ATOM     22  H   UNL     1       7.352   7.444  18.441  0.00  0.00    +0.000 HD
ENDBRANCH  18  21
BRANCH  19  23
ATOM     23  O   UNL     1       7.301   5.705  15.483  0.00  0.00    +0.000 OA
ATOM     24  C   UNL     1       7.163   4.938  14.296  0.00  0.00    +0.000 C 
ENDBRANCH  19  23
ENDBRANCH  14  15
ENDBRANCH  13  14
ENDBRANCH   1  13
TORSDOF 13
ENDMDL
MODEL 5
REMARK VINA RESULT:      -6.4      1.716      6.712
REMARK  Name = 
REMARK  15 active torsions:
REMARK  status: ('A' for Active; 'I' for Inactive)
REMARK    1  A    between atoms: C_1  and  C_2
REMARK    2  A    between atoms: C_2  and  C_3
REMARK    3  A    between atoms: C_3  and  C_4
REMARK    4  A    between atoms: C_4  and  C_5
REMARK    5  A    between atoms: C_5  and  C_6
REMARK    6  A    between atoms: C_6  and  O_7
REMARK    7  A    between atoms: C_6  and  C_8
REMARK    8  A    between atoms: C_8  and  C_9
REMARK    9  A    between atoms: C_9  and  O_10
REMARK   10  A    between atoms: C_9  and  C_11
REMARK   11  A    between atoms: C_11  and  C_12
REMARK   12  A    between atoms: C_12  and  C_13
REMARK   13  A    between atoms: C_16  and  O_17
REMARK   14  A    between atoms: C_18  and  O_19
REMARK   15  A    between atoms: O_19  and  C_20
REMARK                            x       y       z     vdW  Elec       q    Type
REMARK                         _______ _______ _______ _____ _____    ______ ____
ROOT
ATOM      1  C   UNL     1       1.805   2.410  18.266  0.00  0.00    +0.000 C 
ENDROOT
BRANCH   1   2
ATOM      2  O   UNL     1       0.741   3.344  18.082  0.00  0.00    +0.000 OA
ATOM      3  H   UNL     1       1.059   4.206  18.422  0.00  0.00    +0.000 HD
ENDBRANCH   1   2
BRANCH   1   4
ATOM      4  C   UNL     1       2.204   2.353  19.756  0.00  0.00    +0.000 C 
BRANCH   4   5
ATOM      5  C   UNL     1       1.402   3.308  20.656  0.00  0.00    +0.000 C 
BRANCH   5   6
ATOM      6  O   UNL     1       1.040   2.602  21.852  0.00  0.00    +0.000 OA
ATOM      7  H   UNL     1       0.064   2.608  21.906  0.00  0.00    +0.000 HD
ENDBRANCH   5   6
BRANCH   5   8
ATOM      8  C   UNL     1       2.153   4.582  21.062  0.00  0.00    +0.000 C 
BRANCH   8   9
ATOM      9  C   UNL     1       1.659   5.901  20.464  0.00  0.00    +0.000 C 
BRANCH   9  10
ATOM     10  C   UNL     1       2.594   6.570  19.452  0.00  0.00    +0.000 C 
BRANCH  10  12
ATOM     11  C   UNL     1       2.037   8.406  17.767  0.00  0.00    +0.000 C 
ATOM     12  C   UNL     1       2.151   8.023  19.232  0.00  0.00    +0.000 C 
ENDBRANCH  10  12
ENDBRANCH   9  10
ENDBRANCH   8   9
ENDBRANCH   5   8
ENDBRANCH   4   5
ENDBRANCH   1   4
BRANCH   1  13
ATOM     13  C   UNL     1       2.941   2.766  17.297  0.00  0.00    +0.000 C 
BRANCH  13  14
ATOM     14  C   UNL     1       4.041   3.585  17.968  0.00  0.00    +0.000 C 
BRANCH  14  15
ATOM     15  C   UNL     1       5.041   4.131  16.986  0.00  0.00    +0.000 A 
ATOM     16  C   UNL     1       5.271   3.480  15.771  0.00  0.00    +0.000 A 
ATOM     17  C   UNL     1       6.235   3.966  14.886  0.00  0.00    +0.000 A 
ATOM     18  C   UNL     1       6.972   5.111  15.208  0.00  0.00    +0.000 A 
ATOM     19  C   UNL     1       6.734   5.802  16.399  0.00  0.00    +0.000 A 
ATOM     20  C   UNL     1       5.763   5.302  17.275  0.00  0.00    +0.000 A 
BRANCH  18  21
ATOM     21  O   UNL     1       7.925   5.530  14.316  0.00  0.00    +0.000 OA
ATOM     22  H   UNL     1       8.266   6.392  14.602  0.00  0.00    +0.000 HD
ENDBRANCH  18  21
BRANCH  19  23
ATOM     23  O   UNL     1       7.335   6.939  16.866  0.00  0.00    +0.000 OA
ATOM     24  C   UNL     1       7.804   6.944  18.207  0.00  0.00    +0.000 C 
ENDBRANCH  19  23
ENDBRANCH  14  15
ENDBRANCH  13  14
ENDBRANCH   1  13
TORSDOF 13
ENDMDL
MODEL 6
REMARK VINA RESULT:      -6.3      1.786      6.560
REMARK  Name = 
REMARK  15 active torsions:
REMARK  status: ('A' for Active; 'I' for Inactive)
REMARK    1  A    between atoms: C_1  and  C_2
REMARK    2  A    between atoms: C_2  and  C_3
REMARK    3  A    between atoms: C_3  and  C_4
REMARK    4  A    between atoms: C_4  and  C_5
REMARK    5  A    between atoms: C_5  and  C_6
REMARK    6  A    between atoms: C_6  and  O_7
REMARK    7  A    between atoms: C_6  and  C_8
REMARK    8  A    between atoms: C_8  and  C_9
REMARK    9  A    between atoms: C_9  and  O_10
REMARK   10  A    between atoms: C_9  and  C_11
REMARK   11  A    between atoms: C_11  and  C_12
REMARK   12  A    between atoms: C_12  and  C_13
REMARK   13  A    between atoms: C_16  and  O_17
REMARK   14  A    between atoms: C_18  and  O_19
REMARK   15  A    between atoms: O_19  and  C_20
REMARK                            x       y       z     vdW  Elec       q    Type
REMARK                         _______ _______ _______ _____ _____    ______ ____
ROOT
ATOM      1  C   UNL     1       3.764   2.559  19.255  0.00  0.00    +0.000 C 
ENDROOT
BRANCH   1   2
ATOM      2  O   UNL     1       4.834   1.987  20.007  0.00  0.00    +0.000 OA
ATOM      3  H   UNL     1       5.440   2.721  20.239  0.00  0.00    +0.000 HD
ENDBRANCH   1   2
BRANCH   1   4
ATOM      4  C   UNL     1       2.428   1.900  19.657  0.00  0.00    +0.000 C 
BRANCH   4   5
ATOM      5  C   UNL     1       1.786   2.505  20.917  0.00  0.00    +0.000 C 
BRANCH   5   6
ATOM      6  O   UNL     1       2.820   2.723  21.889  0.00  0.00    +0.000 OA
ATOM      7  H   UNL     1       3.593   2.196  21.610  0.00  0.00    +0.000 HD
ENDBRANCH   5   6
BRANCH   5   8
ATOM      8  C   UNL     1       1.058   3.835  20.687  0.00  0.00    +0.000 C 
BRANCH   8   9
ATOM      9  C   UNL     1       1.926   5.085  20.533  0.00  0.00    +0.000 C 
BRANCH   9  10
ATOM     10  C   UNL     1       1.887   5.764  19.160  0.00  0.00    +0.000 C 
BRANCH  10  12
ATOM     11  C   UNL     1       2.926   7.760  17.954  0.00  0.00    +0.000 C 
ATOM     12  C   UNL     1       3.105   6.686  19.013  0.00  0.00    +0.000 C 
ENDBRANCH  10  12
ENDBRANCH   9  10
ENDBRANCH   8   9
ENDBRANCH   5   8
ENDBRANCH   4   5
ENDBRANCH   1   4
BRANCH   1  13
ATOM     13  C   UNL     1       4.114   2.471  17.763  0.00  0.00    +0.000 C 
BRANCH  13  14
ATOM     14  C   UNL     1       3.776   3.756  17.011  0.00  0.00    +0.000 C 
BRANCH  14  15
ATOM     15  C   UNL     1       4.915   4.250  16.162  0.00  0.00    +0.000 A 
ATOM     16  C   UNL     1       5.122   3.732  14.881  0.00  0.00    +0.000 A 
ATOM     17  C   UNL     1       6.210   4.160  14.118  0.00  0.00    +0.000 A 
ATOM     18  C   UNL     1       7.096   5.115  14.629  0.00  0.00    +0.000 A 
ATOM     19  C   UNL     1       6.889   5.676  15.892  0.00  0.00    +0.000 A 
ATOM     20  C   UNL     1       5.792   5.237  16.644  0.00  0.00    +0.000 A 
BRANCH  18  21
ATOM     21  O   UNL     1       8.162   5.480  13.850  0.00  0.00    +0.000 OA
ATOM     22  H   UNL     1       8.791   5.981  14.393  0.00  0.00    +0.000 HD
ENDBRANCH  18  21
BRANCH  19  23
ATOM     23  O   UNL     1       7.629   6.626  16.541  0.00  0.00    +0.000 OA
ATOM     24  C   UNL     1       6.993   7.395  17.551  0.00  0.00    +0.000 C 
ENDBRANCH  19  23
ENDBRANCH  14  15
ENDBRANCH  13  14
ENDBRANCH   1  13
TORSDOF 13
ENDMDL
MODEL 7
REMARK VINA RESULT:      -6.3      1.482      1.925
REMARK  Name = 
REMARK  15 active torsions:
REMARK  status: ('A' for Active; 'I' for Inactive)
REMARK    1  A    between atoms: C_1  and  C_2
REMARK    2  A    between atoms: C_2  and  C_3
REMARK    3  A    between atoms: C_3  and  C_4
REMARK    4  A    between atoms: C_4  and  C_5
REMARK    5  A    between atoms: C_5  and  C_6
REMARK    6  A    between atoms: C_6  and  O_7
REMARK    7  A    between atoms: C_6  and  C_8
REMARK    8  A    between atoms: C_8  and  C_9
REMARK    9  A    between atoms: C_9  and  O_10
REMARK   10  A    between atoms: C_9  and  C_11
REMARK   11  A    between atoms: C_11  and  C_12
REMARK   12  A    between atoms: C_12  and  C_13
REMARK   13  A    between atoms: C_16  and  O_17
REMARK   14  A    between atoms: C_18  and  O_19
REMARK   15  A    between atoms: O_19  and  C_20
REMARK                            x       y       z     vdW  Elec       q    Type
REMARK                         _______ _______ _______ _____ _____    ______ ____
ROOT
ATOM      1  C   UNL     1       6.693   5.255  17.839  0.00  0.00    +0.000 C 
ENDROOT
BRANCH   1   2
ATOM      2  O   UNL     1       7.712   5.804  18.674  0.00  0.00    +0.000 OA
ATOM      3  H   UNL     1       7.258   6.309  19.380  0.00  0.00    +0.000 HD
ENDBRANCH   1   2
BRANCH   1   4
ATOM      4  C   UNL     1       7.333   4.512  16.647  0.00  0.00    +0.000 C 
BRANCH   4   5
ATOM      5  C   UNL     1       6.773   4.928  15.277  0.00  0.00    +0.000 C 
BRANCH   5   6
ATOM      6  O   UNL     1       7.837   5.520  14.516  0.00  0.00    +0.000 OA
ATOM      7  H   UNL     1       8.209   6.243  15.057  0.00  0.00    +0.000 HD
ENDBRANCH   5   6
BRANCH   5   8
ATOM      8  C   UNL     1       6.181   3.777  14.454  0.00  0.00    +0.000 C 
BRANCH   8   9
ATOM      9  C   UNL     1       6.307   3.873  12.933  0.00  0.00    +0.000 C 
BRANCH   9  10
ATOM     10  C   UNL     1       5.450   2.893  12.126  0.00  0.00    +0.000 C 
BRANCH  10  12
ATOM     11  C   UNL     1       3.283   3.003  10.779  0.00  0.00    +0.000 C 
ATOM     12  C   UNL     1       4.607   3.672  11.107  0.00  0.00    +0.000 C 
ENDBRANCH  10  12
ENDBRANCH   9  10
ENDBRANCH   8   9
ENDBRANCH   5   8
ENDBRANCH   4   5
ENDBRANCH   1   4
BRANCH   1  13
ATOM     13  C   UNL     1       5.713   6.375  17.463  0.00  0.00    +0.000 C 
BRANCH  13  14
ATOM     14  C   UNL     1       4.495   6.414  18.382  0.00  0.00    +0.000 C 
BRANCH  14  15
ATOM     15  C   UNL     1       3.766   5.099  18.437  0.00  0.00    +0.000 A 
ATOM     16  C   UNL     1       3.235   4.533  17.276  0.00  0.00    +0.000 A 
ATOM     17  C   UNL     1       2.518   3.337  17.342  0.00  0.00    +0.000 A 
ATOM     18  C   UNL     1       2.331   2.696  18.572  0.00  0.00    +0.000 A 
ATOM     19  C   UNL     1       2.884   3.222  19.742  0.00  0.00    +0.000 A 
ATOM     20  C   UNL     1       3.602   4.422  19.658  0.00  0.00    +0.000 A 
BRANCH  18  21
ATOM     21  O   UNL     1       1.597   1.539  18.585  0.00  0.00    +0.000 OA
ATOM     22  H   UNL     1       0.821   1.653  18.012  0.00  0.00    +0.000 HD
ENDBRANCH  18  21
BRANCH  19  23
ATOM     23  O   UNL     1       2.824   2.729  21.017  0.00  0.00    +0.000 OA
ATOM     24  C   UNL     1       1.599   2.850  21.724  0.00  0.00    +0.000 C 
ENDBRANCH  19  23
ENDBRANCH  14  15
ENDBRANCH  13  14
ENDBRANCH   1  13
TORSDOF 13
ENDMDL
MODEL 8
REMARK VINA RESULT:      -6.3      1.778      3.021
REMARK  Name = 
REMARK  15 active torsions:
REMARK  status: ('A' for Active; 'I' for Inactive)
REMARK    1  A    between atoms: C_1  and  C_2
REMARK    2  A    between atoms: C_2  and  C_3
REMARK    3  A    between atoms: C_3  and  C_4
REMARK    4  A    between atoms: C_4  and  C_5
REMARK    5  A    between atoms: C_5  and  C_6
REMARK    6  A    between atoms: C_6  and  O_7
REMARK    7  A    between atoms: C_6  and  C_8
REMARK    8  A    between atoms: C_8  and  C_9
REMARK    9  A    between atoms: C_9  and  O_10
REMARK   10  A    between atoms: C_9  and  C_11
REMARK   11  A    between atoms: C_11  and  C_12
REMARK   12  A    between atoms: C_12  and  C_13
REMARK   13  A    between atoms: C_16  and  O_17
REMARK   14  A    between atoms: C_18  and  O_19
REMARK   15  A    between atoms: O_19  and  C_20
REMARK                            x       y       z     vdW  Elec       q    Type
REMARK                         _______ _______ _______ _____ _____    ______ ____
ROOT
ATOM      1  C   UNL     1       6.845   4.339  16.142  0.00  0.00    +0.000 C 
ENDROOT
BRANCH   1   2
ATOM      2  O   UNL     1       7.977   4.123  16.985  0.00  0.00    +0.000 OA
ATOM      3  H   UNL     1       8.578   4.885  16.853  0.00  0.00    +0.000 HD
ENDBRANCH   1   2
BRANCH   1   4
ATOM      4  C   UNL     1       7.120   5.515  15.182  0.00  0.00    +0.000 C 
BRANCH   4   5
ATOM      5  C   UNL     1       6.862   5.189  13.702  0.00  0.00    +0.000 C 
BRANCH   5   6
ATOM      6  O   UNL     1       8.065   5.455  12.965  0.00  0.00    +0.000 OA
ATOM      7  H   UNL     1       8.632   6.013  13.531  0.00  0.00    +0.000 HD
ENDBRANCH   5   6
BRANCH   5   8
ATOM      8  C   UNL     1       6.447   3.738  13.431  0.00  0.00    +0.000 C 
BRANCH   8   9
ATOM      9  C   UNL     1       6.522   3.251  11.983  0.00  0.00    +0.000 C 
BRANCH   9  10
ATOM     10  C   UNL     1       5.268   2.556  11.444  0.00  0.00    +0.000 C 
BRANCH  10  12
ATOM     11  C   UNL     1       3.279   3.542  10.182  0.00  0.00    +0.000 C 
ATOM     12  C   UNL     1       4.090   3.539  11.467  0.00  0.00    +0.000 C 
ENDBRANCH  10  12
ENDBRANCH   9  10
ENDBRANCH   8   9
ENDBRANCH   5   8
ENDBRANCH   4   5
ENDBRANCH   1   4
BRANCH   1  13
ATOM     13  C   UNL     1       5.600   4.493  17.027  0.00  0.00    +0.000 C 
BRANCH  13  14
ATOM     14  C   UNL     1       4.551   3.419  16.745  0.00  0.00    +0.000 C 
BRANCH  14  15
ATOM     15  C   UNL     1       3.424   3.432  17.740  0.00  0.00    +0.000 A 
ATOM     16  C   UNL     1       2.507   2.379  17.788  0.00  0.00    +0.000 A 
ATOM     17  C   UNL     1       1.435   2.421  18.681  0.00  0.00    +0.000 A 
ATOM     18  C   UNL     1       1.275   3.517  19.537  0.00  0.00    +0.000 A 
ATOM     19  C   UNL     1       2.199   4.565  19.535  0.00  0.00    +0.000 A 
ATOM     20  C   UNL     1       3.269   4.506  18.634  0.00  0.00    +0.000 A 
BRANCH  18  21
ATOM     21  O   UNL     1       0.191   3.521  20.375  0.00  0.00    +0.000 OA
ATOM     22  H   UNL     1       0.123   4.392  20.797  0.00  0.00    +0.000 HD
ENDBRANCH  18  21
BRANCH  19  23
ATOM     23  O   UNL     1       2.218   5.695  20.306  0.00  0.00    +0.000 OA
ATOM     24  C   UNL     1       2.297   6.951  19.650  0.00  0.00    +0.000 C 
ENDBRANCH  19  23
ENDBRANCH  14  15
ENDBRANCH  13  14
ENDBRANCH   1  13
TORSDOF 13
ENDMDL
MODEL 9
REMARK VINA RESULT:      -6.2      3.124      5.916
REMARK  Name = 
REMARK  15 active torsions:
REMARK  status: ('A' for Active; 'I' for Inactive)
REMARK    1  A    between atoms: C_1  and  C_2
REMARK    2  A    between atoms: C_2  and  C_3
REMARK    3  A    between atoms: C_3  and  C_4
REMARK    4  A    between atoms: C_4  and  C_5
REMARK    5  A    between atoms: C_5  and  C_6
REMARK    6  A    between atoms: C_6  and  O_7
REMARK    7  A    between atoms: C_6  and  C_8
REMARK    8  A    between atoms: C_8  and  C_9
REMARK    9  A    between atoms: C_9  and  O_10
REMARK   10  A    between atoms: C_9  and  C_11
REMARK   11  A    between atoms: C_11  and  C_12
REMARK   12  A    between atoms: C_12  and  C_13
REMARK   13  A    between atoms: C_16  and  O_17
REMARK   14  A    between atoms: C_18  and  O_19
REMARK   15  A    between atoms: O_19  and  C_20
REMARK                            x       y       z     vdW  Elec       q    Type
REMARK                         _______ _______ _______ _____ _____    ______ ____
ROOT
ATOM      1  C   UNL     1       4.886   4.706  18.562  0.00  0.00    +0.000 C 
ENDROOT
BRANCH   1   2
ATOM      2  O   UNL     1       6.125   5.269  18.132  0.00  0.00    +0.000 OA
ATOM      3  H   UNL     1       6.796   5.023  18.802  0.00  0.00    +0.000 HD
ENDBRANCH   1   2
BRANCH   1   4
ATOM      4  C   UNL     1       4.266   3.867  17.425  0.00  0.00    +0.000 C 
BRANCH   4   5
ATOM      5  C   UNL     1       3.850   2.449  17.848  0.00  0.00    +0.000 C 
BRANCH   5   6
ATOM      6  O   UNL     1       4.279   2.238  19.202  0.00  0.00    +0.000 OA
ATOM      7  H   UNL     1       3.475   2.124  19.745  0.00  0.00    +0.000 HD
ENDBRANCH   5   6
BRANCH   5   8
ATOM      8  C   UNL     1       2.342   2.179  17.778  0.00  0.00    +0.000 C 
BRANCH   8   9
ATOM      9  C   UNL     1       1.413   3.283  18.285  0.00  0.00    +0.000 C 
BRANCH   9  10
ATOM     10  C   UNL     1       0.723   3.016  19.626  0.00  0.00    +0.000 C 
BRANCH  10  12
ATOM     11  C   UNL     1       2.131   3.425  21.716  0.00  0.00    +0.000 C 
ATOM     12  C   UNL     1       1.217   4.031  20.666  0.00  0.00    +0.000 C 
ENDBRANCH  10  12
ENDBRANCH   9  10
ENDBRANCH   8   9
ENDBRANCH   5   8
ENDBRANCH   4   5
ENDBRANCH   1   4
BRANCH   1  13
ATOM     13  C   UNL     1       3.997   5.835  19.103  0.00  0.00    +0.000 C 
BRANCH  13  14
ATOM     14  C   UNL     1       3.263   6.579  17.990  0.00  0.00    +0.000 C 
BRANCH  14  15
ATOM     15  C   UNL     1       2.399   7.695  18.508  0.00  0.00    +0.000 A 
ATOM     16  C   UNL     1       2.082   8.785  17.693  0.00  0.00    +0.000 A 
ATOM     17  C   UNL     1       1.320   9.841  18.198  0.00  0.00    +0.000 A 
ATOM     18  C   UNL     1       0.864   9.810  19.520  0.00  0.00    +0.000 A 
ATOM     19  C   UNL     1       1.135   8.714  20.344  0.00  0.00    +0.000 A 
ATOM     20  C   UNL     1       1.899   7.664  19.822  0.00  0.00    +0.000 A 
BRANCH  18  21
ATOM     21  O   UNL     1       0.143  10.884  19.973  0.00  0.00    +0.000 OA
ATOM     22  H   UNL     1      -0.763  10.596  20.166  0.00  0.00    +0.000 HD
ENDBRANCH  18  21
BRANCH  19  23
ATOM     23  O   UNL     1       0.758   8.502  21.642  0.00  0.00    +0.000 OA
ATOM     24  C   UNL     1       1.426   9.232  22.660  0.00  0.00    +0.000 C 
ENDBRANCH  19  23
ENDBRANCH  14  15
ENDBRANCH  13  14
ENDBRANCH   1  13
TORSDOF 13
ENDMDL
