MODEL 1
REMARK VINA RESULT:      -9.1      0.000      0.000
REMARK  Name = 
REMARK  12 active torsions:
REMARK  status: ('A' for Active; 'I' for Inactive)
REMARK    1  A    between atoms: C_1  and  C_2
REMARK    2  A    between atoms: C_2  and  C_3
REMARK    3  A    between atoms: C_3  and  C_4
REMARK    4  A    between atoms: C_6  and  C_7
REMARK    5  A    between atoms: C_7  and  C_8
REMARK    6  A    between atoms: C_16  and  O_17
REMARK    7  A    between atoms: O_17  and  C_18
REMARK    8  A    between atoms: C_18  and  C_19
REMARK    9  A    between atoms: C_19  and  C_20
REMARK   10  A    between atoms: C_20  and  O_21
REMARK   11  A    between atoms: O_21  and  C_22
REMARK   12  A    between atoms: C_26  and  C_27
REMARK                            x       y       z     vdW  Elec       q    Type
REMARK                         _______ _______ _______ _____ _____    ______ ____
ROOT
ATOM      1  C   UNL     1       7.416   8.115  17.372  0.00  0.00    +0.000 C 
ENDROOT
BRANCH   1   2
ATOM      2  O   UNL     1       7.743   6.874  16.756  0.00  0.00    +0.000 OA
BRANCH   2   8
ATOM      3  C   UNL     1       6.327   4.956  16.027  0.00  0.00    +0.000 A 
ATOM      4  C   UNL     1       5.381   3.990  16.478  0.00  0.00    +0.000 A 
ATOM      5  C   UNL     1       5.034   3.839  17.831  0.00  0.00    +0.000 A 
ATOM      6  C   UNL     1       5.701   4.652  18.755  0.00  0.00    +0.000 A 
ATOM      7  C   UNL     1       6.648   5.594  18.334  0.00  0.00    +0.000 A 
ATOM      8  C   UNL     1       6.961   5.771  16.977  0.00  0.00    +0.000 A 
BRANCH   3   9
ATOM      9  C   UNL     1       6.469   5.116  14.531  0.00  0.00    +0.000 C 
BRANCH   9  11
ATOM     10  C   UNL     1       6.369   3.572  12.549  0.00  0.00    +0.000 C 
ATOM     11  C   UNL     1       5.586   4.171  13.711  0.00  0.00    +0.000 C 
ENDBRANCH   9  11
ENDBRANCH   3   9
BRANCH   5  12
ATOM     12  C   UNL     1       3.867   2.992  18.330  0.00  0.00    +0.000 C 
BRANCH  12  13
ATOM     13  C   UNL     1       2.417   3.426  17.993  0.00  0.00    +0.000 C 
ATOM     14  C   UNL     1       1.346   2.570  18.682  0.00  0.00    +0.000 C 
ATOM     15  C   UNL     1       1.161   2.869  20.170  0.00  0.00    +0.000 C 
ATOM     16  C   UNL     1       0.980   4.350  20.483  0.00  0.00    +0.000 C 
ATOM     17  C   UNL     1       1.974   5.259  19.770  0.00  0.00    +0.000 C 
ATOM     18  C   UNL     1       2.168   4.918  18.294  0.00  0.00    +0.000 C 
ENDBRANCH  12  13
ENDBRANCH   5  12
ENDBRANCH   2   8
ENDBRANCH   1   2
BRANCH   1  19
ATOM     19  C   UNL     1       8.477   8.438  18.422  0.00  0.00    +0.000 C 
BRANCH  19  20
ATOM     20  C   UNL     1       8.759   9.929  18.441  0.00  0.00    +0.000 C 
BRANCH  20  21
ATOM     21  O   UNL     1       9.537  10.259  19.591  0.00  0.00    +0.000 OA
BRANCH  21  22
ATOM     22  C   UNL     1      10.185  11.467  19.521  0.00  0.00    +0.000 A 
ATOM     23  C   UNL     1      11.577  11.407  19.534  0.00  0.00    +0.000 A 
ATOM     24  C   UNL     1      12.329  12.579  19.484  0.00  0.00    +0.000 A 
ATOM     25  C   UNL     1      11.693  13.820  19.418  0.00  0.00    +0.000 A 
ATOM     26  C   UNL     1      10.294  13.906  19.392  0.00  0.00    +0.000 A 
ATOM     27  C   UNL     1       9.555  12.712  19.449  0.00  0.00    +0.000 A 
BRANCH  26  28
ATOM     28  C   UNL     1       9.610  15.258  19.365  0.00  0.00    +0.000 C 
ATOM     29  S   UNL     1       7.995  15.196  20.222  0.00  0.00    +0.000 S 
ATOM     30  C   UNL     1       7.120  15.775  18.832  0.00  0.00    +0.000 C 
ATOM     31  O   UNL     1       5.913  15.929  18.809  0.00  0.00    +0.000 OA
ATOM     32  N   UNL     1       7.963  16.023  17.807  0.00  0.00    +0.000 N 
ATOM     33  C   UNL     1       9.296  15.791  17.975  0.00  0.00    +0.000 C 
ATOM     34  O   UNL     1      10.115  15.993  17.087  0.00  0.00    +0.000 OA
ATOM     35  H   UNL     1       7.604  16.364  16.928  0.00  0.00    +0.000 HD
ENDBRANCH  26  28
ENDBRANCH  21  22
ENDBRANCH  20  21
ENDBRANCH  19  20
ENDBRANCH   1  19
TORSDOF 11
ENDMDL
MODEL 2
REMARK VINA RESULT:      -8.8      1.169      1.395
REMARK  Name = 
REMARK  12 active torsions:
REMARK  status: ('A' for Active; 'I' for Inactive)
REMARK    1  A    between atoms: C_1  and  C_2
REMARK    2  A    between atoms: C_2  and  C_3
REMARK    3  A    between atoms: C_3  and  C_4
REMARK    4  A    between atoms: C_6  and  C_7
REMARK    5  A    between atoms: C_7  and  C_8
REMARK    6  A    between atoms: C_16  and  O_17
REMARK    7  A    between atoms: O_17  and  C_18
REMARK    8  A    between atoms: C_18  and  C_19
REMARK    9  A    between atoms: C_19  and  C_20
REMARK   10  A    between atoms: C_20  and  O_21
REMARK   11  A    between atoms: O_21  and  C_22
REMARK   12  A    between atoms: C_26  and  C_27
REMARK                            x       y       z     vdW  Elec       q    Type
REMARK                         _______ _______ _______ _____ _____    ______ ____
ROOT
ATOM      1  C   UNL     1       7.516   7.498  17.121  0.00  0.00    +0.000 C 
ENDROOT
BRANCH   1   2
ATOM      2  O   UNL     1       7.620   6.078  17.159  0.00  0.00    +0.000 OA
BRANCH   2   8
ATOM      3  C   UNL     1       5.957   4.566  16.080  0.00  0.00    +0.000 A 
ATOM      4  C   UNL     1       4.652   4.009  16.219  0.00  0.00    +0.000 A 
ATOM      5  C   UNL     1       3.864   4.195  17.367  0.00  0.00    +0.000 A 
ATOM      6  C   UNL     1       4.433   4.919  18.421  0.00  0.00    +0.000 A 
ATOM      7  C   UNL     1       5.721   5.457  18.312  0.00  0.00    +0.000 A 
ATOM      8  C   UNL     1       6.489   5.306  17.148  0.00  0.00    +0.000 A 
BRANCH   3   9
ATOM      9  C   UNL     1       6.613   4.426  14.726  0.00  0.00    +0.000 C 
BRANCH   9  11
ATOM     10  C   UNL     1       6.493   3.578  12.362  0.00  0.00    +0.000 C 
ATOM     11  C   UNL     1       5.722   3.779  13.660  0.00  0.00    +0.000 C 
ENDBRANCH   9  11
ENDBRANCH   3   9
BRANCH   5  12
ATOM     12  C   UNL     1       2.387   3.823  17.464  0.00  0.00    +0.000 C 
BRANCH  12  13
ATOM     13  C   UNL     1       1.987   2.472  18.110  0.00  0.00    +0.000 C 
ATOM     14  C   UNL     1       3.082   1.869  18.999  0.00  0.00    +0.000 C 
ATOM     15  C   UNL     1       3.235   2.550  20.359  0.00  0.00    +0.000 C 
ATOM     16  C   UNL     1       1.924   2.710  21.119  0.00  0.00    +0.000 C 
ATOM     17  C   UNL     1       0.776   3.239  20.268  0.00  0.00    +0.000 C 
ATOM     18  C   UNL     1       0.666   2.569  18.900  0.00  0.00    +0.000 C 
ENDBRANCH  12  13
ENDBRANCH   5  12
ENDBRANCH   2   8
ENDBRANCH   1   2
BRANCH   1  19
ATOM     19  C   UNL     1       8.284   8.079  18.307  0.00  0.00    +0.000 C 
BRANCH  19  20
ATOM     20  C   UNL     1       8.337   9.592  18.205  0.00  0.00    +0.000 C 
BRANCH  20  21
ATOM     21  O   UNL     1       9.417  10.092  18.994  0.00  0.00    +0.000 OA
BRANCH  21  22
ATOM     22  C   UNL     1       9.791  11.381  18.709  0.00  0.00    +0.000 A 
ATOM     23  C   UNL     1      10.828  11.519  17.789  0.00  0.00    +0.000 A 
ATOM     24  C   UNL     1      11.294  12.785  17.443  0.00  0.00    +0.000 A 
ATOM     25  C   UNL     1      10.723  13.925  18.014  0.00  0.00    +0.000 A 
ATOM     26  C   UNL     1       9.670  13.812  18.934  0.00  0.00    +0.000 A 
ATOM     27  C   UNL     1       9.220  12.525  19.272  0.00  0.00    +0.000 A 
BRANCH  26  28
ATOM     28  C   UNL     1       9.086  15.050  19.583  0.00  0.00    +0.000 C 
ATOM     29  S   UNL     1       7.899  14.604  20.903  0.00  0.00    +0.000 S 
ATOM     30  C   UNL     1       6.600  15.514  20.183  0.00  0.00    +0.000 C 
ATOM     31  O   UNL     1       5.478  15.574  20.649  0.00  0.00    +0.000 OA
ATOM     32  N   UNL     1       7.016  16.129  19.056  0.00  0.00    +0.000 N 
ATOM     33  C   UNL     1       8.305  15.960  18.645  0.00  0.00    +0.000 C 
ATOM     34  O   UNL     1       8.747  16.487  17.632  0.00  0.00    +0.000 OA
ATOM     35  H   UNL     1       6.374  16.695  18.522  0.00  0.00    +0.000 HD
ENDBRANCH  26  28
ENDBRANCH  21  22
ENDBRANCH  20  21
ENDBRANCH  19  20
ENDBRANCH   1  19
TORSDOF 11
ENDMDL
MODEL 3
REMARK VINA RESULT:      -8.7      2.354      2.736
REMARK  Name = 
REMARK  12 active torsions:
REMARK  status: ('A' for Active; 'I' for Inactive)
REMARK    1  A    between atoms: C_1  and  C_2
REMARK    2  A    between atoms: C_2  and  C_3
REMARK    3  A    between atoms: C_3  and  C_4
REMARK    4  A    between atoms: C_6  and  C_7
REMARK    5  A    between atoms: C_7  and  C_8
REMARK    6  A    between atoms: C_16  and  O_17
REMARK    7  A    between atoms: O_17  and  C_18
REMARK    8  A    between atoms: C_18  and  C_19
REMARK    9  A    between atoms: C_19  and  C_20
REMARK   10  A    between atoms: C_20  and  O_21
REMARK   11  A    between atoms: O_21  and  C_22
REMARK   12  A    between atoms: C_26  and  C_27
REMARK                            x       y       z     vdW  Elec       q    Type
REMARK                         _______ _______ _______ _____ _____    ______ ____
ROOT
ATOM      1  C   UNL     1       6.941   7.435  17.755  0.00  0.00    +0.000 C 
ENDROOT
BRANCH   1   2
ATOM      2  O   UNL     1       7.362   6.076  17.831  0.00  0.00    +0.000 OA
BRANCH   2   8
ATOM      3  C   UNL     1       5.799   4.578  16.595  0.00  0.00    +0.000 A 
ATOM      4  C   UNL     1       4.712   3.670  16.754  0.00  0.00    +0.000 A 
ATOM      5  C   UNL     1       4.236   3.266  18.012  0.00  0.00    +0.000 A 
ATOM      6  C   UNL     1       4.912   3.754  19.136  0.00  0.00    +0.000 A 
ATOM      7  C   UNL     1       5.995   4.632  19.001  0.00  0.00    +0.000 A 
ATOM      8  C   UNL     1       6.440   5.066  17.743  0.00  0.00    +0.000 A 
BRANCH   3   9
ATOM      9  C   UNL     1       6.086   5.051  15.188  0.00  0.00    +0.000 C 
BRANCH   9  11
ATOM     10  C   UNL     1       6.449   3.838  13.016  0.00  0.00    +0.000 C 
ATOM     11  C   UNL     1       5.434   4.200  14.094  0.00  0.00    +0.000 C 
ENDBRANCH   9  11
ENDBRANCH   3   9
BRANCH   5  12
ATOM     12  C   UNL     1       2.939   2.491  18.232  0.00  0.00    +0.000 C 
BRANCH  12  13
ATOM     13  C   UNL     1       1.593   3.259  18.261  0.00  0.00    +0.000 C 
ATOM     14  C   UNL     1       0.812   3.077  19.568  0.00  0.00    +0.000 C 
ATOM     15  C   UNL     1       1.367   3.872  20.750  0.00  0.00    +0.000 C 
ATOM     16  C   UNL     1       1.606   5.346  20.443  0.00  0.00    +0.000 C 
ATOM     17  C   UNL     1       2.318   5.593  19.118  0.00  0.00    +0.000 C 
ATOM     18  C   UNL     1       1.770   4.762  17.961  0.00  0.00    +0.000 C 
ENDBRANCH  12  13
ENDBRANCH   5  12
ENDBRANCH   2   8
ENDBRANCH   1   2
BRANCH   1  19
ATOM     19  C   UNL     1       8.138   8.299  17.362  0.00  0.00    +0.000 C 
BRANCH  19  20
ATOM     20  C   UNL     1       8.193   9.542  18.230  0.00  0.00    +0.000 C 
BRANCH  20  21
ATOM     21  O   UNL     1       9.346   9.495  19.069  0.00  0.00    +0.000 OA
BRANCH  21  22
ATOM     22  C   UNL     1       9.655  10.678  19.692  0.00  0.00    +0.000 A 
ATOM     23  C   UNL     1      10.771  11.349  19.196  0.00  0.00    +0.000 A 
ATOM     24  C   UNL     1      11.179  12.551  19.770  0.00  0.00    +0.000 A 
ATOM     25  C   UNL     1      10.470  13.093  20.845  0.00  0.00    +0.000 A 
ATOM     26  C   UNL     1       9.337  12.442  21.355  0.00  0.00    +0.000 A 
ATOM     27  C   UNL     1       8.947  11.228  20.764  0.00  0.00    +0.000 A 
BRANCH  26  28
ATOM     28  C   UNL     1       8.600  13.013  22.549  0.00  0.00    +0.000 C 
ATOM     29  S   UNL     1       8.057  11.684  23.684  0.00  0.00    +0.000 S 
ATOM     30  C   UNL     1       6.384  12.164  23.610  0.00  0.00    +0.000 C 
ATOM     31  O   UNL     1       5.489  11.587  24.198  0.00  0.00    +0.000 OA
ATOM     32  N   UNL     1       6.234  13.248  22.820  0.00  0.00    +0.000 N 
ATOM     33  C   UNL     1       7.331  13.783  22.213  0.00  0.00    +0.000 C 
ATOM     34  O   UNL     1       7.264  14.764  21.482  0.00  0.00    +0.000 OA
ATOM     35  H   UNL     1       5.318  13.645  22.676  0.00  0.00    +0.000 HD
ENDBRANCH  26  28
ENDBRANCH  21  22
ENDBRANCH  20  21
ENDBRANCH  19  20
ENDBRANCH   1  19
TORSDOF 11
ENDMDL
MODEL 4
REMARK VINA RESULT:      -8.6      2.658      3.243
REMARK  Name = 
REMARK  12 active torsions:
REMARK  status: ('A' for Active; 'I' for Inactive)
REMARK    1  A    between atoms: C_1  and  C_2
REMARK    2  A    between atoms: C_2  and  C_3
REMARK    3  A    between atoms: C_3  and  C_4
REMARK    4  A    between atoms: C_6  and  C_7
REMARK    5  A    between atoms: C_7  and  C_8
REMARK    6  A    between atoms: C_16  and  O_17
REMARK    7  A    between atoms: O_17  and  C_18
REMARK    8  A    between atoms: C_18  and  C_19
REMARK    9  A    between atoms: C_19  and  C_20
REMARK   10  A    between atoms: C_20  and  O_21
REMARK   11  A    between atoms: O_21  and  C_22
REMARK   12  A    between atoms: C_26  and  C_27
REMARK                            x       y       z     vdW  Elec       q    Type
REMARK                         _______ _______ _______ _____ _____    ______ ____
ROOT
ATOM      1  C   UNL     1       7.809   7.425  17.951  0.00  0.00    +0.000 C 
ENDROOT
BRANCH   1   2
ATOM      2  O   UNL     1       7.228   6.803  16.810  0.00  0.00    +0.000 OA
BRANCH   2   8
ATOM      3  C   UNL     1       5.997   4.720  16.206  0.00  0.00    +0.000 A 
ATOM      4  C   UNL     1       4.776   4.012  16.398  0.00  0.00    +0.000 A 
ATOM      5  C   UNL     1       3.782   4.439  17.295  0.00  0.00    +0.000 A 
ATOM      6  C   UNL     1       4.055   5.583  18.052  0.00  0.00    +0.000 A 
ATOM      7  C   UNL     1       5.258   6.282  17.893  0.00  0.00    +0.000 A 
ATOM      8  C   UNL     1       6.230   5.877  16.966  0.00  0.00    +0.000 A 
BRANCH   3   9
ATOM      9  C   UNL     1       6.891   4.237  15.087  0.00  0.00    +0.000 C 
BRANCH   9  11
ATOM     10  C   UNL     1       6.009   3.485  12.856  0.00  0.00    +0.000 C 
ATOM     11  C   UNL     1       6.446   4.683  13.690  0.00  0.00    +0.000 C 
ENDBRANCH   9  11
ENDBRANCH   3   9
BRANCH   5  12
ATOM     12  C   UNL     1       2.374   3.852  17.360  0.00  0.00    +0.000 C 
BRANCH  12  13
ATOM     13  C   UNL     1       2.158   2.476  18.040  0.00  0.00    +0.000 C 
ATOM     14  C   UNL     1       3.337   2.033  18.916  0.00  0.00    +0.000 C 
ATOM     15  C   UNL     1       3.432   2.756  20.258  0.00  0.00    +0.000 C 
ATOM     16  C   UNL     1       2.126   2.769  21.045  0.00  0.00    +0.000 C 
ATOM     17  C   UNL     1       0.905   3.134  20.210  0.00  0.00    +0.000 C 
ATOM     18  C   UNL     1       0.851   2.425  18.858  0.00  0.00    +0.000 C 
ENDBRANCH  12  13
ENDBRANCH   5  12
ENDBRANCH   2   8
ENDBRANCH   1   2
BRANCH   1  19
ATOM     19  C   UNL     1       7.979   8.916  17.665  0.00  0.00    +0.000 C 
BRANCH  19  20
ATOM     20  C   UNL     1       8.919   9.540  18.680  0.00  0.00    +0.000 C 
BRANCH  20  21
ATOM     21  O   UNL     1       9.305  10.843  18.244  0.00  0.00    +0.000 OA
BRANCH  21  22
ATOM     22  C   UNL     1       9.565  11.735  19.254  0.00  0.00    +0.000 A 
ATOM     23  C   UNL     1      10.829  12.321  19.232  0.00  0.00    +0.000 A 
ATOM     24  C   UNL     1      11.199  13.228  20.223  0.00  0.00    +0.000 A 
ATOM     25  C   UNL     1      10.303  13.559  21.243  0.00  0.00    +0.000 A 
ATOM     26  C   UNL     1       9.021  12.992  21.280  0.00  0.00    +0.000 A 
ATOM     27  C   UNL     1       8.672  12.075  20.274  0.00  0.00    +0.000 A 
BRANCH  26  28
ATOM     28  C   UNL     1       8.072  13.320  22.414  0.00  0.00    +0.000 C 
ATOM     29  S   UNL     1       8.384  15.000  23.069  0.00  0.00    +0.000 S 
ATOM     30  C   UNL     1       8.636  14.429  24.696  0.00  0.00    +0.000 C 
ATOM     31  O   UNL     1       8.915  15.155  25.631  0.00  0.00    +0.000 OA
ATOM     32  N   UNL     1       8.477  13.090  24.761  0.00  0.00    +0.000 N 
ATOM     33  C   UNL     1       8.175  12.402  23.624  0.00  0.00    +0.000 C 
ATOM     34  O   UNL     1       8.019  11.187  23.613  0.00  0.00    +0.000 OA
ATOM     35  H   UNL     1       8.592  12.610  25.641  0.00  0.00    +0.000 HD
ENDBRANCH  26  28
ENDBRANCH  21  22
ENDBRANCH  20  21
ENDBRANCH  19  20
ENDBRANCH   1  19
TORSDOF 11
ENDMDL
MODEL 5
REMARK VINA RESULT:      -8.3      1.092      1.276
REMARK  Name = 
REMARK  12 active torsions:
REMARK  status: ('A' for Active; 'I' for Inactive)
REMARK    1  A    between atoms: C_1  and  C_2
REMARK    2  A    between atoms: C_2  and  C_3
REMARK    3  A    between atoms: C_3  and  C_4
REMARK    4  A    between atoms: C_6  and  C_7
REMARK    5  A    between atoms: C_7  and  C_8
REMARK    6  A    between atoms: C_16  and  O_17
REMARK    7  A    between atoms: O_17  and  C_18
REMARK    8  A    between atoms: C_18  and  C_19
REMARK    9  A    between atoms: C_19  and  C_20
REMARK   10  A    between atoms: C_20  and  O_21
REMARK   11  A    between atoms: O_21  and  C_22
REMARK   12  A    between atoms: C_26  and  C_27
REMARK                            x       y       z     vdW  Elec       q    Type
REMARK                         _______ _______ _______ _____ _____    ______ ____
ROOT
ATOM      1  C   UNL     1       7.817   6.904  17.920  0.00  0.00    +0.000 C 
ENDROOT
BRANCH   1   2
ATOM      2  O   UNL     1       6.542   6.642  18.497  0.00  0.00    +0.000 OA
BRANCH   2   8
ATOM      3  C   UNL     1       5.326   5.089  16.973  0.00  0.00    +0.000 A 
ATOM      4  C   UNL     1       4.488   3.936  16.938  0.00  0.00    +0.000 A 
ATOM      5  C   UNL     1       4.170   3.192  18.086  0.00  0.00    +0.000 A 
ATOM      6  C   UNL     1       4.757   3.595  19.290  0.00  0.00    +0.000 A 
ATOM      7  C   UNL     1       5.598   4.714  19.343  0.00  0.00    +0.000 A 
ATOM      8  C   UNL     1       5.880   5.480  18.202  0.00  0.00    +0.000 A 
BRANCH   3   9
ATOM      9  C   UNL     1       5.438   5.883  15.692  0.00  0.00    +0.000 C 
BRANCH   9  11
ATOM     10  C   UNL     1       7.168   4.804  14.222  0.00  0.00    +0.000 C 
ATOM     11  C   UNL     1       5.678   5.030  14.442  0.00  0.00    +0.000 C 
ENDBRANCH   9  11
ENDBRANCH   3   9
BRANCH   5  12
ATOM     12  C   UNL     1       3.101   2.104  18.136  0.00  0.00    +0.000 C 
BRANCH  12  13
ATOM     13  C   UNL     1       1.610   2.511  18.258  0.00  0.00    +0.000 C 
ATOM     14  C   UNL     1       0.971   2.104  19.592  0.00  0.00    +0.000 C 
ATOM     15  C   UNL     1       1.377   2.978  20.778  0.00  0.00    +0.000 C 
ATOM     16  C   UNL     1       1.228   4.473  20.521  0.00  0.00    +0.000 C 
ATOM     17  C   UNL     1       1.782   4.928  19.176  0.00  0.00    +0.000 C 
ATOM     18  C   UNL     1       1.393   4.018  18.012  0.00  0.00    +0.000 C 
ENDBRANCH  12  13
ENDBRANCH   5  12
ENDBRANCH   2   8
ENDBRANCH   1   2
BRANCH   1  19
ATOM     19  C   UNL     1       7.834   8.340  17.398  0.00  0.00    +0.000 C 
BRANCH  19  20
ATOM     20  C   UNL     1       8.507   9.254  18.405  0.00  0.00    +0.000 C 
BRANCH  20  21
ATOM     21  O   UNL     1       8.444  10.605  17.948  0.00  0.00    +0.000 OA
BRANCH  21  22
ATOM     22  C   UNL     1       9.268  11.478  18.614  0.00  0.00    +0.000 A 
ATOM     23  C   UNL     1      10.449  10.932  19.114  0.00  0.00    +0.000 A 
ATOM     24  C   UNL     1      11.346  11.730  19.820  0.00  0.00    +0.000 A 
ATOM     25  C   UNL     1      11.069  13.083  20.029  0.00  0.00    +0.000 A 
ATOM     26  C   UNL     1       9.894  13.658  19.526  0.00  0.00    +0.000 A 
ATOM     27  C   UNL     1       9.000  12.833  18.822  0.00  0.00    +0.000 A 
BRANCH  26  28
ATOM     28  C   UNL     1       9.579  15.115  19.795  0.00  0.00    +0.000 C 
ATOM     29  S   UNL     1       7.788  15.361  20.082  0.00  0.00    +0.000 S 
ATOM     30  C   UNL     1       7.641  16.537  18.806  0.00  0.00    +0.000 C 
ATOM     31  O   UNL     1       6.594  17.077  18.502  0.00  0.00    +0.000 OA
ATOM     32  N   UNL     1       8.837  16.757  18.220  0.00  0.00    +0.000 N 
ATOM     33  C   UNL     1       9.928  16.068  18.660  0.00  0.00    +0.000 C 
ATOM     34  O   UNL     1      11.041  16.218  18.171  0.00  0.00    +0.000 OA
ATOM     35  H   UNL     1       8.914  17.415  17.459  0.00  0.00    +0.000 HD
ENDBRANCH  26  28
ENDBRANCH  21  22
ENDBRANCH  20  21
ENDBRANCH  19  20
ENDBRANCH   1  19
TORSDOF 11
ENDMDL
MODEL 6
REMARK VINA RESULT:      -8.2      2.354      2.628
REMARK  Name = 
REMARK  12 active torsions:
REMARK  status: ('A' for Active; 'I' for Inactive)
REMARK    1  A    between atoms: C_1  and  C_2
REMARK    2  A    between atoms: C_2  and  C_3
REMARK    3  A    between atoms: C_3  and  C_4
REMARK    4  A    between atoms: C_6  and  C_7
REMARK    5  A    between atoms: C_7  and  C_8
REMARK    6  A    between atoms: C_16  and  O_17
REMARK    7  A    between atoms: O_17  and  C_18
REMARK    8  A    between atoms: C_18  and  C_19
REMARK    9  A    between atoms: C_19  and  C_20
REMARK   10  A    between atoms: C_20  and  O_21
REMARK   11  A    between atoms: O_21  and  C_22
REMARK   12  A    between atoms: C_26  and  C_27
REMARK                            x       y       z     vdW  Elec       q    Type
REMARK                         _______ _______ _______ _____ _____    ______ ____
ROOT
ATOM      1  C   UNL     1       7.895   6.705  18.278  0.00  0.00    +0.000 C 
ENDROOT
BRANCH   1   2
ATOM      2  O   UNL     1       6.812   6.799  17.358  0.00  0.00    +0.000 OA
BRANCH   2   8
ATOM      3  C   UNL     1       5.472   4.874  16.513  0.00  0.00    +0.000 A 
ATOM      4  C   UNL     1       4.227   4.194  16.649  0.00  0.00    +0.000 A 
ATOM      5  C   UNL     1       3.281   4.529  17.632  0.00  0.00    +0.000 A 
ATOM      6  C   UNL     1       3.627   5.542  18.532  0.00  0.00    +0.000 A 
ATOM      7  C   UNL     1       4.855   6.209  18.428  0.00  0.00    +0.000 A 
ATOM      8  C   UNL     1       5.779   5.901  17.419  0.00  0.00    +0.000 A 
BRANCH   3   9
ATOM      9  C   UNL     1       6.309   4.519  15.306  0.00  0.00    +0.000 C 
BRANCH   9  11
ATOM     10  C   UNL     1       6.342   3.581  12.973  0.00  0.00    +0.000 C 
ATOM     11  C   UNL     1       5.500   4.294  14.024  0.00  0.00    +0.000 C 
ENDBRANCH   9  11
ENDBRANCH   3   9
BRANCH   5  12
ATOM     12  C   UNL     1       1.851   3.995  17.665  0.00  0.00    +0.000 C 
BRANCH  12  13
ATOM     13  C   UNL     1       1.556   2.665  18.405  0.00  0.00    +0.000 C 
ATOM     14  C   UNL     1       2.820   1.919  18.853  0.00  0.00    +0.000 C 
ATOM     15  C   UNL     1       3.507   2.525  20.077  0.00  0.00    +0.000 C 
ATOM     16  C   UNL     1       2.566   2.783  21.248  0.00  0.00    +0.000 C 
ATOM     17  C   UNL     1       1.259   3.459  20.852  0.00  0.00    +0.000 C 
ATOM     18  C   UNL     1       0.609   2.860  19.606  0.00  0.00    +0.000 C 
ENDBRANCH  12  13
ENDBRANCH   5  12
ENDBRANCH   2   8
ENDBRANCH   1   2
BRANCH   1  19
ATOM     19  C   UNL     1       8.312   8.115  18.692  0.00  0.00    +0.000 C 
BRANCH  19  20
ATOM     20  C   UNL     1       8.401   9.013  17.472  0.00  0.00    +0.000 C 
BRANCH  20  21
ATOM     21  O   UNL     1       8.115  10.362  17.842  0.00  0.00    +0.000 OA
BRANCH  21  22
ATOM     22  C   UNL     1       9.078  10.964  18.614  0.00  0.00    +0.000 A 
ATOM     23  C   UNL     1      10.353  11.021  18.054  0.00  0.00    +0.000 A 
ATOM     24  C   UNL     1      11.404  11.596  18.763  0.00  0.00    +0.000 A 
ATOM     25  C   UNL     1      11.187  12.123  20.039  0.00  0.00    +0.000 A 
ATOM     26  C   UNL     1       9.911  12.088  20.619  0.00  0.00    +0.000 A 
ATOM     27  C   UNL     1       8.866  11.497  19.888  0.00  0.00    +0.000 A 
BRANCH  26  28
ATOM     28  C   UNL     1       9.693  12.619  22.021  0.00  0.00    +0.000 C 
ATOM     29  S   UNL     1       8.193  11.891  22.776  0.00  0.00    +0.000 S 
ATOM     30  C   UNL     1       7.471  13.446  23.085  0.00  0.00    +0.000 C 
ATOM     31  O   UNL     1       6.377  13.593  23.596  0.00  0.00    +0.000 OA
ATOM     32  N   UNL     1       8.289  14.441  22.682  0.00  0.00    +0.000 N 
ATOM     33  C   UNL     1       9.486  14.125  22.111  0.00  0.00    +0.000 C 
ATOM     34  O   UNL     1      10.274  14.978  21.722  0.00  0.00    +0.000 OA
ATOM     35  H   UNL     1       8.008  15.403  22.793  0.00  0.00    +0.000 HD
ENDBRANCH  26  28
ENDBRANCH  21  22
ENDBRANCH  20  21
ENDBRANCH  19  20
ENDBRANCH   1  19
TORSDOF 11
ENDMDL
MODEL 7
REMARK VINA RESULT:      -8.1      1.532      2.076
REMARK  Name = 
REMARK  12 active torsions:
REMARK  status: ('A' for Active; 'I' for Inactive)
REMARK    1  A    between atoms: C_1  and  C_2
REMARK    2  A    between atoms: C_2  and  C_3
REMARK    3  A    between atoms: C_3  and  C_4
REMARK    4  A    between atoms: C_6  and  C_7
REMARK    5  A    between atoms: C_7  and  C_8
REMARK    6  A    between atoms: C_16  and  O_17
REMARK    7  A    between atoms: O_17  and  C_18
REMARK    8  A    between atoms: C_18  and  C_19
REMARK    9  A    between atoms: C_19  and  C_20
REMARK   10  A    between atoms: C_20  and  O_21
REMARK   11  A    between atoms: O_21  and  C_22
REMARK   12  A    between atoms: C_26  and  C_27
REMARK                            x       y       z     vdW  Elec       q    Type
REMARK                         _______ _______ _______ _____ _____    ______ ____
ROOT
ATOM      1  C   UNL     1       6.912   8.396  17.406  0.00  0.00    +0.000 C 
ENDROOT
BRANCH   1   2
ATOM      2  O   UNL     1       6.610   7.295  16.555  0.00  0.00    +0.000 OA
BRANCH   2   8
ATOM      3  C   UNL     1       5.668   4.990  16.669  0.00  0.00    +0.000 A 
ATOM      4  C   UNL     1       4.492   4.244  16.972  0.00  0.00    +0.000 A 
ATOM      5  C   UNL     1       3.331   4.834  17.500  0.00  0.00    +0.000 A 
ATOM      6  C   UNL     1       3.382   6.205  17.776  0.00  0.00    +0.000 A 
ATOM      7  C   UNL     1       4.535   6.952  17.504  0.00  0.00    +0.000 A 
ATOM      8  C   UNL     1       5.678   6.367  16.937  0.00  0.00    +0.000 A 
BRANCH   3   9
ATOM      9  C   UNL     1       6.772   4.251  15.948  0.00  0.00    +0.000 C 
BRANCH   9  11
ATOM     10  C   UNL     1       7.173   5.010  13.585  0.00  0.00    +0.000 C 
ATOM     11  C   UNL     1       6.483   3.978  14.468  0.00  0.00    +0.000 C 
ENDBRANCH   9  11
ENDBRANCH   3   9
BRANCH   5  12
ATOM     12  C   UNL     1       1.984   4.126  17.616  0.00  0.00    +0.000 C 
BRANCH  12  13
ATOM     13  C   UNL     1       1.928   2.698  18.215  0.00  0.00    +0.000 C 
ATOM     14  C   UNL     1       3.178   2.322  19.021  0.00  0.00    +0.000 C 
ATOM     15  C   UNL     1       3.256   2.971  20.403  0.00  0.00    +0.000 C 
ATOM     16  C   UNL     1       1.988   2.808  21.232  0.00  0.00    +0.000 C 
ATOM     17  C   UNL     1       0.705   3.100  20.463  0.00  0.00    +0.000 C 
ATOM     18  C   UNL     1       0.665   2.471  19.072  0.00  0.00    +0.000 C 
ENDBRANCH  12  13
ENDBRANCH   5  12
ENDBRANCH   2   8
ENDBRANCH   1   2
BRANCH   1  19
ATOM     19  C   UNL     1       8.233   8.117  18.121  0.00  0.00    +0.000 C 
BRANCH  19  20
ATOM     20  C   UNL     1       8.733   9.375  18.806  0.00  0.00    +0.000 C 
BRANCH  20  21
ATOM     21  O   UNL     1       9.415  10.200  17.862  0.00  0.00    +0.000 OA
BRANCH  21  22
ATOM     22  C   UNL     1       9.713  11.463  18.308  0.00  0.00    +0.000 A 
ATOM     23  C   UNL     1      10.827  11.564  19.140  0.00  0.00    +0.000 A 
ATOM     24  C   UNL     1      11.203  12.800  19.661  0.00  0.00    +0.000 A 
ATOM     25  C   UNL     1      10.469  13.947  19.350  0.00  0.00    +0.000 A 
ATOM     26  C   UNL     1       9.351  13.873  18.507  0.00  0.00    +0.000 A 
ATOM     27  C   UNL     1       8.986  12.615  17.998  0.00  0.00    +0.000 A 
BRANCH  26  28
ATOM     28  C   UNL     1       8.533  15.113  18.211  0.00  0.00    +0.000 C 
ATOM     29  S   UNL     1       9.611  16.569  17.956  0.00  0.00    +0.000 S 
ATOM     30  C   UNL     1       8.830  17.495  19.208  0.00  0.00    +0.000 C 
ATOM     31  O   UNL     1       9.162  18.623  19.521  0.00  0.00    +0.000 OA
ATOM     32  N   UNL     1       7.822  16.790  19.764  0.00  0.00    +0.000 N 
ATOM     33  C   UNL     1       7.571  15.527  19.317  0.00  0.00    +0.000 C 
ATOM     34  O   UNL     1       6.674  14.832  19.779  0.00  0.00    +0.000 OA
ATOM     35  H   UNL     1       7.273  17.193  20.508  0.00  0.00    +0.000 HD
ENDBRANCH  26  28
ENDBRANCH  21  22
ENDBRANCH  20  21
ENDBRANCH  19  20
ENDBRANCH   1  19
TORSDOF 11
ENDMDL
MODEL 8
REMARK VINA RESULT:      -8.1      5.369      9.794
REMARK  Name = 
REMARK  12 active torsions:
REMARK  status: ('A' for Active; 'I' for Inactive)
REMARK    1  A    between atoms: C_1  and  C_2
REMARK    2  A    between atoms: C_2  and  C_3
REMARK    3  A    between atoms: C_3  and  C_4
REMARK    4  A    between atoms: C_6  and  C_7
REMARK    5  A    between atoms: C_7  and  C_8
REMARK    6  A    between atoms: C_16  and  O_17
REMARK    7  A    between atoms: O_17  and  C_18
REMARK    8  A    between atoms: C_18  and  C_19
REMARK    9  A    between atoms: C_19  and  C_20
REMARK   10  A    between atoms: C_20  and  O_21
REMARK   11  A    between atoms: O_21  and  C_22
REMARK   12  A    between atoms: C_26  and  C_27
REMARK                            x       y       z     vdW  Elec       q    Type
REMARK                         _______ _______ _______ _____ _____    ______ ____
ROOT
ATOM      1  C   UNL     1       2.530   6.051  19.758  0.00  0.00    +0.000 C 
ENDROOT
BRANCH   1   2
ATOM      2  O   UNL     1       2.601   7.355  20.326  0.00  0.00    +0.000 OA
BRANCH   2   8
ATOM      3  C   UNL     1       0.916   9.174  20.585  0.00  0.00    +0.000 A 
ATOM      4  C   UNL     1       0.003  10.003  19.872  0.00  0.00    +0.000 A 
ATOM      5  C   UNL     1      -0.080  10.013  18.469  0.00  0.00    +0.000 A 
ATOM      6  C   UNL     1       0.821   9.201  17.772  0.00  0.00    +0.000 A 
ATOM      7  C   UNL     1       1.740   8.393  18.454  0.00  0.00    +0.000 A 
ATOM      8  C   UNL     1       1.791   8.354  19.855  0.00  0.00    +0.000 A 
BRANCH   3   9
ATOM      9  C   UNL     1       0.771   9.144  22.090  0.00  0.00    +0.000 C 
BRANCH   9  11
ATOM     10  C   UNL     1      -0.992  10.577  23.167  0.00  0.00    +0.000 C 
ATOM     11  C   UNL     1      -0.679   9.206  22.582  0.00  0.00    +0.000 C 
ENDBRANCH   9  11
ENDBRANCH   3   9
BRANCH   5  12
ATOM     12  C   UNL     1      -1.191  10.699  17.679  0.00  0.00    +0.000 C 
BRANCH  12  13
ATOM     13  C   UNL     1      -2.266   9.833  16.974  0.00  0.00    +0.000 C 
ATOM     14  C   UNL     1      -3.485   9.532  17.856  0.00  0.00    +0.000 C 
ATOM     15  C   UNL     1      -4.446  10.708  18.024  0.00  0.00    +0.000 C 
ATOM     16  C   UNL     1      -4.856  11.361  16.709  0.00  0.00    +0.000 C 
ATOM     17  C   UNL     1      -3.693  11.621  15.759  0.00  0.00    +0.000 C 
ATOM     18  C   UNL     1      -2.726  10.445  15.635  0.00  0.00    +0.000 C 
ENDBRANCH  12  13
ENDBRANCH   5  12
ENDBRANCH   2   8
ENDBRANCH   1   2
BRANCH   1  19
ATOM     19  C   UNL     1       1.712   5.155  20.685  0.00  0.00    +0.000 C 
BRANCH  19  20
ATOM     20  C   UNL     1       2.597   4.081  21.291  0.00  0.00    +0.000 C 
BRANCH  20  21
ATOM     21  O   UNL     1       2.690   2.971  20.398  0.00  0.00    +0.000 OA
BRANCH  21  22
ATOM     22  C   UNL     1       3.314   3.241  19.206  0.00  0.00    +0.000 A 
ATOM     23  C   UNL     1       2.557   3.004  18.060  0.00  0.00    +0.000 A 
ATOM     24  C   UNL     1       3.105   3.229  16.799  0.00  0.00    +0.000 A 
ATOM     25  C   UNL     1       4.415   3.698  16.675  0.00  0.00    +0.000 A 
ATOM     26  C   UNL     1       5.193   3.955  17.813  0.00  0.00    +0.000 A 
ATOM     27  C   UNL     1       4.622   3.714  19.075  0.00  0.00    +0.000 A 
BRANCH  26  28
ATOM     28  C   UNL     1       6.628   4.419  17.671  0.00  0.00    +0.000 C 
ATOM     29  S   UNL     1       7.006   5.763  18.854  0.00  0.00    +0.000 S 
ATOM     30  C   UNL     1       7.514   6.861  17.601  0.00  0.00    +0.000 C 
ATOM     31  O   UNL     1       7.887   8.000  17.811  0.00  0.00    +0.000 OA
ATOM     32  N   UNL     1       7.436   6.271  16.389  0.00  0.00    +0.000 N 
ATOM     33  C   UNL     1       6.986   4.987  16.305  0.00  0.00    +0.000 C 
ATOM     34  O   UNL     1       6.888   4.394  15.238  0.00  0.00    +0.000 OA
ATOM     35  H   UNL     1       7.696   6.783  15.560  0.00  0.00    +0.000 HD
ENDBRANCH  26  28
ENDBRANCH  21  22
ENDBRANCH  20  21
ENDBRANCH  19  20
ENDBRANCH   1  19
TORSDOF 11
ENDMDL
MODEL 9
REMARK VINA RESULT:      -8.0      7.114     10.499
REMARK  Name = 
REMARK  12 active torsions:
REMARK  status: ('A' for Active; 'I' for Inactive)
REMARK    1  A    between atoms: C_1  and  C_2
REMARK    2  A    between atoms: C_2  and  C_3
REMARK    3  A    between atoms: C_3  and  C_4
REMARK    4  A    between atoms: C_6  and  C_7
REMARK    5  A    between atoms: C_7  and  C_8
REMARK    6  A    between atoms: C_16  and  O_17
REMARK    7  A    between atoms: O_17  and  C_18
REMARK    8  A    between atoms: C_18  and  C_19
REMARK    9  A    between atoms: C_19  and  C_20
REMARK   10  A    between atoms: C_20  and  O_21
REMARK   11  A    between atoms: O_21  and  C_22
REMARK   12  A    between atoms: C_26  and  C_27
REMARK                            x       y       z     vdW  Elec       q    Type
REMARK                         _______ _______ _______ _____ _____    ______ ____
ROOT
ATOM      1  C   UNL     1       0.487   8.666  20.834  0.00  0.00    +0.000 C 
ENDROOT
BRANCH   1   2
ATOM      2  O   UNL     1       1.678   7.892  20.944  0.00  0.00    +0.000 OA
BRANCH   2   8
ATOM      3  C   UNL     1       2.077   5.640  19.952  0.00  0.00    +0.000 A 
ATOM      4  C   UNL     1       2.694   4.958  18.862  0.00  0.00    +0.000 A 
ATOM      5  C   UNL     1       3.293   5.632  17.785  0.00  0.00    +0.000 A 
ATOM      6  C   UNL     1       3.219   7.029  17.785  0.00  0.00    +0.000 A 
ATOM      7  C   UNL     1       2.599   7.717  18.836  0.00  0.00    +0.000 A 
ATOM      8  C   UNL     1       2.040   7.043  19.932  0.00  0.00    +0.000 A 
BRANCH   3   9
ATOM      9  C   UNL     1       1.630   4.789  21.118  0.00  0.00    +0.000 C 
BRANCH   9  11
ATOM     10  C   UNL     1       2.488   2.458  21.509  0.00  0.00    +0.000 C 
ATOM     11  C   UNL     1       1.452   3.305  20.780  0.00  0.00    +0.000 C 
ENDBRANCH   9  11
ENDBRANCH   3   9
BRANCH   5  12
ATOM     12  C   UNL     1       4.164   4.957  16.728  0.00  0.00    +0.000 C 
BRANCH  12  13
ATOM     13  C   UNL     1       5.399   4.135  17.175  0.00  0.00    +0.000 C 
ATOM     14  C   UNL     1       6.660   4.425  16.349  0.00  0.00    +0.000 C 
ATOM     15  C   UNL     1       7.339   5.753  16.682  0.00  0.00    +0.000 C 
ATOM     16  C   UNL     1       7.587   5.963  18.172  0.00  0.00    +0.000 C 
ATOM     17  C   UNL     1       6.389   5.622  19.051  0.00  0.00    +0.000 C 
ATOM     18  C   UNL     1       5.706   4.309  18.677  0.00  0.00    +0.000 C 
ENDBRANCH  12  13
ENDBRANCH   5  12
ENDBRANCH   2   8
ENDBRANCH   1   2
BRANCH   1  19
ATOM     19  C   UNL     1       0.864  10.145  20.793  0.00  0.00    +0.000 C 
BRANCH  19  20
ATOM     20  C   UNL     1      -0.375  10.995  20.580  0.00  0.00    +0.000 C 
BRANCH  20  21
ATOM     21  O   UNL     1      -0.436  11.428  19.221  0.00  0.00    +0.000 OA
BRANCH  21  22
ATOM     22  C   UNL     1      -1.664  11.285  18.625  0.00  0.00    +0.000 A 
ATOM     23  C   UNL     1      -1.670  10.601  17.411  0.00  0.00    +0.000 A 
ATOM     24  C   UNL     1      -2.863  10.416  16.717  0.00  0.00    +0.000 A 
ATOM     25  C   UNL     1      -4.062  10.914  17.234  0.00  0.00    +0.000 A 
ATOM     26  C   UNL     1      -4.083  11.595  18.459  0.00  0.00    +0.000 A 
ATOM     27  C   UNL     1      -2.867  11.775  19.140  0.00  0.00    +0.000 A 
BRANCH  26  28
ATOM     28  C   UNL     1      -5.379  12.171  18.992  0.00  0.00    +0.000 C 
ATOM     29  S   UNL     1      -5.089  13.159  20.505  0.00  0.00    +0.000 S 
ATOM     30  C   UNL     1      -6.208  12.222  21.454  0.00  0.00    +0.000 C 
ATOM     31  O   UNL     1      -6.431  12.426  22.633  0.00  0.00    +0.000 OA
ATOM     32  N   UNL     1      -6.781  11.257  20.703  0.00  0.00    +0.000 N 
ATOM     33  C   UNL     1      -6.424  11.139  19.392  0.00  0.00    +0.000 C 
ATOM     34  O   UNL     1      -6.902  10.286  18.656  0.00  0.00    +0.000 OA
ATOM     35  H   UNL     1      -7.454  10.629  21.114  0.00  0.00    +0.000 HD
ENDBRANCH  26  28
ENDBRANCH  21  22
ENDBRANCH  20  21
ENDBRANCH  19  20
ENDBRANCH   1  19
TORSDOF 11
ENDMDL
