MODEL 1
REMARK VINA RESULT:      -8.9      0.000      0.000
REMARK  Name = 
REMARK  4 active torsions:
REMARK  status: ('A' for Active; 'I' for Inactive)
REMARK    1  A    between atoms: C_2  and  C_10
REMARK    2  A    between atoms: N_3  and  C_4
REMARK    3  A    between atoms: C_14  and  C_15
REMARK    4  A    between atoms: C_17  and  C_18
REMARK                            x       y       z     vdW  Elec       q    Type
REMARK                         _______ _______ _______ _____ _____    ______ ____
ROOT
ATOM      1  C   UNL     1       4.685   4.394  18.058  0.00  0.00    +0.000 A 
ATOM      2  C   UNL     1       4.460   3.299  18.897  0.00  0.00    +0.000 A 
ATOM      3  C   UNL     1       3.549   3.414  19.947  0.00  0.00    +0.000 A 
ATOM      4  C   UNL     1       2.862   4.616  20.156  0.00  0.00    +0.000 A 
ATOM      5  C   UNL     1       3.083   5.722  19.322  0.00  0.00    +0.000 A 
ATOM      6  C   UNL     1       4.012   5.601  18.281  0.00  0.00    +0.000 A 
ENDROOT
BRANCH   5   7
ATOM      7  C   UNL     1       2.363   6.978  19.478  0.00  0.00    +0.000 A 
ATOM      8  N   UNL     1       1.694   7.433  20.514  0.00  0.00    +0.000 NA
ATOM      9  C   UNL     1       1.311   8.688  20.101  0.00  0.00    +0.000 A 
ATOM     10  N   UNL     1       1.708   8.996  18.855  0.00  0.00    +0.000 NA
ATOM     11  O   UNL     1       2.406   7.864  18.442  0.00  0.00    +0.000 OA
BRANCH   9  12
ATOM     12  C   UNL     1       0.572   9.595  20.972  0.00  0.00    +0.000 A 
ATOM     13  C   UNL     1       0.005   9.127  22.170  0.00  0.00    +0.000 A 
ATOM     14  C   UNL     1      -0.681   9.997  23.022  0.00  0.00    +0.000 A 
ATOM     15  C   UNL     1      -0.804  11.337  22.676  0.00  0.00    +0.000 A 
ATOM     16  F   UNL     1      -1.454  12.172  23.495  0.00  0.00    +0.000 F 
ATOM     17  C   UNL     1      -0.258  11.823  21.496  0.00  0.00    +0.000 A 
ATOM     18  C   UNL     1       0.429  10.955  20.643  0.00  0.00    +0.000 A 
ENDBRANCH   9  12
ENDBRANCH   5   7
BRANCH   1  20
ATOM     19  O   UNL     1       6.846   4.357  17.213  0.00  0.00    +0.000 OA
ATOM     20  C   UNL     1       5.653   4.343  16.935  0.00  0.00    +0.000 C 
ATOM     21  N   UNL     1       5.091   4.355  15.671  0.00  0.00    +0.000 N 
ATOM     22  H   UNL     1       4.099   4.542  15.602  0.00  0.00    +0.000 HD
BRANCH  21  23
ATOM     23  C   UNL     1       5.804   4.318  14.453  0.00  0.00    +0.000 A 
ATOM     24  C   UNL     1       5.424   3.523  13.368  0.00  0.00    +0.000 A 
ATOM     25  C   UNL     1       6.184   3.506  12.198  0.00  0.00    +0.000 A 
ATOM     26  C   UNL     1       7.331   4.288  12.098  0.00  0.00    +0.000 A 
ATOM     27  C   UNL     1       7.708   5.100  13.165  0.00  0.00    +0.000 A 
ATOM     28  C   UNL     1       6.943   5.124  14.336  0.00  0.00    +0.000 A 
ENDBRANCH  21  23
ENDBRANCH   1  20
TORSDOF 4
ENDMDL
MODEL 2
REMARK VINA RESULT:      -8.9      1.148      1.268
REMARK  Name = 
REMARK  4 active torsions:
REMARK  status: ('A' for Active; 'I' for Inactive)
REMARK    1  A    between atoms: C_2  and  C_10
REMARK    2  A    between atoms: N_3  and  C_4
REMARK    3  A    between atoms: C_14  and  C_15
REMARK    4  A    between atoms: C_17  and  C_18
REMARK                            x       y       z     vdW  Elec       q    Type
REMARK                         _______ _______ _______ _____ _____    ______ ____
ROOT
ATOM      1  C   UNL     1       4.353   5.816  17.356  0.00  0.00    +0.000 A 
ATOM      2  C   UNL     1       4.519   4.754  18.249  0.00  0.00    +0.000 A 
ATOM      3  C   UNL     1       3.867   4.785  19.482  0.00  0.00    +0.000 A 
ATOM      4  C   UNL     1       3.048   5.870  19.819  0.00  0.00    +0.000 A 
ATOM      5  C   UNL     1       2.877   6.942  18.931  0.00  0.00    +0.000 A 
ATOM      6  C   UNL     1       3.550   6.909  17.704  0.00  0.00    +0.000 A 
ENDROOT
BRANCH   5   7
ATOM      7  C   UNL     1       2.005   8.071  19.224  0.00  0.00    +0.000 A 
ATOM      8  N   UNL     1       1.281   8.311  20.295  0.00  0.00    +0.000 NA
ATOM      9  C   UNL     1       0.746   9.549  20.029  0.00  0.00    +0.000 A 
ATOM     10  N   UNL     1       1.104  10.053  18.836  0.00  0.00    +0.000 NA
ATOM     11  O   UNL     1       1.940   9.075  18.302  0.00  0.00    +0.000 OA
BRANCH   9  12
ATOM     12  C   UNL     1      -0.104  10.246  20.989  0.00  0.00    +0.000 A 
ATOM     13  C   UNL     1      -0.211   9.781  22.311  0.00  0.00    +0.000 A 
ATOM     14  C   UNL     1      -1.002  10.460  23.243  0.00  0.00    +0.000 A 
ATOM     15  C   UNL     1      -1.689  11.602  22.853  0.00  0.00    +0.000 A 
ATOM     16  F   UNL     1      -2.441  12.257  23.747  0.00  0.00    +0.000 F 
ATOM     17  C   UNL     1      -1.604  12.079  21.551  0.00  0.00    +0.000 A 
ATOM     18  C   UNL     1      -0.813  11.402  20.619  0.00  0.00    +0.000 A 
ENDBRANCH   9  12
ENDBRANCH   5   7
BRANCH   1  20
ATOM     19  O   UNL     1       5.224   6.952  15.530  0.00  0.00    +0.000 OA
ATOM     20  C   UNL     1       5.032   5.853  16.038  0.00  0.00    +0.000 C 
ATOM     21  N   UNL     1       5.316   4.618  15.486  0.00  0.00    +0.000 N 
ATOM     22  H   UNL     1       4.921   3.803  15.936  0.00  0.00    +0.000 HD
BRANCH  21  23
ATOM     23  C   UNL     1       5.952   4.397  14.245  0.00  0.00    +0.000 A 
ATOM     24  C   UNL     1       5.444   3.538  13.266  0.00  0.00    +0.000 A 
ATOM     25  C   UNL     1       6.132   3.337  12.069  0.00  0.00    +0.000 A 
ATOM     26  C   UNL     1       7.333   3.999  11.834  0.00  0.00    +0.000 A 
ATOM     27  C   UNL     1       7.838   4.875  12.791  0.00  0.00    +0.000 A 
ATOM     28  C   UNL     1       7.146   5.082  13.990  0.00  0.00    +0.000 A 
ENDBRANCH  21  23
ENDBRANCH   1  20
TORSDOF 4
ENDMDL
MODEL 3
REMARK VINA RESULT:      -8.8      5.160      7.739
REMARK  Name = 
REMARK  4 active torsions:
REMARK  status: ('A' for Active; 'I' for Inactive)
REMARK    1  A    between atoms: C_2  and  C_10
REMARK    2  A    between atoms: N_3  and  C_4
REMARK    3  A    between atoms: C_14  and  C_15
REMARK    4  A    between atoms: C_17  and  C_18
REMARK                            x       y       z     vdW  Elec       q    Type
REMARK                         _______ _______ _______ _____ _____    ______ ____
ROOT
ATOM      1  C   UNL     1       4.944   4.527  16.665  0.00  0.00    +0.000 A 
ATOM      2  C   UNL     1       5.239   4.186  15.342  0.00  0.00    +0.000 A 
ATOM      3  C   UNL     1       6.280   4.837  14.681  0.00  0.00    +0.000 A 
ATOM      4  C   UNL     1       7.028   5.821  15.339  0.00  0.00    +0.000 A 
ATOM      5  C   UNL     1       6.738   6.173  16.666  0.00  0.00    +0.000 A 
ATOM      6  C   UNL     1       5.680   5.526  17.314  0.00  0.00    +0.000 A 
ENDROOT
BRANCH   5   7
ATOM      7  C   UNL     1       7.513   7.162  17.402  0.00  0.00    +0.000 A 
ATOM      8  N   UNL     1       7.659   8.448  17.171  0.00  0.00    +0.000 NA
ATOM      9  C   UNL     1       8.427   8.862  18.234  0.00  0.00    +0.000 A 
ATOM     10  N   UNL     1       8.763   7.875  19.081  0.00  0.00    +0.000 NA
ATOM     11  O   UNL     1       8.157   6.748  18.531  0.00  0.00    +0.000 OA
BRANCH   9  12
ATOM     12  C   UNL     1       8.800  10.260  18.418  0.00  0.00    +0.000 A 
ATOM     13  C   UNL     1       9.652  10.636  19.470  0.00  0.00    +0.000 A 
ATOM     14  C   UNL     1      10.034  11.970  19.636  0.00  0.00    +0.000 A 
ATOM     15  C   UNL     1       9.563  12.932  18.751  0.00  0.00    +0.000 A 
ATOM     16  F   UNL     1       9.934  14.209  18.905  0.00  0.00    +0.000 F 
ATOM     17  C   UNL     1       8.715  12.587  17.707  0.00  0.00    +0.000 A 
ATOM     18  C   UNL     1       8.332  11.253  17.540  0.00  0.00    +0.000 A 
ENDBRANCH   9  12
ENDBRANCH   5   7
BRANCH   1  20
ATOM     19  O   UNL     1       3.005   3.257  16.778  0.00  0.00    +0.000 OA
ATOM     20  C   UNL     1       3.838   3.886  17.419  0.00  0.00    +0.000 C 
ATOM     21  N   UNL     1       3.832   4.132  18.779  0.00  0.00    +0.000 N 
ATOM     22  H   UNL     1       4.475   4.829  19.132  0.00  0.00    +0.000 HD
BRANCH  21  23
ATOM     23  C   UNL     1       2.885   3.637  19.701  0.00  0.00    +0.000 A 
ATOM     24  C   UNL     1       1.540   4.020  19.698  0.00  0.00    +0.000 A 
ATOM     25  C   UNL     1       0.655   3.519  20.653  0.00  0.00    +0.000 A 
ATOM     26  C   UNL     1       1.103   2.622  21.619  0.00  0.00    +0.000 A 
ATOM     27  C   UNL     1       2.435   2.216  21.619  0.00  0.00    +0.000 A 
ATOM     28  C   UNL     1       3.322   2.713  20.658  0.00  0.00    +0.000 A 
ENDBRANCH  21  23
ENDBRANCH   1  20
TORSDOF 4
ENDMDL
MODEL 4
REMARK VINA RESULT:      -8.7      0.604      1.106
REMARK  Name = 
REMARK  4 active torsions:
REMARK  status: ('A' for Active; 'I' for Inactive)
REMARK    1  A    between atoms: C_2  and  C_10
REMARK    2  A    between atoms: N_3  and  C_4
REMARK    3  A    between atoms: C_14  and  C_15
REMARK    4  A    between atoms: C_17  and  C_18
REMARK                            x       y       z     vdW  Elec       q    Type
REMARK                         _______ _______ _______ _____ _____    ______ ____
ROOT
ATOM      1  C   UNL     1       4.764   5.102  17.791  0.00  0.00    +0.000 A 
ATOM      2  C   UNL     1       4.672   3.960  18.592  0.00  0.00    +0.000 A 
ATOM      3  C   UNL     1       3.796   3.952  19.677  0.00  0.00    +0.000 A 
ATOM      4  C   UNL     1       3.010   5.076  19.958  0.00  0.00    +0.000 A 
ATOM      5  C   UNL     1       3.097   6.229  19.162  0.00  0.00    +0.000 A 
ATOM      6  C   UNL     1       3.993   6.232  18.086  0.00  0.00    +0.000 A 
ENDROOT
BRANCH   5   7
ATOM      7  C   UNL     1       2.273   7.406  19.394  0.00  0.00    +0.000 A 
ATOM      8  N   UNL     1       1.549   7.724  20.445  0.00  0.00    +0.000 NA
ATOM      9  C   UNL     1       1.071   8.971  20.117  0.00  0.00    +0.000 A 
ATOM     10  N   UNL     1       1.464   9.406  18.908  0.00  0.00    +0.000 NA
ATOM     11  O   UNL     1       2.261   8.369  18.428  0.00  0.00    +0.000 OA
BRANCH   9  12
ATOM     12  C   UNL     1       0.242   9.745  21.036  0.00  0.00    +0.000 A 
ATOM     13  C   UNL     1       0.053   9.313  22.359  0.00  0.00    +0.000 A 
ATOM     14  C   UNL     1      -0.717  10.065  23.251  0.00  0.00    +0.000 A 
ATOM     15  C   UNL     1      -1.301  11.249  22.820  0.00  0.00    +0.000 A 
ATOM     16  F   UNL     1      -2.033  11.973  23.676  0.00  0.00    +0.000 F 
ATOM     17  C   UNL     1      -1.134  11.695  21.516  0.00  0.00    +0.000 A 
ATOM     18  C   UNL     1      -0.364  10.945  20.623  0.00  0.00    +0.000 A 
ENDBRANCH   9  12
ENDBRANCH   5   7
BRANCH   1  20
ATOM     19  O   UNL     1       6.660   5.923  16.735  0.00  0.00    +0.000 OA
ATOM     20  C   UNL     1       5.689   5.183  16.634  0.00  0.00    +0.000 C 
ATOM     21  N   UNL     1       5.309   4.453  15.522  0.00  0.00    +0.000 N 
ATOM     22  H   UNL     1       4.382   4.048  15.524  0.00  0.00    +0.000 HD
BRANCH  21  23
ATOM     23  C   UNL     1       6.019   4.376  14.305  0.00  0.00    +0.000 A 
ATOM     24  C   UNL     1       7.180   5.111  14.048  0.00  0.00    +0.000 A 
ATOM     25  C   UNL     1       7.824   5.015  12.813  0.00  0.00    +0.000 A 
ATOM     26  C   UNL     1       7.317   4.176  11.824  0.00  0.00    +0.000 A 
ATOM     27  C   UNL     1       6.175   3.422  12.077  0.00  0.00    +0.000 A 
ATOM     28  C   UNL     1       5.531   3.513  13.316  0.00  0.00    +0.000 A 
ENDBRANCH  21  23
ENDBRANCH   1  20
TORSDOF 4
ENDMDL
MODEL 5
REMARK VINA RESULT:      -8.7      1.160      1.825
REMARK  Name = 
REMARK  4 active torsions:
REMARK  status: ('A' for Active; 'I' for Inactive)
REMARK    1  A    between atoms: C_2  and  C_10
REMARK    2  A    between atoms: N_3  and  C_4
REMARK    3  A    between atoms: C_14  and  C_15
REMARK    4  A    between atoms: C_17  and  C_18
REMARK                            x       y       z     vdW  Elec       q    Type
REMARK                         _______ _______ _______ _____ _____    ______ ____
ROOT
ATOM      1  C   UNL     1       4.360   5.852  17.353  0.00  0.00    +0.000 A 
ATOM      2  C   UNL     1       4.527   4.783  18.238  0.00  0.00    +0.000 A 
ATOM      3  C   UNL     1       3.847   4.787  19.456  0.00  0.00    +0.000 A 
ATOM      4  C   UNL     1       3.000   5.852  19.787  0.00  0.00    +0.000 A 
ATOM      5  C   UNL     1       2.827   6.931  18.907  0.00  0.00    +0.000 A 
ATOM      6  C   UNL     1       3.528   6.924  17.695  0.00  0.00    +0.000 A 
ENDROOT
BRANCH   5   7
ATOM      7  C   UNL     1       1.927   8.039  19.193  0.00  0.00    +0.000 A 
ATOM      8  N   UNL     1       1.555   8.534  20.352  0.00  0.00    +0.000 NA
ATOM      9  C   UNL     1       0.773   9.605  19.988  0.00  0.00    +0.000 A 
ATOM     10  N   UNL     1       0.647   9.762  18.660  0.00  0.00    +0.000 NA
ATOM     11  O   UNL     1       1.412   8.724  18.132  0.00  0.00    +0.000 OA
BRANCH   9  12
ATOM     12  C   UNL     1       0.176  10.497  20.977  0.00  0.00    +0.000 A 
ATOM     13  C   UNL     1       0.294  11.890  20.841  0.00  0.00    +0.000 A 
ATOM     14  C   UNL     1      -0.299  12.750  21.770  0.00  0.00    +0.000 A 
ATOM     15  C   UNL     1      -1.009  12.217  22.839  0.00  0.00    +0.000 A 
ATOM     16  F   UNL     1      -1.583  13.039  23.725  0.00  0.00    +0.000 F 
ATOM     17  C   UNL     1      -1.135  10.843  22.999  0.00  0.00    +0.000 A 
ATOM     18  C   UNL     1      -0.543   9.983  22.070  0.00  0.00    +0.000 A 
ENDBRANCH   9  12
ENDBRANCH   5   7
BRANCH   1  20
ATOM     19  O   UNL     1       5.236   7.023  15.553  0.00  0.00    +0.000 OA
ATOM     20  C   UNL     1       5.067   5.917  16.050  0.00  0.00    +0.000 C 
ATOM     21  N   UNL     1       5.401   4.694  15.499  0.00  0.00    +0.000 N 
ATOM     22  H   UNL     1       5.021   3.864  15.936  0.00  0.00    +0.000 HD
BRANCH  21  23
ATOM     23  C   UNL     1       6.071   4.500  14.272  0.00  0.00    +0.000 A 
ATOM     24  C   UNL     1       7.283   5.118  13.954  0.00  0.00    +0.000 A 
ATOM     25  C   UNL     1       7.884   4.910  12.712  0.00  0.00    +0.000 A 
ATOM     26  C   UNL     1       7.282   4.075  11.775  0.00  0.00    +0.000 A 
ATOM     27  C   UNL     1       6.085   3.436  12.088  0.00  0.00    +0.000 A 
ATOM     28  C   UNL     1       5.485   3.639  13.335  0.00  0.00    +0.000 A 
ENDBRANCH  21  23
ENDBRANCH   1  20
TORSDOF 4
ENDMDL
MODEL 6
REMARK VINA RESULT:      -8.7      3.472      9.768
REMARK  Name = 
REMARK  4 active torsions:
REMARK  status: ('A' for Active; 'I' for Inactive)
REMARK    1  A    between atoms: C_2  and  C_10
REMARK    2  A    between atoms: N_3  and  C_4
REMARK    3  A    between atoms: C_14  and  C_15
REMARK    4  A    between atoms: C_17  and  C_18
REMARK                            x       y       z     vdW  Elec       q    Type
REMARK                         _______ _______ _______ _____ _____    ______ ____
ROOT
ATOM      1  C   UNL     1       2.308   6.217  20.109  0.00  0.00    +0.000 A 
ATOM      2  C   UNL     1       1.908   5.178  20.954  0.00  0.00    +0.000 A 
ATOM      3  C   UNL     1       2.485   3.916  20.811  0.00  0.00    +0.000 A 
ATOM      4  C   UNL     1       3.461   3.693  19.832  0.00  0.00    +0.000 A 
ATOM      5  C   UNL     1       3.867   4.728  18.977  0.00  0.00    +0.000 A 
ATOM      6  C   UNL     1       3.270   5.986  19.118  0.00  0.00    +0.000 A 
ENDROOT
BRANCH   5   7
ATOM      7  C   UNL     1       4.906   4.553  17.971  0.00  0.00    +0.000 A 
ATOM      8  N   UNL     1       4.805   4.544  16.661  0.00  0.00    +0.000 NA
ATOM      9  C   UNL     1       6.114   4.421  16.257  0.00  0.00    +0.000 A 
ATOM     10  N   UNL     1       6.992   4.339  17.270  0.00  0.00    +0.000 NA
ATOM     11  O   UNL     1       6.192   4.426  18.407  0.00  0.00    +0.000 OA
BRANCH   9  12
ATOM     12  C   UNL     1       6.489   4.420  14.847  0.00  0.00    +0.000 A 
ATOM     13  C   UNL     1       5.797   3.615  13.927  0.00  0.00    +0.000 A 
ATOM     14  C   UNL     1       6.134   3.630  12.571  0.00  0.00    +0.000 A 
ATOM     15  C   UNL     1       7.166   4.449  12.132  0.00  0.00    +0.000 A 
ATOM     16  F   UNL     1       7.485   4.470  10.832  0.00  0.00    +0.000 F 
ATOM     17  C   UNL     1       7.870   5.251  13.022  0.00  0.00    +0.000 A 
ATOM     18  C   UNL     1       7.533   5.237  14.378  0.00  0.00    +0.000 A 
ENDBRANCH   9  12
ENDBRANCH   5   7
BRANCH   1  20
ATOM     19  O   UNL     1       1.805   8.294  19.208  0.00  0.00    +0.000 OA
ATOM     20  C   UNL     1       1.722   7.577  20.197  0.00  0.00    +0.000 C 
ATOM     21  N   UNL     1       1.198   7.915  21.431  0.00  0.00    +0.000 N 
ATOM     22  H   UNL     1       1.378   7.287  22.204  0.00  0.00    +0.000 HD
BRANCH  21  23
ATOM     23  C   UNL     1       0.593   9.147  21.759  0.00  0.00    +0.000 A 
ATOM     24  C   UNL     1      -0.330   9.295  22.799  0.00  0.00    +0.000 A 
ATOM     25  C   UNL     1      -0.917  10.533  23.059  0.00  0.00    +0.000 A 
ATOM     26  C   UNL     1      -0.584  11.641  22.285  0.00  0.00    +0.000 A 
ATOM     27  C   UNL     1       0.351  11.512  21.261  0.00  0.00    +0.000 A 
ATOM     28  C   UNL     1       0.945  10.271  21.003  0.00  0.00    +0.000 A 
ENDBRANCH  21  23
ENDBRANCH   1  20
TORSDOF 4
ENDMDL
MODEL 7
REMARK VINA RESULT:      -8.7      3.582      9.382
REMARK  Name = 
REMARK  4 active torsions:
REMARK  status: ('A' for Active; 'I' for Inactive)
REMARK    1  A    between atoms: C_2  and  C_10
REMARK    2  A    between atoms: N_3  and  C_4
REMARK    3  A    between atoms: C_14  and  C_15
REMARK    4  A    between atoms: C_17  and  C_18
REMARK                            x       y       z     vdW  Elec       q    Type
REMARK                         _______ _______ _______ _____ _____    ______ ____
ROOT
ATOM      1  C   UNL     1       2.603   4.672  20.311  0.00  0.00    +0.000 A 
ATOM      2  C   UNL     1       2.587   3.505  21.080  0.00  0.00    +0.000 A 
ATOM      3  C   UNL     1       3.493   2.483  20.797  0.00  0.00    +0.000 A 
ATOM      4  C   UNL     1       4.416   2.628  19.754  0.00  0.00    +0.000 A 
ATOM      5  C   UNL     1       4.439   3.794  18.974  0.00  0.00    +0.000 A 
ATOM      6  C   UNL     1       3.514   4.806  19.256  0.00  0.00    +0.000 A 
ENDROOT
BRANCH   5   7
ATOM      7  C   UNL     1       5.406   4.003  17.906  0.00  0.00    +0.000 A 
ATOM      8  N   UNL     1       5.231   3.966  16.603  0.00  0.00    +0.000 NA
ATOM      9  C   UNL     1       6.470   4.319  16.121  0.00  0.00    +0.000 A 
ATOM     10  N   UNL     1       7.383   4.549  17.079  0.00  0.00    +0.000 NA
ATOM     11  O   UNL     1       6.678   4.341  18.263  0.00  0.00    +0.000 OA
BRANCH   9  12
ATOM     12  C   UNL     1       6.731   4.458  14.692  0.00  0.00    +0.000 A 
ATOM     13  C   UNL     1       7.721   5.342  14.233  0.00  0.00    +0.000 A 
ATOM     14  C   UNL     1       7.994   5.460  12.867  0.00  0.00    +0.000 A 
ATOM     15  C   UNL     1       7.274   4.695  11.958  0.00  0.00    +0.000 A 
ATOM     16  F   UNL     1       7.540   4.802  10.650  0.00  0.00    +0.000 F 
ATOM     17  C   UNL     1       6.287   3.817  12.386  0.00  0.00    +0.000 A 
ATOM     18  C   UNL     1       6.013   3.699  13.751  0.00  0.00    +0.000 A 
ENDBRANCH   9  12
ENDBRANCH   5   7
BRANCH   1  20
ATOM     19  O   UNL     1       0.480   5.502  20.742  0.00  0.00    +0.000 OA
ATOM     20  C   UNL     1       1.655   5.788  20.549  0.00  0.00    +0.000 C 
ATOM     21  N   UNL     1       2.201   7.055  20.456  0.00  0.00    +0.000 N 
ATOM     22  H   UNL     1       3.144   7.133  20.098  0.00  0.00    +0.000 HD
BRANCH  21  23
ATOM     23  C   UNL     1       1.501   8.268  20.636  0.00  0.00    +0.000 A 
ATOM     24  C   UNL     1       1.016   8.695  21.875  0.00  0.00    +0.000 A 
ATOM     25  C   UNL     1       0.306   9.891  21.988  0.00  0.00    +0.000 A 
ATOM     26  C   UNL     1       0.079  10.677  20.862  0.00  0.00    +0.000 A 
ATOM     27  C   UNL     1       0.576  10.273  19.626  0.00  0.00    +0.000 A 
ATOM     28  C   UNL     1       1.294   9.077  19.513  0.00  0.00    +0.000 A 
ENDBRANCH  21  23
ENDBRANCH   1  20
TORSDOF 4
ENDMDL
MODEL 8
REMARK VINA RESULT:      -8.6      4.780     10.698
REMARK  Name = 
REMARK  4 active torsions:
REMARK  status: ('A' for Active; 'I' for Inactive)
REMARK    1  A    between atoms: C_2  and  C_10
REMARK    2  A    between atoms: N_3  and  C_4
REMARK    3  A    between atoms: C_14  and  C_15
REMARK    4  A    between atoms: C_17  and  C_18
REMARK                            x       y       z     vdW  Elec       q    Type
REMARK                         _______ _______ _______ _____ _____    ______ ____
ROOT
ATOM      1  C   UNL     1      -1.224  11.323  18.336  0.00  0.00    +0.000 A 
ATOM      2  C   UNL     1      -0.580  12.556  18.464  0.00  0.00    +0.000 A 
ATOM      3  C   UNL     1       0.801  12.593  18.657  0.00  0.00    +0.000 A 
ATOM      4  C   UNL     1       1.537  11.403  18.716  0.00  0.00    +0.000 A 
ATOM      5  C   UNL     1       0.899  10.159  18.592  0.00  0.00    +0.000 A 
ATOM      6  C   UNL     1      -0.489  10.134  18.417  0.00  0.00    +0.000 A 
ENDROOT
BRANCH   5   7
ATOM      7  C   UNL     1       1.629   8.899  18.609  0.00  0.00    +0.000 A 
ATOM      8  N   UNL     1       2.255   8.284  17.631  0.00  0.00    +0.000 NA
ATOM      9  C   UNL     1       2.813   7.198  18.263  0.00  0.00    +0.000 A 
ATOM     10  N   UNL     1       2.533   7.128  19.576  0.00  0.00    +0.000 NA
ATOM     11  O   UNL     1       1.749   8.256  19.806  0.00  0.00    +0.000 OA
BRANCH   9  12
ATOM     12  C   UNL     1       3.659   6.243  17.555  0.00  0.00    +0.000 A 
ATOM     13  C   UNL     1       4.689   6.694  16.713  0.00  0.00    +0.000 A 
ATOM     14  C   UNL     1       5.520   5.784  16.053  0.00  0.00    +0.000 A 
ATOM     15  C   UNL     1       5.320   4.421  16.232  0.00  0.00    +0.000 A 
ATOM     16  F   UNL     1       6.119   3.549  15.605  0.00  0.00    +0.000 F 
ATOM     17  C   UNL     1       4.304   3.950  17.054  0.00  0.00    +0.000 A 
ATOM     18  C   UNL     1       3.474   4.858  17.715  0.00  0.00    +0.000 A 
ENDBRANCH   9  12
ENDBRANCH   5   7
BRANCH   1  20
ATOM     19  O   UNL     1      -3.103  10.340  17.393  0.00  0.00    +0.000 OA
ATOM     20  C   UNL     1      -2.692  11.214  18.148  0.00  0.00    +0.000 C 
ATOM     21  N   UNL     1      -3.443  12.172  18.802  0.00  0.00    +0.000 N 
ATOM     22  H   UNL     1      -2.948  12.944  19.229  0.00  0.00    +0.000 HD
BRANCH  21  23
ATOM     23  C   UNL     1      -4.851  12.277  18.771  0.00  0.00    +0.000 A 
ATOM     24  C   UNL     1      -5.592  12.296  17.587  0.00  0.00    +0.000 A 
ATOM     25  C   UNL     1      -6.981  12.430  17.618  0.00  0.00    +0.000 A 
ATOM     26  C   UNL     1      -7.645  12.541  18.837  0.00  0.00    +0.000 A 
ATOM     27  C   UNL     1      -6.919  12.502  20.024  0.00  0.00    +0.000 A 
ATOM     28  C   UNL     1      -5.527  12.361  19.994  0.00  0.00    +0.000 A 
ENDBRANCH  21  23
ENDBRANCH   1  20
TORSDOF 4
ENDMDL
MODEL 9
REMARK VINA RESULT:      -8.6      1.310      1.786
REMARK  Name = 
REMARK  4 active torsions:
REMARK  status: ('A' for Active; 'I' for Inactive)
REMARK    1  A    between atoms: C_2  and  C_10
REMARK    2  A    between atoms: N_3  and  C_4
REMARK    3  A    between atoms: C_14  and  C_15
REMARK    4  A    between atoms: C_17  and  C_18
REMARK                            x       y       z     vdW  Elec       q    Type
REMARK                         _______ _______ _______ _____ _____    ______ ____
ROOT
ATOM      1  C   UNL     1       4.730   4.917  17.795  0.00  0.00    +0.000 A 
ATOM      2  C   UNL     1       4.487   4.036  18.852  0.00  0.00    +0.000 A 
ATOM      3  C   UNL     1       3.562   4.383  19.836  0.00  0.00    +0.000 A 
ATOM      4  C   UNL     1       2.878   5.602  19.762  0.00  0.00    +0.000 A 
ATOM      5  C   UNL     1       3.116   6.495  18.707  0.00  0.00    +0.000 A 
ATOM      6  C   UNL     1       4.060   6.145  17.734  0.00  0.00    +0.000 A 
ENDROOT
BRANCH   5   7
ATOM      7  C   UNL     1       2.400   7.756  18.569  0.00  0.00    +0.000 A 
ATOM      8  N   UNL     1       1.579   8.345  19.410  0.00  0.00    +0.000 NA
ATOM      9  C   UNL     1       1.288   9.528  18.771  0.00  0.00    +0.000 A 
ATOM     10  N   UNL     1       1.886   9.663  17.575  0.00  0.00    +0.000 NA
ATOM     11  O   UNL     1       2.624   8.489  17.441  0.00  0.00    +0.000 OA
BRANCH   9  12
ATOM     12  C   UNL     1       0.432  10.542  19.377  0.00  0.00    +0.000 A 
ATOM     13  C   UNL     1      -0.873  10.750  18.898  0.00  0.00    +0.000 A 
ATOM     14  C   UNL     1      -1.707  11.701  19.492  0.00  0.00    +0.000 A 
ATOM     15  C   UNL     1      -1.237  12.448  20.564  0.00  0.00    +0.000 A 
ATOM     16  F   UNL     1      -2.037  13.354  21.139  0.00  0.00    +0.000 F 
ATOM     17  C   UNL     1       0.051  12.266  21.053  0.00  0.00    +0.000 A 
ATOM     18  C   UNL     1       0.885  11.315  20.460  0.00  0.00    +0.000 A 
ENDBRANCH   9  12
ENDBRANCH   5   7
BRANCH   1  20
ATOM     19  O   UNL     1       6.849   4.308  17.070  0.00  0.00    +0.000 OA
ATOM     20  C   UNL     1       5.714   4.616  16.726  0.00  0.00    +0.000 C 
ATOM     21  N   UNL     1       5.253   4.788  15.434  0.00  0.00    +0.000 N 
ATOM     22  H   UNL     1       4.353   5.235  15.314  0.00  0.00    +0.000 HD
BRANCH  21  23
ATOM     23  C   UNL     1       6.000   4.570  14.257  0.00  0.00    +0.000 A 
ATOM     24  C   UNL     1       7.176   5.264  13.956  0.00  0.00    +0.000 A 
ATOM     25  C   UNL     1       7.857   5.025  12.761  0.00  0.00    +0.000 A 
ATOM     26  C   UNL     1       7.374   4.085  11.857  0.00  0.00    +0.000 A 
ATOM     27  C   UNL     1       6.216   3.371  12.155  0.00  0.00    +0.000 A 
ATOM     28  C   UNL     1       5.535   3.605  13.355  0.00  0.00    +0.000 A 
ENDBRANCH  21  23
ENDBRANCH   1  20
TORSDOF 4
ENDMDL
