MODEL 1
REMARK VINA RESULT:      -8.6      0.000      0.000
REMARK  Name = 
REMARK  7 active torsions:
REMARK  status: ('A' for Active; 'I' for Inactive)
REMARK    1  A    between atoms: C_1  and  N_2
REMARK    2  A    between atoms: N_2  and  C_3
REMARK    3  A    between atoms: N_2  and  C_19
REMARK    4  A    between atoms: C_6  and  N_7
REMARK    5  A    between atoms: C_8  and  C_10
REMARK    6  A    between atoms: N_22  and  C_23
REMARK    7  A    between atoms: C_23  and  C_24
REMARK                            x       y       z     vdW  Elec       q    Type
REMARK                         _______ _______ _______ _____ _____    ______ ____
ROOT
ATOM      1  C   UNL     1       2.548   5.127  18.959  0.00  0.00    +0.000 A 
ATOM      2  C   UNL     1       2.174   5.214  20.304  0.00  0.00    +0.000 A 
ATOM      3  C   UNL     1       1.782   6.425  20.884  0.00  0.00    +0.000 A 
ATOM      4  C   UNL     1       1.749   7.599  20.138  0.00  0.00    +0.000 A 
ATOM      5  C   UNL     1       2.072   7.536  18.787  0.00  0.00    +0.000 A 
ATOM      6  C   UNL     1       2.489   6.321  18.220  0.00  0.00    +0.000 A 
ENDROOT
BRANCH   4   7
ATOM      7  N   UNL     1       1.389   8.847  20.687  0.00  0.00    +0.000 N 
ATOM      8  C   UNL     1       0.171   9.127  21.285  0.00  0.00    +0.000 C 
ATOM      9  O   UNL     1      -0.715   8.310  21.533  0.00  0.00    +0.000 OA
ATOM     10  H   UNL     1       2.097   9.568  20.661  0.00  0.00    +0.000 HD
BRANCH   8  11
ATOM     11  C   UNL     1      -0.096  10.541  21.652  0.00  0.00    +0.000 A 
ATOM     12  C   UNL     1      -0.949  10.760  22.747  0.00  0.00    +0.000 A 
ATOM     13  C   UNL     1      -1.263  12.055  23.153  0.00  0.00    +0.000 A 
ATOM     14  C   UNL     1      -0.717  13.130  22.466  0.00  0.00    +0.000 A 
ATOM     15  F   UNL     1      -1.018  14.376  22.848  0.00  0.00    +0.000 F 
ATOM     16  C   UNL     1       0.145  12.932  21.390  0.00  0.00    +0.000 A 
ATOM     17  C   UNL     1       0.465  11.634  20.980  0.00  0.00    +0.000 A 
ENDBRANCH   8  11
ENDBRANCH   4   7
BRANCH   1  19
ATOM     18  C   UNL     1       1.990   2.834  18.267  0.00  0.00    +0.000 C 
ATOM     19  N   UNL     1       2.966   3.916  18.409  0.00  0.00    +0.000 N 
BRANCH  19  20
ATOM     20  C   UNL     1       4.286   3.816  17.763  0.00  0.00    +0.000 C 
ATOM     21  C   UNL     1       5.402   4.215  18.729  0.00  0.00    +0.000 C 
ATOM     22  C   UNL     1       5.882   5.553  18.200  0.00  0.00    +0.000 C 
ATOM     23  N   UNL     1       5.780   5.451  16.734  0.00  0.00    +0.000 NA
ATOM     24  C   UNL     1       4.500   4.728  16.531  0.00  0.00    +0.000 C 
BRANCH  23  25
ATOM     25  C   UNL     1       6.939   4.709  16.199  0.00  0.00    +0.000 C 
BRANCH  25  26
ATOM     26  C   UNL     1       6.955   4.537  14.695  0.00  0.00    +0.000 A 
ATOM     27  C   UNL     1       7.727   5.417  13.917  0.00  0.00    +0.000 A 
ATOM     28  C   UNL     1       7.754   5.309  12.525  0.00  0.00    +0.000 A 
ATOM     29  C   UNL     1       7.001   4.323  11.894  0.00  0.00    +0.000 A 
ATOM     30  C   UNL     1       6.216   3.467  12.658  0.00  0.00    +0.000 A 
ATOM     31  F   UNL     1       5.487   2.524  12.047  0.00  0.00    +0.000 F 
ATOM     32  C   UNL     1       6.176   3.571  14.045  0.00  0.00    +0.000 A 
ENDBRANCH  25  26
ENDBRANCH  23  25
ENDBRANCH  19  20
ENDBRANCH   1  19
TORSDOF 6
ENDMDL
MODEL 2
REMARK VINA RESULT:      -8.3      3.199      5.111
REMARK  Name = 
REMARK  7 active torsions:
REMARK  status: ('A' for Active; 'I' for Inactive)
REMARK    1  A    between atoms: C_1  and  N_2
REMARK    2  A    between atoms: N_2  and  C_3
REMARK    3  A    between atoms: N_2  and  C_19
REMARK    4  A    between atoms: C_6  and  N_7
REMARK    5  A    between atoms: C_8  and  C_10
REMARK    6  A    between atoms: N_22  and  C_23
REMARK    7  A    between atoms: C_23  and  C_24
REMARK                            x       y       z     vdW  Elec       q    Type
REMARK                         _______ _______ _______ _____ _____    ______ ____
ROOT
ATOM      1  C   UNL     1       2.718   7.769  18.371  0.00  0.00    +0.000 A 
ATOM      2  C   UNL     1       2.212   8.871  17.674  0.00  0.00    +0.000 A 
ATOM      3  C   UNL     1       1.234   9.707  18.222  0.00  0.00    +0.000 A 
ATOM      4  C   UNL     1       0.722   9.471  19.494  0.00  0.00    +0.000 A 
ATOM      5  C   UNL     1       1.237   8.410  20.231  0.00  0.00    +0.000 A 
ATOM      6  C   UNL     1       2.200   7.561  19.662  0.00  0.00    +0.000 A 
ENDROOT
BRANCH   4   7
ATOM      7  N   UNL     1      -0.286  10.268  20.076  0.00  0.00    +0.000 N 
ATOM      8  C   UNL     1      -0.068  11.235  21.044  0.00  0.00    +0.000 C 
ATOM      9  O   UNL     1       1.029  11.623  21.443  0.00  0.00    +0.000 OA
ATOM     10  H   UNL     1      -1.223  10.130  19.725  0.00  0.00    +0.000 HD
BRANCH   8  11
ATOM     11  C   UNL     1      -1.267  11.856  21.664  0.00  0.00    +0.000 A 
ATOM     12  C   UNL     1      -1.991  12.763  20.871  0.00  0.00    +0.000 A 
ATOM     13  C   UNL     1      -3.122  13.400  21.378  0.00  0.00    +0.000 A 
ATOM     14  C   UNL     1      -3.530  13.124  22.674  0.00  0.00    +0.000 A 
ATOM     15  F   UNL     1      -4.612  13.736  23.168  0.00  0.00    +0.000 F 
ATOM     16  C   UNL     1      -2.836  12.214  23.468  0.00  0.00    +0.000 A 
ATOM     17  C   UNL     1      -1.702  11.570  22.964  0.00  0.00    +0.000 A 
ENDBRANCH   8  11
ENDBRANCH   4   7
BRANCH   1  19
ATOM     18  C   UNL     1       4.713   7.524  16.955  0.00  0.00    +0.000 C 
ATOM     19  N   UNL     1       3.671   6.932  17.794  0.00  0.00    +0.000 N 
BRANCH  19  20
ATOM     20  C   UNL     1       3.768   5.524  18.219  0.00  0.00    +0.000 C 
ATOM     21  C   UNL     1       5.225   5.114  18.434  0.00  0.00    +0.000 C 
ATOM     22  C   UNL     1       5.518   4.185  17.272  0.00  0.00    +0.000 C 
ATOM     23  N   UNL     1       4.266   3.444  17.040  0.00  0.00    +0.000 NA
ATOM     24  C   UNL     1       3.219   4.482  17.215  0.00  0.00    +0.000 C 
BRANCH  23  25
ATOM     25  C   UNL     1       4.141   2.346  18.019  0.00  0.00    +0.000 C 
BRANCH  25  26
ATOM     26  C   UNL     1       3.009   2.494  19.012  0.00  0.00    +0.000 A 
ATOM     27  C   UNL     1       1.685   2.345  18.564  0.00  0.00    +0.000 A 
ATOM     28  C   UNL     1       0.609   2.495  19.441  0.00  0.00    +0.000 A 
ATOM     29  C   UNL     1       0.845   2.804  20.777  0.00  0.00    +0.000 A 
ATOM     30  C   UNL     1       2.152   2.977  21.219  0.00  0.00    +0.000 A 
ATOM     31  F   UNL     1       2.375   3.282  22.504  0.00  0.00    +0.000 F 
ATOM     32  C   UNL     1       3.230   2.838  20.352  0.00  0.00    +0.000 A 
ENDBRANCH  25  26
ENDBRANCH  23  25
ENDBRANCH  19  20
ENDBRANCH   1  19
TORSDOF 6
ENDMDL
MODEL 3
REMARK VINA RESULT:      -8.3      1.580      2.283
REMARK  Name = 
REMARK  7 active torsions:
REMARK  status: ('A' for Active; 'I' for Inactive)
REMARK    1  A    between atoms: C_1  and  N_2
REMARK    2  A    between atoms: N_2  and  C_3
REMARK    3  A    between atoms: N_2  and  C_19
REMARK    4  A    between atoms: C_6  and  N_7
REMARK    5  A    between atoms: C_8  and  C_10
REMARK    6  A    between atoms: N_22  and  C_23
REMARK    7  A    between atoms: C_23  and  C_24
REMARK                            x       y       z     vdW  Elec       q    Type
REMARK                         _______ _______ _______ _____ _____    ______ ____
ROOT
ATOM      1  C   UNL     1       3.649   6.452  18.489  0.00  0.00    +0.000 A 
ATOM      2  C   UNL     1       2.964   6.224  19.687  0.00  0.00    +0.000 A 
ATOM      3  C   UNL     1       2.019   7.129  20.181  0.00  0.00    +0.000 A 
ATOM      4  C   UNL     1       1.723   8.302  19.494  0.00  0.00    +0.000 A 
ATOM      5  C   UNL     1       2.356   8.537  18.277  0.00  0.00    +0.000 A 
ATOM      6  C   UNL     1       3.321   7.634  17.802  0.00  0.00    +0.000 A 
ENDROOT
BRANCH   4   7
ATOM      7  N   UNL     1       0.802   9.259  19.968  0.00  0.00    +0.000 N 
ATOM      8  C   UNL     1       0.800   9.789  21.248  0.00  0.00    +0.000 C 
ATOM      9  O   UNL     1       1.660   9.601  22.108  0.00  0.00    +0.000 OA
ATOM     10  H   UNL     1       0.121   9.593  19.301  0.00  0.00    +0.000 HD
BRANCH   8  11
ATOM     11  C   UNL     1      -0.346  10.655  21.622  0.00  0.00    +0.000 A 
ATOM     12  C   UNL     1      -0.918  11.428  20.597  0.00  0.00    +0.000 A 
ATOM     13  C   UNL     1      -1.989  12.277  20.862  0.00  0.00    +0.000 A 
ATOM     14  C   UNL     1      -2.492  12.347  22.153  0.00  0.00    +0.000 A 
ATOM     15  F   UNL     1      -3.519  13.164  22.415  0.00  0.00    +0.000 F 
ATOM     16  C   UNL     1      -1.953  11.575  23.178  0.00  0.00    +0.000 A 
ATOM     17  C   UNL     1      -0.878  10.719  22.917  0.00  0.00    +0.000 A 
ENDBRANCH   8  11
ENDBRANCH   4   7
BRANCH   1  19
ATOM     18  C   UNL     1       5.015   4.451  18.904  0.00  0.00    +0.000 C 
ATOM     19  N   UNL     1       4.609   5.552  18.030  0.00  0.00    +0.000 N 
BRANCH  19  20
ATOM     20  C   UNL     1       5.016   5.567  16.614  0.00  0.00    +0.000 C 
ATOM     21  C   UNL     1       4.477   4.344  15.873  0.00  0.00    +0.000 C 
ATOM     22  C   UNL     1       5.709   3.496  15.623  0.00  0.00    +0.000 C 
ATOM     23  N   UNL     1       6.797   4.456  15.366  0.00  0.00    +0.000 NA
ATOM     24  C   UNL     1       6.542   5.532  16.356  0.00  0.00    +0.000 C 
BRANCH  23  25
ATOM     25  C   UNL     1       6.723   4.941  13.973  0.00  0.00    +0.000 C 
BRANCH  25  26
ATOM     26  C   UNL     1       6.286   3.910  12.955  0.00  0.00    +0.000 A 
ATOM     27  C   UNL     1       7.248   3.042  12.408  0.00  0.00    +0.000 A 
ATOM     28  C   UNL     1       6.894   2.092  11.449  0.00  0.00    +0.000 A 
ATOM     29  C   UNL     1       5.573   2.003  11.019  0.00  0.00    +0.000 A 
ATOM     30  C   UNL     1       4.624   2.876  11.538  0.00  0.00    +0.000 A 
ATOM     31  F   UNL     1       3.356   2.793  11.116  0.00  0.00    +0.000 F 
ATOM     32  C   UNL     1       4.968   3.833  12.488  0.00  0.00    +0.000 A 
ENDBRANCH  25  26
ENDBRANCH  23  25
ENDBRANCH  19  20
ENDBRANCH   1  19
TORSDOF 6
ENDMDL
MODEL 4
REMARK VINA RESULT:      -8.1      1.653      2.048
REMARK  Name = 
REMARK  7 active torsions:
REMARK  status: ('A' for Active; 'I' for Inactive)
REMARK    1  A    between atoms: C_1  and  N_2
REMARK    2  A    between atoms: N_2  and  C_3
REMARK    3  A    between atoms: N_2  and  C_19
REMARK    4  A    between atoms: C_6  and  N_7
REMARK    5  A    between atoms: C_8  and  C_10
REMARK    6  A    between atoms: N_22  and  C_23
REMARK    7  A    between atoms: C_23  and  C_24
REMARK                            x       y       z     vdW  Elec       q    Type
REMARK                         _______ _______ _______ _____ _____    ______ ____
ROOT
ATOM      1  C   UNL     1       2.430   5.998  19.190  0.00  0.00    +0.000 A 
ATOM      2  C   UNL     1       2.408   6.863  18.091  0.00  0.00    +0.000 A 
ATOM      3  C   UNL     1       2.018   8.201  18.213  0.00  0.00    +0.000 A 
ATOM      4  C   UNL     1       1.634   8.726  19.443  0.00  0.00    +0.000 A 
ATOM      5  C   UNL     1       1.688   7.902  20.563  0.00  0.00    +0.000 A 
ATOM      6  C   UNL     1       2.056   6.554  20.426  0.00  0.00    +0.000 A 
ENDROOT
BRANCH   4   7
ATOM      7  N   UNL     1       1.205  10.060  19.609  0.00  0.00    +0.000 N 
ATOM      8  C   UNL     1       0.080  10.608  19.014  0.00  0.00    +0.000 C 
ATOM      9  O   UNL     1      -0.765   9.993  18.365  0.00  0.00    +0.000 OA
ATOM     10  H   UNL     1       1.753  10.631  20.236  0.00  0.00    +0.000 HD
BRANCH   8  11
ATOM     11  C   UNL     1      -0.122  12.071  19.165  0.00  0.00    +0.000 A 
ATOM     12  C   UNL     1      -1.194  12.482  19.976  0.00  0.00    +0.000 A 
ATOM     13  C   UNL     1      -1.463  13.835  20.162  0.00  0.00    +0.000 A 
ATOM     14  C   UNL     1      -0.655  14.777  19.543  0.00  0.00    +0.000 A 
ATOM     15  F   UNL     1      -0.911  16.080  19.715  0.00  0.00    +0.000 F 
ATOM     16  C   UNL     1       0.424  14.390  18.752  0.00  0.00    +0.000 A 
ATOM     17  C   UNL     1       0.700  13.033  18.563  0.00  0.00    +0.000 A 
ENDBRANCH   8  11
ENDBRANCH   4   7
BRANCH   1  19
ATOM     18  C   UNL     1       1.825   3.625  19.404  0.00  0.00    +0.000 C 
ATOM     19  N   UNL     1       2.793   4.660  19.040  0.00  0.00    +0.000 N 
BRANCH  19  20
ATOM     20  C   UNL     1       4.020   4.307  18.306  0.00  0.00    +0.000 C 
ATOM     21  C   UNL     1       5.248   4.956  18.943  0.00  0.00    +0.000 C 
ATOM     22  C   UNL     1       5.650   6.030  17.951  0.00  0.00    +0.000 C 
ATOM     23  N   UNL     1       5.361   5.461  16.623  0.00  0.00    +0.000 NA
ATOM     24  C   UNL     1       4.069   4.760  16.827  0.00  0.00    +0.000 C 
BRANCH  23  25
ATOM     25  C   UNL     1       6.445   4.542  16.222  0.00  0.00    +0.000 C 
BRANCH  25  26
ATOM     26  C   UNL     1       6.670   4.424  14.730  0.00  0.00    +0.000 A 
ATOM     27  C   UNL     1       7.614   5.266  14.114  0.00  0.00    +0.000 A 
ATOM     28  C   UNL     1       7.838   5.206  12.738  0.00  0.00    +0.000 A 
ATOM     29  C   UNL     1       7.115   4.309  11.958  0.00  0.00    +0.000 A 
ATOM     30  C   UNL     1       6.163   3.492  12.559  0.00  0.00    +0.000 A 
ATOM     31  F   UNL     1       5.463   2.635  11.804  0.00  0.00    +0.000 F 
ATOM     32  C   UNL     1       5.926   3.549  13.928  0.00  0.00    +0.000 A 
ENDBRANCH  25  26
ENDBRANCH  23  25
ENDBRANCH  19  20
ENDBRANCH   1  19
TORSDOF 6
ENDMDL
MODEL 5
REMARK VINA RESULT:      -8.1      1.591      2.355
REMARK  Name = 
REMARK  7 active torsions:
REMARK  status: ('A' for Active; 'I' for Inactive)
REMARK    1  A    between atoms: C_1  and  N_2
REMARK    2  A    between atoms: N_2  and  C_3
REMARK    3  A    between atoms: N_2  and  C_19
REMARK    4  A    between atoms: C_6  and  N_7
REMARK    5  A    between atoms: C_8  and  C_10
REMARK    6  A    between atoms: N_22  and  C_23
REMARK    7  A    between atoms: C_23  and  C_24
REMARK                            x       y       z     vdW  Elec       q    Type
REMARK                         _______ _______ _______ _____ _____    ______ ____
ROOT
ATOM      1  C   UNL     1       3.694   6.477  18.449  0.00  0.00    +0.000 A 
ATOM      2  C   UNL     1       2.987   6.239  19.632  0.00  0.00    +0.000 A 
ATOM      3  C   UNL     1       2.039   7.144  20.121  0.00  0.00    +0.000 A 
ATOM      4  C   UNL     1       1.763   8.327  19.443  0.00  0.00    +0.000 A 
ATOM      5  C   UNL     1       2.418   8.572  18.240  0.00  0.00    +0.000 A 
ATOM      6  C   UNL     1       3.386   7.670  17.771  0.00  0.00    +0.000 A 
ENDROOT
BRANCH   4   7
ATOM      7  N   UNL     1       0.838   9.284  19.913  0.00  0.00    +0.000 N 
ATOM      8  C   UNL     1       0.821   9.802  21.197  0.00  0.00    +0.000 C 
ATOM      9  O   UNL     1       1.668   9.603  22.067  0.00  0.00    +0.000 OA
ATOM     10  H   UNL     1       0.169   9.627  19.239  0.00  0.00    +0.000 HD
BRANCH   8  11
ATOM     11  C   UNL     1      -0.327  10.670  21.563  0.00  0.00    +0.000 A 
ATOM     12  C   UNL     1      -0.894  11.438  20.531  0.00  0.00    +0.000 A 
ATOM     13  C   UNL     1      -1.967  12.288  20.789  0.00  0.00    +0.000 A 
ATOM     14  C   UNL     1      -2.475  12.365  22.077  0.00  0.00    +0.000 A 
ATOM     15  F   UNL     1      -3.503  13.184  22.331  0.00  0.00    +0.000 F 
ATOM     16  C   UNL     1      -1.939  11.598  23.109  0.00  0.00    +0.000 A 
ATOM     17  C   UNL     1      -0.863  10.741  22.855  0.00  0.00    +0.000 A 
ENDBRANCH   8  11
ENDBRANCH   4   7
BRANCH   1  19
ATOM     18  C   UNL     1       5.047   4.467  18.866  0.00  0.00    +0.000 C 
ATOM     19  N   UNL     1       4.656   5.576  17.996  0.00  0.00    +0.000 N 
BRANCH  19  20
ATOM     20  C   UNL     1       5.083   5.602  16.586  0.00  0.00    +0.000 C 
ATOM     21  C   UNL     1       4.553   4.384  15.829  0.00  0.00    +0.000 C 
ATOM     22  C   UNL     1       5.787   3.537  15.590  0.00  0.00    +0.000 C 
ATOM     23  N   UNL     1       6.880   4.497  15.355  0.00  0.00    +0.000 NA
ATOM     24  C   UNL     1       6.612   5.567  16.349  0.00  0.00    +0.000 C 
BRANCH  23  25
ATOM     25  C   UNL     1       6.825   4.992  13.965  0.00  0.00    +0.000 C 
BRANCH  25  26
ATOM     26  C   UNL     1       6.316   3.996  12.946  0.00  0.00    +0.000 A 
ATOM     27  C   UNL     1       4.958   4.027  12.582  0.00  0.00    +0.000 A 
ATOM     28  C   UNL     1       4.440   3.113  11.663  0.00  0.00    +0.000 A 
ATOM     29  C   UNL     1       5.273   2.150  11.102  0.00  0.00    +0.000 A 
ATOM     30  C   UNL     1       6.611   2.098  11.478  0.00  0.00    +0.000 A 
ATOM     31  F   UNL     1       7.408   1.165  10.942  0.00  0.00    +0.000 F 
ATOM     32  C   UNL     1       7.135   3.000  12.399  0.00  0.00    +0.000 A 
ENDBRANCH  25  26
ENDBRANCH  23  25
ENDBRANCH  19  20
ENDBRANCH   1  19
TORSDOF 6
ENDMDL
MODEL 6
REMARK VINA RESULT:      -8.1      3.064      5.002
REMARK  Name = 
REMARK  7 active torsions:
REMARK  status: ('A' for Active; 'I' for Inactive)
REMARK    1  A    between atoms: C_1  and  N_2
REMARK    2  A    between atoms: N_2  and  C_3
REMARK    3  A    between atoms: N_2  and  C_19
REMARK    4  A    between atoms: C_6  and  N_7
REMARK    5  A    between atoms: C_8  and  C_10
REMARK    6  A    between atoms: N_22  and  C_23
REMARK    7  A    between atoms: C_23  and  C_24
REMARK                            x       y       z     vdW  Elec       q    Type
REMARK                         _______ _______ _______ _____ _____    ______ ____
ROOT
ATOM      1  C   UNL     1       2.707   7.764  18.401  0.00  0.00    +0.000 A 
ATOM      2  C   UNL     1       2.170   8.847  17.697  0.00  0.00    +0.000 A 
ATOM      3  C   UNL     1       1.179   9.667  18.246  0.00  0.00    +0.000 A 
ATOM      4  C   UNL     1       0.686   9.434  19.526  0.00  0.00    +0.000 A 
ATOM      5  C   UNL     1       1.231   8.392  20.269  0.00  0.00    +0.000 A 
ATOM      6  C   UNL     1       2.207   7.559  19.699  0.00  0.00    +0.000 A 
ENDROOT
BRANCH   4   7
ATOM      7  N   UNL     1      -0.333  10.215  20.110  0.00  0.00    +0.000 N 
ATOM      8  C   UNL     1      -0.125  11.213  21.048  0.00  0.00    +0.000 C 
ATOM      9  O   UNL     1       0.969  11.644  21.413  0.00  0.00    +0.000 OA
ATOM     10  H   UNL     1      -1.273  10.041  19.784  0.00  0.00    +0.000 HD
BRANCH   8  11
ATOM     11  C   UNL     1      -1.328  11.813  21.679  0.00  0.00    +0.000 A 
ATOM     12  C   UNL     1      -2.106  12.665  20.875  0.00  0.00    +0.000 A 
ATOM     13  C   UNL     1      -3.244  13.279  21.390  0.00  0.00    +0.000 A 
ATOM     14  C   UNL     1      -3.607  13.037  22.707  0.00  0.00    +0.000 A 
ATOM     15  F   UNL     1      -4.698  13.629  23.208  0.00  0.00    +0.000 F 
ATOM     16  C   UNL     1      -2.860  12.182  23.513  0.00  0.00    +0.000 A 
ATOM     17  C   UNL     1      -1.717  11.561  23.000  0.00  0.00    +0.000 A 
ENDBRANCH   8  11
ENDBRANCH   4   7
BRANCH   1  19
ATOM     18  C   UNL     1       4.648   7.535  16.909  0.00  0.00    +0.000 C 
ATOM     19  N   UNL     1       3.671   6.941  17.822  0.00  0.00    +0.000 N 
BRANCH  19  20
ATOM     20  C   UNL     1       3.852   5.562  18.311  0.00  0.00    +0.000 C 
ATOM     21  C   UNL     1       5.331   5.247  18.533  0.00  0.00    +0.000 C 
ATOM     22  C   UNL     1       5.672   4.284  17.412  0.00  0.00    +0.000 C 
ATOM     23  N   UNL     1       4.463   3.462  17.224  0.00  0.00    +0.000 NA
ATOM     24  C   UNL     1       3.359   4.445  17.359  0.00  0.00    +0.000 C 
BRANCH  23  25
ATOM     25  C   UNL     1       4.407   2.405  18.253  0.00  0.00    +0.000 C 
BRANCH  25  26
ATOM     26  C   UNL     1       3.281   2.540  19.255  0.00  0.00    +0.000 A 
ATOM     27  C   UNL     1       3.594   2.664  20.620  0.00  0.00    +0.000 A 
ATOM     28  C   UNL     1       2.586   2.769  21.581  0.00  0.00    +0.000 A 
ATOM     29  C   UNL     1       1.251   2.741  21.187  0.00  0.00    +0.000 A 
ATOM     30  C   UNL     1       0.937   2.592  19.841  0.00  0.00    +0.000 A 
ATOM     31  F   UNL     1      -0.349   2.558  19.467  0.00  0.00    +0.000 F 
ATOM     32  C   UNL     1       1.933   2.479  18.877  0.00  0.00    +0.000 A 
ENDBRANCH  25  26
ENDBRANCH  23  25
ENDBRANCH  19  20
ENDBRANCH   1  19
TORSDOF 6
ENDMDL
MODEL 7
REMARK VINA RESULT:      -8.1      0.718      1.419
REMARK  Name = 
REMARK  7 active torsions:
REMARK  status: ('A' for Active; 'I' for Inactive)
REMARK    1  A    between atoms: C_1  and  N_2
REMARK    2  A    between atoms: N_2  and  C_3
REMARK    3  A    between atoms: N_2  and  C_19
REMARK    4  A    between atoms: C_6  and  N_7
REMARK    5  A    between atoms: C_8  and  C_10
REMARK    6  A    between atoms: N_22  and  C_23
REMARK    7  A    between atoms: C_23  and  C_24
REMARK                            x       y       z     vdW  Elec       q    Type
REMARK                         _______ _______ _______ _____ _____    ______ ____
ROOT
ATOM      1  C   UNL     1       2.599   5.111  18.958  0.00  0.00    +0.000 A 
ATOM      2  C   UNL     1       2.660   6.328  18.272  0.00  0.00    +0.000 A 
ATOM      3  C   UNL     1       2.212   7.522  18.844  0.00  0.00    +0.000 A 
ATOM      4  C   UNL     1       1.682   7.544  20.131  0.00  0.00    +0.000 A 
ATOM      5  C   UNL     1       1.648   6.357  20.856  0.00  0.00    +0.000 A 
ATOM      6  C   UNL     1       2.078   5.159  20.262  0.00  0.00    +0.000 A 
ENDROOT
BRANCH   4   7
ATOM      7  N   UNL     1       1.189   8.718  20.738  0.00  0.00    +0.000 N 
ATOM      8  C   UNL     1       0.546   9.745  20.067  0.00  0.00    +0.000 C 
ATOM      9  O   UNL     1       0.204   9.733  18.885  0.00  0.00    +0.000 OA
ATOM     10  H   UNL     1       1.294   8.780  21.741  0.00  0.00    +0.000 HD
BRANCH   8  11
ATOM     11  C   UNL     1       0.248  10.978  20.840  0.00  0.00    +0.000 A 
ATOM     12  C   UNL     1       0.879  12.160  20.414  0.00  0.00    +0.000 A 
ATOM     13  C   UNL     1       0.666  13.359  21.089  0.00  0.00    +0.000 A 
ATOM     14  C   UNL     1      -0.184  13.377  22.185  0.00  0.00    +0.000 A 
ATOM     15  F   UNL     1      -0.389  14.526  22.840  0.00  0.00    +0.000 F 
ATOM     16  C   UNL     1      -0.832  12.220  22.611  0.00  0.00    +0.000 A 
ATOM     17  C   UNL     1      -0.624  11.014  21.936  0.00  0.00    +0.000 A 
ENDBRANCH   8  11
ENDBRANCH   4   7
BRANCH   1  19
ATOM     18  C   UNL     1       2.052   2.852  18.156  0.00  0.00    +0.000 C 
ATOM     19  N   UNL     1       3.024   3.927  18.356  0.00  0.00    +0.000 N 
BRANCH  19  20
ATOM     20  C   UNL     1       4.351   3.859  17.720  0.00  0.00    +0.000 C 
ATOM     21  C   UNL     1       5.449   4.295  18.690  0.00  0.00    +0.000 C 
ATOM     22  C   UNL     1       5.896   5.641  18.154  0.00  0.00    +0.000 C 
ATOM     23  N   UNL     1       5.806   5.526  16.688  0.00  0.00    +0.000 NA
ATOM     24  C   UNL     1       4.548   4.767  16.482  0.00  0.00    +0.000 C 
BRANCH  23  25
ATOM     25  C   UNL     1       6.988   4.812  16.165  0.00  0.00    +0.000 C 
BRANCH  25  26
ATOM     26  C   UNL     1       7.011   4.614  14.665  0.00  0.00    +0.000 A 
ATOM     27  C   UNL     1       7.812   5.462  13.878  0.00  0.00    +0.000 A 
ATOM     28  C   UNL     1       7.845   5.330  12.489  0.00  0.00    +0.000 A 
ATOM     29  C   UNL     1       7.072   4.354  11.868  0.00  0.00    +0.000 A 
ATOM     30  C   UNL     1       6.259   3.531  12.640  0.00  0.00    +0.000 A 
ATOM     31  F   UNL     1       5.510   2.598  12.039  0.00  0.00    +0.000 F 
ATOM     32  C   UNL     1       6.212   3.659  14.025  0.00  0.00    +0.000 A 
ENDBRANCH  25  26
ENDBRANCH  23  25
ENDBRANCH  19  20
ENDBRANCH   1  19
TORSDOF 6
ENDMDL
MODEL 8
REMARK VINA RESULT:      -8.1      3.238      4.604
REMARK  Name = 
REMARK  7 active torsions:
REMARK  status: ('A' for Active; 'I' for Inactive)
REMARK    1  A    between atoms: C_1  and  N_2
REMARK    2  A    between atoms: N_2  and  C_3
REMARK    3  A    between atoms: N_2  and  C_19
REMARK    4  A    between atoms: C_6  and  N_7
REMARK    5  A    between atoms: C_8  and  C_10
REMARK    6  A    between atoms: N_22  and  C_23
REMARK    7  A    between atoms: C_23  and  C_24
REMARK                            x       y       z     vdW  Elec       q    Type
REMARK                         _______ _______ _______ _____ _____    ______ ____
ROOT
ATOM      1  C   UNL     1       1.817   8.119  19.427  0.00  0.00    +0.000 A 
ATOM      2  C   UNL     1       1.099   8.958  20.285  0.00  0.00    +0.000 A 
ATOM      3  C   UNL     1       0.893  10.311  19.993  0.00  0.00    +0.000 A 
ATOM      4  C   UNL     1       1.399  10.877  18.827  0.00  0.00    +0.000 A 
ATOM      5  C   UNL     1       2.079  10.057  17.932  0.00  0.00    +0.000 A 
ATOM      6  C   UNL     1       2.303   8.707  18.246  0.00  0.00    +0.000 A 
ENDROOT
BRANCH   4   7
ATOM      7  N   UNL     1       1.242  12.241  18.504  0.00  0.00    +0.000 N 
ATOM      8  C   UNL     1       1.792  13.291  19.222  0.00  0.00    +0.000 C 
ATOM      9  O   UNL     1       2.585  13.189  20.157  0.00  0.00    +0.000 OA
ATOM     10  H   UNL     1       0.715  12.444  17.667  0.00  0.00    +0.000 HD
BRANCH   8  11
ATOM     11  C   UNL     1       1.381  14.664  18.835  0.00  0.00    +0.000 A 
ATOM     12  C   UNL     1       0.014  14.972  18.949  0.00  0.00    +0.000 A 
ATOM     13  C   UNL     1      -0.460  16.233  18.596  0.00  0.00    +0.000 A 
ATOM     14  C   UNL     1       0.436  17.188  18.137  0.00  0.00    +0.000 A 
ATOM     15  F   UNL     1      -0.014  18.401  17.792  0.00  0.00    +0.000 F 
ATOM     16  C   UNL     1       1.796  16.908  18.035  0.00  0.00    +0.000 A 
ATOM     17  C   UNL     1       2.277  15.644  18.390  0.00  0.00    +0.000 A 
ENDBRANCH   8  11
ENDBRANCH   4   7
BRANCH   1  19
ATOM     18  C   UNL     1       1.358   6.220  20.921  0.00  0.00    +0.000 C 
ATOM     19  N   UNL     1       2.037   6.781  19.753  0.00  0.00    +0.000 N 
BRANCH  19  20
ATOM     20  C   UNL     1       2.738   5.898  18.804  0.00  0.00    +0.000 C 
ATOM     21  C   UNL     1       1.744   5.102  17.957  0.00  0.00    +0.000 C 
ATOM     22  C   UNL     1       1.870   3.685  18.482  0.00  0.00    +0.000 C 
ATOM     23  N   UNL     1       3.295   3.520  18.821  0.00  0.00    +0.000 NA
ATOM     24  C   UNL     1       3.650   4.822  19.440  0.00  0.00    +0.000 C 
BRANCH  23  25
ATOM     25  C   UNL     1       4.075   3.246  17.598  0.00  0.00    +0.000 C 
BRANCH  25  26
ATOM     26  C   UNL     1       5.177   4.239  17.300  0.00  0.00    +0.000 A 
ATOM     27  C   UNL     1       5.162   4.926  16.072  0.00  0.00    +0.000 A 
ATOM     28  C   UNL     1       6.170   5.835  15.746  0.00  0.00    +0.000 A 
ATOM     29  C   UNL     1       7.211   6.062  16.641  0.00  0.00    +0.000 A 
ATOM     30  C   UNL     1       7.244   5.367  17.845  0.00  0.00    +0.000 A 
ATOM     31  F   UNL     1       8.251   5.583  18.700  0.00  0.00    +0.000 F 
ATOM     32  C   UNL     1       6.248   4.453  18.176  0.00  0.00    +0.000 A 
ENDBRANCH  25  26
ENDBRANCH  23  25
ENDBRANCH  19  20
ENDBRANCH   1  19
TORSDOF 6
ENDMDL
MODEL 9
REMARK VINA RESULT:      -8.1      3.100      4.809
REMARK  Name = 
REMARK  7 active torsions:
REMARK  status: ('A' for Active; 'I' for Inactive)
REMARK    1  A    between atoms: C_1  and  N_2
REMARK    2  A    between atoms: N_2  and  C_3
REMARK    3  A    between atoms: N_2  and  C_19
REMARK    4  A    between atoms: C_6  and  N_7
REMARK    5  A    between atoms: C_8  and  C_10
REMARK    6  A    between atoms: N_22  and  C_23
REMARK    7  A    between atoms: C_23  and  C_24
REMARK                            x       y       z     vdW  Elec       q    Type
REMARK                         _______ _______ _______ _____ _____    ______ ____
ROOT
ATOM      1  C   UNL     1       2.528   7.804  18.567  0.00  0.00    +0.000 A 
ATOM      2  C   UNL     1       2.145   7.530  19.883  0.00  0.00    +0.000 A 
ATOM      3  C   UNL     1       1.281   8.372  20.592  0.00  0.00    +0.000 A 
ATOM      4  C   UNL     1       0.768   9.526  20.009  0.00  0.00    +0.000 A 
ATOM      5  C   UNL     1       1.096   9.803  18.685  0.00  0.00    +0.000 A 
ATOM      6  C   UNL     1       1.983   8.965  17.991  0.00  0.00    +0.000 A 
ENDROOT
BRANCH   4   7
ATOM      7  N   UNL     1      -0.081  10.421  20.693  0.00  0.00    +0.000 N 
ATOM      8  C   UNL     1       0.339  11.575  21.333  0.00  0.00    +0.000 C 
ATOM      9  O   UNL     1       1.474  12.049  21.295  0.00  0.00    +0.000 OA
ATOM     10  H   UNL     1      -1.067  10.202  20.676  0.00  0.00    +0.000 HD
BRANCH   8  11
ATOM     11  C   UNL     1      -0.667  12.305  22.146  0.00  0.00    +0.000 A 
ATOM     12  C   UNL     1      -1.747  11.553  22.639  0.00  0.00    +0.000 A 
ATOM     13  C   UNL     1      -2.743  12.160  23.401  0.00  0.00    +0.000 A 
ATOM     14  C   UNL     1      -2.654  13.517  23.673  0.00  0.00    +0.000 A 
ATOM     15  F   UNL     1      -3.611  14.106  24.400  0.00  0.00    +0.000 F 
ATOM     16  C   UNL     1      -1.582  14.274  23.208  0.00  0.00    +0.000 A 
ATOM     17  C   UNL     1      -0.578  13.670  22.446  0.00  0.00    +0.000 A 
ENDBRANCH   8  11
ENDBRANCH   4   7
BRANCH   1  19
ATOM     18  C   UNL     1       4.255   7.537  16.837  0.00  0.00    +0.000 C 
ATOM     19  N   UNL     1       3.414   6.967  17.890  0.00  0.00    +0.000 N 
BRANCH  19  20
ATOM     20  C   UNL     1       3.670   5.605  18.390  0.00  0.00    +0.000 C 
ATOM     21  C   UNL     1       5.120   5.452  18.850  0.00  0.00    +0.000 C 
ATOM     22  C   UNL     1       5.745   4.562  17.793  0.00  0.00    +0.000 C 
ATOM     23  N   UNL     1       4.684   3.616  17.403  0.00  0.00    +0.000 NA
ATOM     24  C   UNL     1       3.468   4.465  17.363  0.00  0.00    +0.000 C 
BRANCH  23  25
ATOM     25  C   UNL     1       4.584   2.532  18.401  0.00  0.00    +0.000 C 
BRANCH  25  26
ATOM     26  C   UNL     1       3.368   2.596  19.301  0.00  0.00    +0.000 A 
ATOM     27  C   UNL     1       3.553   2.756  20.686  0.00  0.00    +0.000 A 
ATOM     28  C   UNL     1       2.462   2.797  21.555  0.00  0.00    +0.000 A 
ATOM     29  C   UNL     1       1.171   2.670  21.050  0.00  0.00    +0.000 A 
ATOM     30  C   UNL     1       0.985   2.486  19.685  0.00  0.00    +0.000 A 
ATOM     31  F   UNL     1      -0.258   2.357  19.203  0.00  0.00    +0.000 F 
ATOM     32  C   UNL     1       2.066   2.436  18.811  0.00  0.00    +0.000 A 
ENDBRANCH  25  26
ENDBRANCH  23  25
ENDBRANCH  19  20
ENDBRANCH   1  19
TORSDOF 6
ENDMDL
