MODEL 1
REMARK VINA RESULT:      -8.1      0.000      0.000
REMARK  Name = 
REMARK  3 active torsions:
REMARK  status: ('A' for Active; 'I' for Inactive)
REMARK    1  A    between atoms: C_1  and  C_2
REMARK    2  A    between atoms: C_10  and  C_11
REMARK    3  A    between atoms: C_18  and  C_19
REMARK                            x       y       z     vdW  Elec       q    Type
REMARK                         _______ _______ _______ _____ _____    ______ ____
ROOT
ATOM      1  C   UNL     1       0.701   2.656  18.681  0.00  0.00    +0.000 C 
ATOM      2  C   UNL     1       1.989   2.226  19.392  0.00  0.00    +0.000 C 
ATOM      3  C   UNL     1       3.171   3.186  19.071  0.00  0.00    +0.000 C 
ATOM      4  N   UNL     1       3.053   4.453  19.805  0.00  0.00    +0.000 N 
ATOM      5  C   UNL     1       2.922   5.700  19.207  0.00  0.00    +0.000 A 
ATOM      6  C   UNL     1       3.524   5.946  17.854  0.00  0.00    +0.000 A 
ATOM      7  C   UNL     1       3.349   7.134  17.260  0.00  0.00    +0.000 A 
ATOM      8  C   UNL     1       2.603   8.128  17.922  0.00  0.00    +0.000 A 
ATOM      9  N   UNL     1       2.257   9.335  17.538  0.00  0.00    +0.000 NA
ATOM     10  C   UNL     1       1.537   9.856  18.590  0.00  0.00    +0.000 A 
ATOM     11  C   UNL     1       1.497   8.971  19.671  0.00  0.00    +0.000 A 
ATOM     12  N   UNL     1       2.147   7.836  19.192  0.00  0.00    +0.000 N 
ATOM     13  N   UNL     1       2.292   6.645  19.856  0.00  0.00    +0.000 NA
ATOM     14  C   UNL     1       2.883   4.257  21.255  0.00  0.00    +0.000 C 
ATOM     15  C   UNL     1       1.695   3.323  21.550  0.00  0.00    +0.000 C 
ATOM     16  N   UNL     1       1.767   2.033  20.841  0.00  0.00    +0.000 NA
ATOM     17  H   UNL     1       0.900   1.516  20.992  0.00  0.00    +0.000 HD
ENDROOT
BRANCH  10  18
ATOM     18  C   UNL     1       0.962  11.197  18.515  0.00  0.00    +0.000 A 
ATOM     19  C   UNL     1      -0.424  11.404  18.420  0.00  0.00    +0.000 A 
ATOM     20  C   UNL     1      -0.961  12.690  18.496  0.00  0.00    +0.000 A 
ATOM     21  C   UNL     1      -0.109  13.782  18.593  0.00  0.00    +0.000 A 
ATOM     22  F   UNL     1      -0.626  15.014  18.679  0.00  0.00    +0.000 F 
ATOM     23  C   UNL     1       1.269  13.611  18.600  0.00  0.00    +0.000 A 
ATOM     24  C   UNL     1       1.805  12.319  18.564  0.00  0.00    +0.000 A 
ENDBRANCH  10  18
BRANCH  11  25
ATOM     25  C   UNL     1       0.943   9.093  21.034  0.00  0.00    +0.000 A 
ATOM     26  C   UNL     1      -0.428   9.234  21.257  0.00  0.00    +0.000 A 
ATOM     27  C   UNL     1      -0.884   9.416  22.552  0.00  0.00    +0.000 A 
ATOM     28  N   UNL     1      -0.079   9.498  23.631  0.00  0.00    +0.000 NA
ATOM     29  C   UNL     1       1.241   9.353  23.404  0.00  0.00    +0.000 A 
ATOM     30  C   UNL     1       1.787   9.118  22.151  0.00  0.00    +0.000 A 
ENDBRANCH  11  25
TORSDOF 2
ENDMDL
MODEL 2
REMARK VINA RESULT:      -7.3      4.472      8.870
REMARK  Name = 
REMARK  3 active torsions:
REMARK  status: ('A' for Active; 'I' for Inactive)
REMARK    1  A    between atoms: C_1  and  C_2
REMARK    2  A    between atoms: C_10  and  C_11
REMARK    3  A    between atoms: C_18  and  C_19
REMARK                            x       y       z     vdW  Elec       q    Type
REMARK                         _______ _______ _______ _____ _____    ______ ____
ROOT
ATOM      1  C   UNL     1      -5.918  12.764  23.720  0.00  0.00    +0.000 C 
ATOM      2  C   UNL     1      -5.995  14.230  23.279  0.00  0.00    +0.000 C 
ATOM      3  C   UNL     1      -4.582  14.837  23.052  0.00  0.00    +0.000 C 
ATOM      4  N   UNL     1      -3.990  14.371  21.790  0.00  0.00    +0.000 N 
ATOM      5  C   UNL     1      -2.816  13.634  21.697  0.00  0.00    +0.000 A 
ATOM      6  C   UNL     1      -1.744  13.802  22.734  0.00  0.00    +0.000 A 
ATOM      7  C   UNL     1      -0.637  13.050  22.667  0.00  0.00    +0.000 A 
ATOM      8  C   UNL     1      -0.504  12.118  21.621  0.00  0.00    +0.000 A 
ATOM      9  N   UNL     1       0.445  11.247  21.367  0.00  0.00    +0.000 NA
ATOM     10  C   UNL     1       0.049  10.605  20.216  0.00  0.00    +0.000 A 
ATOM     11  C   UNL     1      -1.141  11.141  19.715  0.00  0.00    +0.000 A 
ATOM     12  N   UNL     1      -1.509  12.081  20.675  0.00  0.00    +0.000 N 
ATOM     13  N   UNL     1      -2.663  12.822  20.683  0.00  0.00    +0.000 NA
ATOM     14  C   UNL     1      -4.873  14.588  20.632  0.00  0.00    +0.000 C 
ATOM     15  C   UNL     1      -6.259  13.960  20.870  0.00  0.00    +0.000 C 
ATOM     16  N   UNL     1      -6.901  14.399  22.123  0.00  0.00    +0.000 NA
ATOM     17  H   UNL     1      -7.755  13.862  22.271  0.00  0.00    +0.000 HD
ENDROOT
BRANCH  10  18
ATOM     18  C   UNL     1       0.859   9.538  19.633  0.00  0.00    +0.000 A 
ATOM     19  C   UNL     1       1.282   9.577  18.295  0.00  0.00    +0.000 A 
ATOM     20  C   UNL     1       2.174   8.623  17.800  0.00  0.00    +0.000 A 
ATOM     21  C   UNL     1       2.589   7.584  18.621  0.00  0.00    +0.000 A 
ATOM     22  F   UNL     1       3.455   6.678  18.150  0.00  0.00    +0.000 F 
ATOM     23  C   UNL     1       2.117   7.474  19.923  0.00  0.00    +0.000 A 
ATOM     24  C   UNL     1       1.255   8.451  20.430  0.00  0.00    +0.000 A 
ENDBRANCH  10  18
BRANCH  11  25
ATOM     25  C   UNL     1      -1.912  10.870  18.486  0.00  0.00    +0.000 A 
ATOM     26  C   UNL     1      -1.850  11.719  17.379  0.00  0.00    +0.000 A 
ATOM     27  C   UNL     1      -2.650  11.453  16.280  0.00  0.00    +0.000 A 
ATOM     28  N   UNL     1      -3.524  10.428  16.214  0.00  0.00    +0.000 NA
ATOM     29  C   UNL     1      -3.569   9.610  17.284  0.00  0.00    +0.000 A 
ATOM     30  C   UNL     1      -2.773   9.767  18.408  0.00  0.00    +0.000 A 
ENDBRANCH  11  25
TORSDOF 2
ENDMDL
MODEL 3
REMARK VINA RESULT:      -7.1      4.491      8.917
REMARK  Name = 
REMARK  3 active torsions:
REMARK  status: ('A' for Active; 'I' for Inactive)
REMARK    1  A    between atoms: C_1  and  C_2
REMARK    2  A    between atoms: C_10  and  C_11
REMARK    3  A    between atoms: C_18  and  C_19
REMARK                            x       y       z     vdW  Elec       q    Type
REMARK                         _______ _______ _______ _____ _____    ______ ____
ROOT
ATOM      1  C   UNL     1      -5.725  13.153  23.825  0.00  0.00    +0.000 C 
ATOM      2  C   UNL     1      -5.861  14.580  23.281  0.00  0.00    +0.000 C 
ATOM      3  C   UNL     1      -4.475  15.205  22.953  0.00  0.00    +0.000 C 
ATOM      4  N   UNL     1      -3.918  14.660  21.706  0.00  0.00    +0.000 N 
ATOM      5  C   UNL     1      -2.728  13.949  21.620  0.00  0.00    +0.000 A 
ATOM      6  C   UNL     1      -1.622  14.221  22.598  0.00  0.00    +0.000 A 
ATOM      7  C   UNL     1      -0.498  13.495  22.542  0.00  0.00    +0.000 A 
ATOM      8  C   UNL     1      -0.379  12.491  21.563  0.00  0.00    +0.000 A 
ATOM      9  N   UNL     1       0.584  11.628  21.336  0.00  0.00    +0.000 NA
ATOM     10  C   UNL     1       0.163  10.892  20.251  0.00  0.00    +0.000 A 
ATOM     11  C   UNL     1      -1.061  11.359  19.761  0.00  0.00    +0.000 A 
ATOM     12  N   UNL     1      -1.418  12.359  20.663  0.00  0.00    +0.000 N 
ATOM     13  N   UNL     1      -2.591  13.068  20.663  0.00  0.00    +0.000 NA
ATOM     14  C   UNL     1      -4.851  14.768  20.572  0.00  0.00    +0.000 C 
ATOM     15  C   UNL     1      -6.209  14.124  20.911  0.00  0.00    +0.000 C 
ATOM     16  N   UNL     1      -6.814  14.640  22.153  0.00  0.00    +0.000 NA
ATOM     17  H   UNL     1      -7.646  14.093  22.374  0.00  0.00    +0.000 HD
ENDROOT
BRANCH  10  18
ATOM     18  C   UNL     1       0.980   9.806  19.717  0.00  0.00    +0.000 A 
ATOM     19  C   UNL     1       1.281   8.663  20.476  0.00  0.00    +0.000 A 
ATOM     20  C   UNL     1       1.939   7.576  19.899  0.00  0.00    +0.000 A 
ATOM     21  C   UNL     1       2.365   7.655  18.581  0.00  0.00    +0.000 A 
ATOM     22  F   UNL     1       2.985   6.606  18.025  0.00  0.00    +0.000 F 
ATOM     23  C   UNL     1       2.158   8.808  17.834  0.00  0.00    +0.000 A 
ATOM     24  C   UNL     1       1.463   9.882  18.400  0.00  0.00    +0.000 A 
ENDBRANCH  10  18
BRANCH  11  25
ATOM     25  C   UNL     1      -1.870  10.977  18.587  0.00  0.00    +0.000 A 
ATOM     26  C   UNL     1      -2.676   9.836  18.592  0.00  0.00    +0.000 A 
ATOM     27  C   UNL     1      -3.358   9.488  17.438  0.00  0.00    +0.000 A 
ATOM     28  N   UNL     1      -3.273  10.170  16.278  0.00  0.00    +0.000 NA
ATOM     29  C   UNL     1      -2.500  11.274  16.288  0.00  0.00    +0.000 A 
ATOM     30  C   UNL     1      -1.820  11.728  17.406  0.00  0.00    +0.000 A 
ENDBRANCH  11  25
TORSDOF 2
ENDMDL
MODEL 4
REMARK VINA RESULT:      -7.0      5.542      9.717
REMARK  Name = 
REMARK  3 active torsions:
REMARK  status: ('A' for Active; 'I' for Inactive)
REMARK    1  A    between atoms: C_1  and  C_2
REMARK    2  A    between atoms: C_10  and  C_11
REMARK    3  A    between atoms: C_18  and  C_19
REMARK                            x       y       z     vdW  Elec       q    Type
REMARK                         _______ _______ _______ _____ _____    ______ ____
ROOT
ATOM      1  C   UNL     1      -3.993  18.016  23.039  0.00  0.00    +0.000 C 
ATOM      2  C   UNL     1      -3.844  17.438  24.452  0.00  0.00    +0.000 C 
ATOM      3  C   UNL     1      -4.496  16.031  24.569  0.00  0.00    +0.000 C 
ATOM      4  N   UNL     1      -3.668  14.996  23.934  0.00  0.00    +0.000 N 
ATOM      5  C   UNL     1      -4.071  14.216  22.858  0.00  0.00    +0.000 A 
ATOM      6  C   UNL     1      -5.526  13.893  22.672  0.00  0.00    +0.000 A 
ATOM      7  C   UNL     1      -5.913  13.185  21.603  0.00  0.00    +0.000 A 
ATOM      8  C   UNL     1      -4.944  12.758  20.676  0.00  0.00    +0.000 A 
ATOM      9  N   UNL     1      -5.072  12.103  19.545  0.00  0.00    +0.000 NA
ATOM     10  C   UNL     1      -3.791  11.958  19.064  0.00  0.00    +0.000 A 
ATOM     11  C   UNL     1      -2.848  12.478  19.955  0.00  0.00    +0.000 A 
ATOM     12  N   UNL     1      -3.624  13.042  20.965  0.00  0.00    +0.000 N 
ATOM     13  N   UNL     1      -3.161  13.758  22.038  0.00  0.00    +0.000 NA
ATOM     14  C   UNL     1      -2.279  14.999  24.424  0.00  0.00    +0.000 C 
ATOM     15  C   UNL     1      -1.646  16.396  24.277  0.00  0.00    +0.000 C 
ATOM     16  N   UNL     1      -2.436  17.472  24.902  0.00  0.00    +0.000 NA
ATOM     17  H   UNL     1      -2.020  18.374  24.670  0.00  0.00    +0.000 HD
ENDROOT
BRANCH  10  18
ATOM     18  C   UNL     1      -3.538  11.286  17.791  0.00  0.00    +0.000 A 
ATOM     19  C   UNL     1      -4.305  11.556  16.647  0.00  0.00    +0.000 A 
ATOM     20  C   UNL     1      -3.957  11.013  15.409  0.00  0.00    +0.000 A 
ATOM     21  C   UNL     1      -2.882  10.139  15.324  0.00  0.00    +0.000 A 
ATOM     22  F   UNL     1      -2.540   9.629  14.134  0.00  0.00    +0.000 F 
ATOM     23  C   UNL     1      -2.160   9.786  16.458  0.00  0.00    +0.000 A 
ATOM     24  C   UNL     1      -2.486  10.361  17.690  0.00  0.00    +0.000 A 
ENDBRANCH  10  18
BRANCH  11  25
ATOM     25  C   UNL     1      -1.372  12.485  19.945  0.00  0.00    +0.000 A 
ATOM     26  C   UNL     1      -0.649  13.373  19.145  0.00  0.00    +0.000 A 
ATOM     27  C   UNL     1       0.733  13.286  19.123  0.00  0.00    +0.000 A 
ATOM     28  N   UNL     1       1.443  12.368  19.810  0.00  0.00    +0.000 NA
ATOM     29  C   UNL     1       0.735  11.523  20.585  0.00  0.00    +0.000 A 
ATOM     30  C   UNL     1      -0.645  11.565  20.710  0.00  0.00    +0.000 A 
ENDBRANCH  11  25
TORSDOF 2
ENDMDL
MODEL 5
REMARK VINA RESULT:      -6.7      5.354      7.552
REMARK  Name = 
REMARK  3 active torsions:
REMARK  status: ('A' for Active; 'I' for Inactive)
REMARK    1  A    between atoms: C_1  and  C_2
REMARK    2  A    between atoms: C_10  and  C_11
REMARK    3  A    between atoms: C_18  and  C_19
REMARK                            x       y       z     vdW  Elec       q    Type
REMARK                         _______ _______ _______ _____ _____    ______ ____
ROOT
ATOM      1  C   UNL     1      -2.846  10.625  15.095  0.00  0.00    +0.000 C 
ATOM      2  C   UNL     1      -3.746  10.006  16.172  0.00  0.00    +0.000 C 
ATOM      3  C   UNL     1      -2.949   9.674  17.466  0.00  0.00    +0.000 C 
ATOM      4  N   UNL     1      -2.655  10.885  18.245  0.00  0.00    +0.000 N 
ATOM      5  C   UNL     1      -1.377  11.348  18.529  0.00  0.00    +0.000 A 
ATOM      6  C   UNL     1      -0.240  10.375  18.648  0.00  0.00    +0.000 A 
ATOM      7  C   UNL     1       1.000  10.832  18.870  0.00  0.00    +0.000 A 
ATOM      8  C   UNL     1       1.207  12.219  18.989  0.00  0.00    +0.000 A 
ATOM      9  N   UNL     1       2.313  12.908  19.157  0.00  0.00    +0.000 NA
ATOM     10  C   UNL     1       1.915  14.225  19.208  0.00  0.00    +0.000 A 
ATOM     11  C   UNL     1       0.524  14.342  19.134  0.00  0.00    +0.000 A 
ATOM     12  N   UNL     1       0.093  13.032  18.935  0.00  0.00    +0.000 N 
ATOM     13  N   UNL     1      -1.199  12.631  18.713  0.00  0.00    +0.000 NA
ATOM     14  C   UNL     1      -3.860  11.683  18.531  0.00  0.00    +0.000 C 
ATOM     15  C   UNL     1      -4.621  12.018  17.235  0.00  0.00    +0.000 C 
ATOM     16  N   UNL     1      -4.944  10.836  16.417  0.00  0.00    +0.000 NA
ATOM     17  H   UNL     1      -5.342  11.139  15.528  0.00  0.00    +0.000 HD
ENDROOT
BRANCH  10  18
ATOM     18  C   UNL     1       2.893  15.299  19.369  0.00  0.00    +0.000 A 
ATOM     19  C   UNL     1       2.989  16.040  20.557  0.00  0.00    +0.000 A 
ATOM     20  C   UNL     1       4.021  16.961  20.743  0.00  0.00    +0.000 A 
ATOM     21  C   UNL     1       4.920  17.198  19.712  0.00  0.00    +0.000 A 
ATOM     22  F   UNL     1       5.917  18.071  19.896  0.00  0.00    +0.000 F 
ATOM     23  C   UNL     1       4.794  16.542  18.494  0.00  0.00    +0.000 A 
ATOM     24  C   UNL     1       3.783  15.590  18.323  0.00  0.00    +0.000 A 
ENDBRANCH  10  18
BRANCH  11  25
ATOM     25  C   UNL     1      -0.380  15.504  19.235  0.00  0.00    +0.000 A 
ATOM     26  C   UNL     1      -0.384  16.516  18.273  0.00  0.00    +0.000 A 
ATOM     27  C   UNL     1      -1.203  17.617  18.457  0.00  0.00    +0.000 A 
ATOM     28  N   UNL     1      -1.991  17.799  19.536  0.00  0.00    +0.000 NA
ATOM     29  C   UNL     1      -1.986  16.812  20.453  0.00  0.00    +0.000 A 
ATOM     30  C   UNL     1      -1.238  15.652  20.332  0.00  0.00    +0.000 A 
ENDBRANCH  11  25
TORSDOF 2
ENDMDL
MODEL 6
REMARK VINA RESULT:      -6.7      5.833     10.112
REMARK  Name = 
REMARK  3 active torsions:
REMARK  status: ('A' for Active; 'I' for Inactive)
REMARK    1  A    between atoms: C_1  and  C_2
REMARK    2  A    between atoms: C_10  and  C_11
REMARK    3  A    between atoms: C_18  and  C_19
REMARK                            x       y       z     vdW  Elec       q    Type
REMARK                         _______ _______ _______ _____ _____    ______ ____
ROOT
ATOM      1  C   UNL     1      -5.599  17.923  22.842  0.00  0.00    +0.000 C 
ATOM      2  C   UNL     1      -5.627  17.356  24.266  0.00  0.00    +0.000 C 
ATOM      3  C   UNL     1      -6.139  15.888  24.290  0.00  0.00    +0.000 C 
ATOM      4  N   UNL     1      -5.113  14.949  23.814  0.00  0.00    +0.000 N 
ATOM      5  C   UNL     1      -5.247  14.138  22.695  0.00  0.00    +0.000 A 
ATOM      6  C   UNL     1      -6.608  13.665  22.273  0.00  0.00    +0.000 A 
ATOM      7  C   UNL     1      -6.735  12.926  21.163  0.00  0.00    +0.000 A 
ATOM      8  C   UNL     1      -5.585  12.609  20.416  0.00  0.00    +0.000 A 
ATOM      9  N   UNL     1      -5.454  11.951  19.287  0.00  0.00    +0.000 NA
ATOM     10  C   UNL     1      -4.102  11.944  19.027  0.00  0.00    +0.000 A 
ATOM     11  C   UNL     1      -3.381  12.555  20.057  0.00  0.00    +0.000 A 
ATOM     12  N   UNL     1      -4.369  13.028  20.917  0.00  0.00    +0.000 N 
ATOM     13  N   UNL     1      -4.169  13.783  22.044  0.00  0.00    +0.000 NA
ATOM     14  C   UNL     1      -3.833  15.096  24.528  0.00  0.00    +0.000 C 
ATOM     15  C   UNL     1      -3.334  16.552  24.473  0.00  0.00    +0.000 C 
ATOM     16  N   UNL     1      -4.326  17.536  24.944  0.00  0.00    +0.000 NA
ATOM     17  H   UNL     1      -3.974  18.478  24.774  0.00  0.00    +0.000 HD
ENDROOT
BRANCH  10  18
ATOM     18  C   UNL     1      -3.571  11.310  17.823  0.00  0.00    +0.000 A 
ATOM     19  C   UNL     1      -2.468  10.443  17.868  0.00  0.00    +0.000 A 
ATOM     20  C   UNL     1      -2.067   9.736  16.733  0.00  0.00    +0.000 A 
ATOM     21  C   UNL     1      -2.725   9.949  15.529  0.00  0.00    +0.000 A 
ATOM     22  F   UNL     1      -2.349   9.260  14.443  0.00  0.00    +0.000 F 
ATOM     23  C   UNL     1      -3.763  10.867  15.437  0.00  0.00    +0.000 A 
ATOM     24  C   UNL     1      -4.189  11.544  16.584  0.00  0.00    +0.000 A 
ENDBRANCH  10  18
BRANCH  11  25
ATOM     25  C   UNL     1      -1.933  12.718  20.293  0.00  0.00    +0.000 A 
ATOM     26  C   UNL     1      -1.196  13.726  19.665  0.00  0.00    +0.000 A 
ATOM     27  C   UNL     1       0.172  13.786  19.870  0.00  0.00    +0.000 A 
ATOM     28  N   UNL     1       0.862  12.905  20.623  0.00  0.00    +0.000 NA
ATOM     29  C   UNL     1       0.140  11.944  21.230  0.00  0.00    +0.000 A 
ATOM     30  C   UNL     1      -1.237  11.832  21.126  0.00  0.00    +0.000 A 
ENDBRANCH  11  25
TORSDOF 2
ENDMDL
MODEL 7
REMARK VINA RESULT:      -6.6      5.850      9.822
REMARK  Name = 
REMARK  3 active torsions:
REMARK  status: ('A' for Active; 'I' for Inactive)
REMARK    1  A    between atoms: C_1  and  C_2
REMARK    2  A    between atoms: C_10  and  C_11
REMARK    3  A    between atoms: C_18  and  C_19
REMARK                            x       y       z     vdW  Elec       q    Type
REMARK                         _______ _______ _______ _____ _____    ______ ____
ROOT
ATOM      1  C   UNL     1      -3.659  18.319  23.331  0.00  0.00    +0.000 C 
ATOM      2  C   UNL     1      -3.360  17.792  24.740  0.00  0.00    +0.000 C 
ATOM      3  C   UNL     1      -3.908  16.351  24.943  0.00  0.00    +0.000 C 
ATOM      4  N   UNL     1      -3.068  15.353  24.267  0.00  0.00    +0.000 N 
ATOM      5  C   UNL     1      -3.504  14.519  23.245  0.00  0.00    +0.000 A 
ATOM      6  C   UNL     1      -4.944  14.100  23.186  0.00  0.00    +0.000 A 
ATOM      7  C   UNL     1      -5.369  13.339  22.168  0.00  0.00    +0.000 A 
ATOM      8  C   UNL     1      -4.450  12.947  21.176  0.00  0.00    +0.000 A 
ATOM      9  N   UNL     1      -4.626  12.254  20.074  0.00  0.00    +0.000 NA
ATOM     10  C   UNL     1      -3.380  12.176  19.494  0.00  0.00    +0.000 A 
ATOM     11  C   UNL     1      -2.405  12.780  20.293  0.00  0.00    +0.000 A 
ATOM     12  N   UNL     1      -3.133  13.322  21.350  0.00  0.00    +0.000 N 
ATOM     13  N   UNL     1      -2.633  14.096  22.365  0.00  0.00    +0.000 NA
ATOM     14  C   UNL     1      -1.647  15.457  24.641  0.00  0.00    +0.000 C 
ATOM     15  C   UNL     1      -1.120  16.886  24.412  0.00  0.00    +0.000 C 
ATOM     16  N   UNL     1      -1.926  17.928  25.073  0.00  0.00    +0.000 NA
ATOM     17  H   UNL     1      -1.590  18.847  24.787  0.00  0.00    +0.000 HD
ENDROOT
BRANCH  10  18
ATOM     18  C   UNL     1      -3.186  11.486  18.221  0.00  0.00    +0.000 A 
ATOM     19  C   UNL     1      -2.104  10.617  18.008  0.00  0.00    +0.000 A 
ATOM     20  C   UNL     1      -2.016   9.858  16.839  0.00  0.00    +0.000 A 
ATOM     21  C   UNL     1      -2.974  10.018  15.847  0.00  0.00    +0.000 A 
ATOM     22  F   UNL     1      -2.897   9.280  14.733  0.00  0.00    +0.000 F 
ATOM     23  C   UNL     1      -4.006  10.935  15.996  0.00  0.00    +0.000 A 
ATOM     24  C   UNL     1      -4.115  11.667  17.183  0.00  0.00    +0.000 A 
ENDBRANCH  10  18
BRANCH  11  25
ATOM     25  C   UNL     1      -0.938  12.880  20.163  0.00  0.00    +0.000 A 
ATOM     26  C   UNL     1      -0.082  11.976  20.797  0.00  0.00    +0.000 A 
ATOM     27  C   UNL     1       1.287  12.161  20.698  0.00  0.00    +0.000 A 
ATOM     28  N   UNL     1       1.863  13.191  20.044  0.00  0.00    +0.000 NA
ATOM     29  C   UNL     1       1.028  14.051  19.429  0.00  0.00    +0.000 A 
ATOM     30  C   UNL     1      -0.352  13.920  19.431  0.00  0.00    +0.000 A 
ENDBRANCH  11  25
TORSDOF 2
ENDMDL
MODEL 8
REMARK VINA RESULT:      -6.5      8.268     10.928
REMARK  Name = 
REMARK  3 active torsions:
REMARK  status: ('A' for Active; 'I' for Inactive)
REMARK    1  A    between atoms: C_1  and  C_2
REMARK    2  A    between atoms: C_10  and  C_11
REMARK    3  A    between atoms: C_18  and  C_19
REMARK                            x       y       z     vdW  Elec       q    Type
REMARK                         _______ _______ _______ _____ _____    ______ ____
ROOT
ATOM      1  C   UNL     1      12.123  15.954  19.220  0.00  0.00    +0.000 C 
ATOM      2  C   UNL     1      11.455  15.772  17.852  0.00  0.00    +0.000 C 
ATOM      3  C   UNL     1      10.757  14.387  17.733  0.00  0.00    +0.000 C 
ATOM      4  N   UNL     1       9.492  14.353  18.482  0.00  0.00    +0.000 N 
ATOM      5  C   UNL     1       9.232  13.503  19.549  0.00  0.00    +0.000 A 
ATOM      6  C   UNL     1       9.902  12.161  19.615  0.00  0.00    +0.000 A 
ATOM      7  C   UNL     1       9.687  11.367  20.673  0.00  0.00    +0.000 A 
ATOM      8  C   UNL     1       8.833  11.811  21.700  0.00  0.00    +0.000 A 
ATOM      9  N   UNL     1       8.504  11.250  22.841  0.00  0.00    +0.000 NA
ATOM     10  C   UNL     1       7.636  12.134  23.442  0.00  0.00    +0.000 A 
ATOM     11  C   UNL     1       7.375  13.233  22.619  0.00  0.00    +0.000 A 
ATOM     12  N   UNL     1       8.207  13.029  21.521  0.00  0.00    +0.000 N 
ATOM     13  N   UNL     1       8.381  13.886  20.465  0.00  0.00    +0.000 NA
ATOM     14  C   UNL     1       8.587  15.458  18.121  0.00  0.00    +0.000 C 
ATOM     15  C   UNL     1       9.292  16.819  18.267  0.00  0.00    +0.000 C 
ATOM     16  N   UNL     1      10.566  16.908  17.530  0.00  0.00    +0.000 NA
ATOM     17  H   UNL     1      11.029  17.787  17.762  0.00  0.00    +0.000 HD
ENDROOT
BRANCH  10  18
ATOM     18  C   UNL     1       7.068  11.852  24.758  0.00  0.00    +0.000 A 
ATOM     19  C   UNL     1       7.671  12.315  25.938  0.00  0.00    +0.000 A 
ATOM     20  C   UNL     1       7.037  12.160  27.173  0.00  0.00    +0.000 A 
ATOM     21  C   UNL     1       5.832  11.475  27.240  0.00  0.00    +0.000 A 
ATOM     22  F   UNL     1       5.218  11.338  28.423  0.00  0.00    +0.000 F 
ATOM     23  C   UNL     1       5.258  10.929  26.099  0.00  0.00    +0.000 A 
ATOM     24  C   UNL     1       5.874  11.120  24.858  0.00  0.00    +0.000 A 
ENDBRANCH  10  18
BRANCH  11  25
ATOM     25  C   UNL     1       6.463  14.385  22.761  0.00  0.00    +0.000 A 
ATOM     26  C   UNL     1       6.905  15.613  23.260  0.00  0.00    +0.000 A 
ATOM     27  C   UNL     1       5.990  16.636  23.438  0.00  0.00    +0.000 A 
ATOM     28  N   UNL     1       4.670  16.520  23.188  0.00  0.00    +0.000 NA
ATOM     29  C   UNL     1       4.256  15.334  22.700  0.00  0.00    +0.000 A 
ATOM     30  C   UNL     1       5.105  14.269  22.442  0.00  0.00    +0.000 A 
ENDBRANCH  11  25
TORSDOF 2
ENDMDL
MODEL 9
REMARK VINA RESULT:      -6.4      4.149      9.059
REMARK  Name = 
REMARK  3 active torsions:
REMARK  status: ('A' for Active; 'I' for Inactive)
REMARK    1  A    between atoms: C_1  and  C_2
REMARK    2  A    between atoms: C_10  and  C_11
REMARK    3  A    between atoms: C_18  and  C_19
REMARK                            x       y       z     vdW  Elec       q    Type
REMARK                         _______ _______ _______ _____ _____    ______ ____
ROOT
ATOM      1  C   UNL     1      -4.668  15.710  21.328  0.00  0.00    +0.000 C 
ATOM      2  C   UNL     1      -4.178  16.466  22.569  0.00  0.00    +0.000 C 
ATOM      3  C   UNL     1      -3.483  15.514  23.584  0.00  0.00    +0.000 C 
ATOM      4  N   UNL     1      -2.134  15.140  23.138  0.00  0.00    +0.000 N 
ATOM      5  C   UNL     1      -1.729  13.841  22.858  0.00  0.00    +0.000 A 
ATOM      6  C   UNL     1      -2.368  12.688  23.576  0.00  0.00    +0.000 A 
ATOM      7  C   UNL     1      -2.010  11.436  23.263  0.00  0.00    +0.000 A 
ATOM      8  C   UNL     1      -1.038  11.230  22.266  0.00  0.00    +0.000 A 
ATOM      9  N   UNL     1      -0.559  10.119  21.755  0.00  0.00    +0.000 NA
ATOM     10  C   UNL     1       0.368  10.521  20.820  0.00  0.00    +0.000 A 
ATOM     11  C   UNL     1       0.508  11.912  20.804  0.00  0.00    +0.000 A 
ATOM     12  N   UNL     1      -0.455  12.351  21.710  0.00  0.00    +0.000 N 
ATOM     13  N   UNL     1      -0.773  13.656  21.985  0.00  0.00    +0.000 NA
ATOM     14  C   UNL     1      -1.296  16.309  22.820  0.00  0.00    +0.000 C 
ATOM     15  C   UNL     1      -1.994  17.225  21.797  0.00  0.00    +0.000 C 
ATOM     16  N   UNL     1      -3.352  17.634  22.199  0.00  0.00    +0.000 NA
ATOM     17  H   UNL     1      -3.793  18.140  21.431  0.00  0.00    +0.000 HD
ENDROOT
BRANCH  10  18
ATOM     18  C   UNL     1       1.102   9.543  20.021  0.00  0.00    +0.000 A 
ATOM     19  C   UNL     1       1.632   8.373  20.588  0.00  0.00    +0.000 A 
ATOM     20  C   UNL     1       2.202   7.384  19.784  0.00  0.00    +0.000 A 
ATOM     21  C   UNL     1       2.310   7.594  18.416  0.00  0.00    +0.000 A 
ATOM     22  F   UNL     1       2.845   6.639  17.644  0.00  0.00    +0.000 F 
ATOM     23  C   UNL     1       1.873   8.780  17.841  0.00  0.00    +0.000 A 
ATOM     24  C   UNL     1       1.266   9.753  18.642  0.00  0.00    +0.000 A 
ENDBRANCH  10  18
BRANCH  11  25
ATOM     25  C   UNL     1       1.416  12.809  20.063  0.00  0.00    +0.000 A 
ATOM     26  C   UNL     1       1.238  13.072  18.703  0.00  0.00    +0.000 A 
ATOM     27  C   UNL     1       2.162  13.866  18.044  0.00  0.00    +0.000 A 
ATOM     28  N   UNL     1       3.260  14.388  18.627  0.00  0.00    +0.000 NA
ATOM     29  C   UNL     1       3.416  14.135  19.942  0.00  0.00    +0.000 A 
ATOM     30  C   UNL     1       2.520  13.394  20.695  0.00  0.00    +0.000 A 
ENDBRANCH  11  25
TORSDOF 2
ENDMDL
