MODEL 1
REMARK VINA RESULT:      -8.9      0.000      0.000
REMARK  Name = 
REMARK  2 active torsions:
REMARK  status: ('A' for Active; 'I' for Inactive)
REMARK    1  A    between atoms: C_5  and  C_6
REMARK    2  A    between atoms: C_8  and  C_9
REMARK                            x       y       z     vdW  Elec       q    Type
REMARK                         _______ _______ _______ _____ _____    ______ ____
ROOT
ATOM      1  C   UNL     1       4.962   5.767  17.423  0.00  0.00    +0.000 C 
ATOM      2  C   UNL     1       5.300   5.750  15.918  0.00  0.00    +0.000 C 
ATOM      3  C   UNL     1       6.232   4.564  15.605  0.00  0.00    +0.000 C 
ATOM      4  N   UNL     1       7.449   4.694  16.399  0.00  0.00    +0.000 N 
ATOM      5  C   UNL     1       7.326   4.987  17.711  0.00  0.00    +0.000 A 
ATOM      6  N   UNL     1       8.171   4.816  18.693  0.00  0.00    +0.000 NA
ATOM      7  C   UNL     1       7.486   5.294  19.780  0.00  0.00    +0.000 A 
ATOM      8  N   UNL     1       6.255   5.756  19.534  0.00  0.00    +0.000 NA
ATOM      9  N   UNL     1       6.169   5.534  18.210  0.00  0.00    +0.000 N 
ATOM     10  H   UNL     1       8.215   4.073  16.140  0.00  0.00    +0.000 HD
ENDROOT
BRANCH   1  15
ATOM     11 CL   UNL     1       0.469   1.989  18.934  0.00  0.00    +0.000 Cl
ATOM     12  C   UNL     1       1.745   3.044  18.470  0.00  0.00    +0.000 A 
ATOM     13  C   UNL     1       3.046   2.560  18.383  0.00  0.00    +0.000 A 
ATOM     14  C   UNL     1       4.088   3.424  18.040  0.00  0.00    +0.000 A 
ATOM     15  C   UNL     1       3.845   4.785  17.777  0.00  0.00    +0.000 A 
ATOM     16  C   UNL     1       2.518   5.246  17.837  0.00  0.00    +0.000 A 
ATOM     17  C   UNL     1       1.475   4.382  18.191  0.00  0.00    +0.000 A 
ENDBRANCH   1  15
BRANCH   3  18
ATOM     18  C   UNL     1       6.568   4.447  14.133  0.00  0.00    +0.000 A 
ATOM     19  C   UNL     1       5.920   3.531  13.292  0.00  0.00    +0.000 A 
ATOM     20  C   UNL     1       6.273   3.435  11.944  0.00  0.00    +0.000 A 
ATOM     21  C   UNL     1       7.269   4.257  11.419  0.00  0.00    +0.000 A 
ATOM     22  C   UNL     1       7.912   5.179  12.238  0.00  0.00    +0.000 A 
ATOM     23  C   UNL     1       7.564   5.274  13.586  0.00  0.00    +0.000 A 
ENDBRANCH   3  18
TORSDOF 2
ENDMDL
MODEL 2
REMARK VINA RESULT:      -8.9      0.068      1.030
REMARK  Name = 
REMARK  2 active torsions:
REMARK  status: ('A' for Active; 'I' for Inactive)
REMARK    1  A    between atoms: C_5  and  C_6
REMARK    2  A    between atoms: C_8  and  C_9
REMARK                            x       y       z     vdW  Elec       q    Type
REMARK                         _______ _______ _______ _____ _____    ______ ____
ROOT
ATOM      1  C   UNL     1       5.008   5.771  17.470  0.00  0.00    +0.000 C 
ATOM      2  C   UNL     1       5.349   5.764  15.966  0.00  0.00    +0.000 C 
ATOM      3  C   UNL     1       6.275   4.576  15.644  0.00  0.00    +0.000 C 
ATOM      4  N   UNL     1       7.492   4.692  16.442  0.00  0.00    +0.000 N 
ATOM      5  C   UNL     1       7.367   4.975  17.756  0.00  0.00    +0.000 A 
ATOM      6  N   UNL     1       8.210   4.791  18.738  0.00  0.00    +0.000 NA
ATOM      7  C   UNL     1       7.526   5.263  19.828  0.00  0.00    +0.000 A 
ATOM      8  N   UNL     1       6.298   5.734  19.584  0.00  0.00    +0.000 NA
ATOM      9  N   UNL     1       6.213   5.524  18.257  0.00  0.00    +0.000 N 
ATOM     10  H   UNL     1       8.255   4.070  16.179  0.00  0.00    +0.000 HD
ENDROOT
BRANCH   1  15
ATOM     11 CL   UNL     1       0.488   2.008  18.934  0.00  0.00    +0.000 Cl
ATOM     12  C   UNL     1       1.773   3.057  18.484  0.00  0.00    +0.000 A 
ATOM     13  C   UNL     1       3.079   2.579  18.456  0.00  0.00    +0.000 A 
ATOM     14  C   UNL     1       4.127   3.440  18.124  0.00  0.00    +0.000 A 
ATOM     15  C   UNL     1       3.885   4.791  17.814  0.00  0.00    +0.000 A 
ATOM     16  C   UNL     1       2.555   5.245  17.816  0.00  0.00    +0.000 A 
ATOM     17  C   UNL     1       1.505   4.385  18.158  0.00  0.00    +0.000 A 
ENDBRANCH   1  15
BRANCH   3  18
ATOM     18  C   UNL     1       6.613   4.470  14.172  0.00  0.00    +0.000 A 
ATOM     19  C   UNL     1       7.574   5.293  13.567  0.00  0.00    +0.000 A 
ATOM     20  C   UNL     1       7.844   5.181  12.201  0.00  0.00    +0.000 A 
ATOM     21  C   UNL     1       7.164   4.242  11.426  0.00  0.00    +0.000 A 
ATOM     22  C   UNL     1       6.218   3.410  12.015  0.00  0.00    +0.000 A 
ATOM     23  C   UNL     1       5.944   3.523  13.378  0.00  0.00    +0.000 A 
ENDBRANCH   3  18
TORSDOF 2
ENDMDL
MODEL 3
REMARK VINA RESULT:      -8.9      0.095      1.033
REMARK  Name = 
REMARK  2 active torsions:
REMARK  status: ('A' for Active; 'I' for Inactive)
REMARK    1  A    between atoms: C_5  and  C_6
REMARK    2  A    between atoms: C_8  and  C_9
REMARK                            x       y       z     vdW  Elec       q    Type
REMARK                         _______ _______ _______ _____ _____    ______ ____
ROOT
ATOM      1  C   UNL     1       5.005   5.842  17.470  0.00  0.00    +0.000 C 
ATOM      2  C   UNL     1       5.325   5.799  15.962  0.00  0.00    +0.000 C 
ATOM      3  C   UNL     1       6.208   4.577  15.649  0.00  0.00    +0.000 C 
ATOM      4  N   UNL     1       7.439   4.668  16.428  0.00  0.00    +0.000 N 
ATOM      5  C   UNL     1       7.342   4.978  17.738  0.00  0.00    +0.000 A 
ATOM      6  N   UNL     1       8.193   4.785  18.712  0.00  0.00    +0.000 NA
ATOM      7  C   UNL     1       7.539   5.297  19.802  0.00  0.00    +0.000 A 
ATOM      8  N   UNL     1       6.323   5.802  19.566  0.00  0.00    +0.000 NA
ATOM      9  N   UNL     1       6.212   5.571  18.245  0.00  0.00    +0.000 N 
ATOM     10  H   UNL     1       8.179   4.018  16.166  0.00  0.00    +0.000 HD
ENDROOT
BRANCH   1  15
ATOM     11 CL   UNL     1       0.513   2.014  18.848  0.00  0.00    +0.000 Cl
ATOM     12  C   UNL     1       1.785   3.115  18.493  0.00  0.00    +0.000 A 
ATOM     13  C   UNL     1       1.499   4.461  18.293  0.00  0.00    +0.000 A 
ATOM     14  C   UNL     1       2.527   5.350  17.971  0.00  0.00    +0.000 A 
ATOM     15  C   UNL     1       3.857   4.905  17.846  0.00  0.00    +0.000 A 
ATOM     16  C   UNL     1       4.128   3.547  18.085  0.00  0.00    +0.000 A 
ATOM     17  C   UNL     1       3.097   2.655  18.399  0.00  0.00    +0.000 A 
ENDBRANCH   1  15
BRANCH   3  18
ATOM     18  C   UNL     1       6.523   4.434  14.175  0.00  0.00    +0.000 A 
ATOM     19  C   UNL     1       5.859   3.506  13.358  0.00  0.00    +0.000 A 
ATOM     20  C   UNL     1       6.192   3.387  12.007  0.00  0.00    +0.000 A 
ATOM     21  C   UNL     1       7.183   4.196  11.454  0.00  0.00    +0.000 A 
ATOM     22  C   UNL     1       7.841   5.129  12.248  0.00  0.00    +0.000 A 
ATOM     23  C   UNL     1       7.514   5.247  13.599  0.00  0.00    +0.000 A 
ENDBRANCH   3  18
TORSDOF 2
ENDMDL
MODEL 4
REMARK VINA RESULT:      -8.8      0.125      1.459
REMARK  Name = 
REMARK  2 active torsions:
REMARK  status: ('A' for Active; 'I' for Inactive)
REMARK    1  A    between atoms: C_5  and  C_6
REMARK    2  A    between atoms: C_8  and  C_9
REMARK                            x       y       z     vdW  Elec       q    Type
REMARK                         _______ _______ _______ _____ _____    ______ ____
ROOT
ATOM      1  C   UNL     1       5.029   5.850  17.464  0.00  0.00    +0.000 C 
ATOM      2  C   UNL     1       5.358   5.804  15.958  0.00  0.00    +0.000 C 
ATOM      3  C   UNL     1       6.243   4.581  15.653  0.00  0.00    +0.000 C 
ATOM      4  N   UNL     1       7.469   4.673  16.440  0.00  0.00    +0.000 N 
ATOM      5  C   UNL     1       7.364   4.986  17.749  0.00  0.00    +0.000 A 
ATOM      6  N   UNL     1       8.207   4.795  18.729  0.00  0.00    +0.000 NA
ATOM      7  C   UNL     1       7.547   5.309  19.814  0.00  0.00    +0.000 A 
ATOM      8  N   UNL     1       6.332   5.814  19.569  0.00  0.00    +0.000 NA
ATOM      9  N   UNL     1       6.231   5.581  18.248  0.00  0.00    +0.000 N 
ATOM     10  H   UNL     1       8.210   4.022  16.185  0.00  0.00    +0.000 HD
ENDROOT
BRANCH   1  15
ATOM     11 CL   UNL     1       0.522   2.029  18.816  0.00  0.00    +0.000 Cl
ATOM     12  C   UNL     1       1.799   3.127  18.469  0.00  0.00    +0.000 A 
ATOM     13  C   UNL     1       1.524   4.480  18.311  0.00  0.00    +0.000 A 
ATOM     14  C   UNL     1       2.554   5.368  17.995  0.00  0.00    +0.000 A 
ATOM     15  C   UNL     1       3.878   4.915  17.834  0.00  0.00    +0.000 A 
ATOM     16  C   UNL     1       4.139   3.548  18.031  0.00  0.00    +0.000 A 
ATOM     17  C   UNL     1       3.104   2.657  18.338  0.00  0.00    +0.000 A 
ENDBRANCH   1  15
BRANCH   3  18
ATOM     18  C   UNL     1       6.567   4.435  14.182  0.00  0.00    +0.000 A 
ATOM     19  C   UNL     1       7.546   5.218  13.553  0.00  0.00    +0.000 A 
ATOM     20  C   UNL     1       7.802   5.071  12.188  0.00  0.00    +0.000 A 
ATOM     21  C   UNL     1       7.091   4.136  11.437  0.00  0.00    +0.000 A 
ATOM     22  C   UNL     1       6.127   3.342  12.050  0.00  0.00    +0.000 A 
ATOM     23  C   UNL     1       5.866   3.490  13.413  0.00  0.00    +0.000 A 
ENDBRANCH   3  18
TORSDOF 2
ENDMDL
MODEL 5
REMARK VINA RESULT:      -8.2      3.538      4.862
REMARK  Name = 
REMARK  2 active torsions:
REMARK  status: ('A' for Active; 'I' for Inactive)
REMARK    1  A    between atoms: C_5  and  C_6
REMARK    2  A    between atoms: C_8  and  C_9
REMARK                            x       y       z     vdW  Elec       q    Type
REMARK                         _______ _______ _______ _____ _____    ______ ____
ROOT
ATOM      1  C   UNL     1       3.106   5.856  19.698  0.00  0.00    +0.000 C 
ATOM      2  C   UNL     1       4.328   5.665  18.775  0.00  0.00    +0.000 C 
ATOM      3  C   UNL     1       3.869   5.140  17.402  0.00  0.00    +0.000 C 
ATOM      4  N   UNL     1       3.167   3.875  17.587  0.00  0.00    +0.000 N 
ATOM      5  C   UNL     1       2.237   3.798  18.562  0.00  0.00    +0.000 A 
ATOM      6  N   UNL     1       1.248   2.957  18.717  0.00  0.00    +0.000 NA
ATOM      7  C   UNL     1       0.656   3.383  19.877  0.00  0.00    +0.000 A 
ATOM      8  N   UNL     1       1.218   4.447  20.460  0.00  0.00    +0.000 NA
ATOM      9  N   UNL     1       2.216   4.705  19.594  0.00  0.00    +0.000 N 
ATOM     10  H   UNL     1       2.982   3.342  16.738  0.00  0.00    +0.000 HD
ENDROOT
BRANCH   1  15
ATOM     11 CL   UNL     1       0.088  11.021  18.721  0.00  0.00    +0.000 Cl
ATOM     12  C   UNL     1       0.978   9.576  18.995  0.00  0.00    +0.000 A 
ATOM     13  C   UNL     1       1.638   8.959  17.938  0.00  0.00    +0.000 A 
ATOM     14  C   UNL     1       2.332   7.767  18.152  0.00  0.00    +0.000 A 
ATOM     15  C   UNL     1       2.378   7.174  19.428  0.00  0.00    +0.000 A 
ATOM     16  C   UNL     1       1.732   7.831  20.489  0.00  0.00    +0.000 A 
ATOM     17  C   UNL     1       1.027   9.021  20.272  0.00  0.00    +0.000 A 
ENDBRANCH   1  15
BRANCH   3  18
ATOM     18  C   UNL     1       5.009   4.976  16.419  0.00  0.00    +0.000 A 
ATOM     19  C   UNL     1       4.843   4.324  15.188  0.00  0.00    +0.000 A 
ATOM     20  C   UNL     1       5.924   4.172  14.316  0.00  0.00    +0.000 A 
ATOM     21  C   UNL     1       7.178   4.675  14.658  0.00  0.00    +0.000 A 
ATOM     22  C   UNL     1       7.355   5.336  15.869  0.00  0.00    +0.000 A 
ATOM     23  C   UNL     1       6.278   5.486  16.744  0.00  0.00    +0.000 A 
ENDBRANCH   3  18
TORSDOF 2
ENDMDL
MODEL 6
REMARK VINA RESULT:      -8.2      3.522      4.932
REMARK  Name = 
REMARK  2 active torsions:
REMARK  status: ('A' for Active; 'I' for Inactive)
REMARK    1  A    between atoms: C_5  and  C_6
REMARK    2  A    between atoms: C_8  and  C_9
REMARK                            x       y       z     vdW  Elec       q    Type
REMARK                         _______ _______ _______ _____ _____    ______ ____
ROOT
ATOM      1  C   UNL     1       3.102   5.775  19.700  0.00  0.00    +0.000 C 
ATOM      2  C   UNL     1       4.340   5.595  18.798  0.00  0.00    +0.000 C 
ATOM      3  C   UNL     1       3.906   5.102  17.405  0.00  0.00    +0.000 C 
ATOM      4  N   UNL     1       3.193   3.836  17.550  0.00  0.00    +0.000 N 
ATOM      5  C   UNL     1       2.244   3.745  18.506  0.00  0.00    +0.000 A 
ATOM      6  N   UNL     1       1.248   2.907  18.624  0.00  0.00    +0.000 NA
ATOM      7  C   UNL     1       0.635   3.312  19.781  0.00  0.00    +0.000 A 
ATOM      8  N   UNL     1       1.192   4.361  20.397  0.00  0.00    +0.000 NA
ATOM      9  N   UNL     1       2.208   4.630  19.556  0.00  0.00    +0.000 N 
ATOM     10  H   UNL     1       3.022   3.322  16.687  0.00  0.00    +0.000 HD
ENDROOT
BRANCH   1  15
ATOM     11 CL   UNL     1       0.133  10.978  18.779  0.00  0.00    +0.000 Cl
ATOM     12  C   UNL     1       1.009   9.521  19.037  0.00  0.00    +0.000 A 
ATOM     13  C   UNL     1       1.646   8.899  17.969  0.00  0.00    +0.000 A 
ATOM     14  C   UNL     1       2.329   7.698  18.170  0.00  0.00    +0.000 A 
ATOM     15  C   UNL     1       2.386   7.101  19.444  0.00  0.00    +0.000 A 
ATOM     16  C   UNL     1       1.764   7.764  20.516  0.00  0.00    +0.000 A 
ATOM     17  C   UNL     1       1.071   8.964  20.312  0.00  0.00    +0.000 A 
ENDBRANCH   1  15
BRANCH   3  18
ATOM     18  C   UNL     1       5.063   4.952  16.441  0.00  0.00    +0.000 A 
ATOM     19  C   UNL     1       6.348   5.429  16.739  0.00  0.00    +0.000 A 
ATOM     20  C   UNL     1       7.386   5.293  15.815  0.00  0.00    +0.000 A 
ATOM     21  C   UNL     1       7.157   4.672  14.588  0.00  0.00    +0.000 A 
ATOM     22  C   UNL     1       5.892   4.181  14.284  0.00  0.00    +0.000 A 
ATOM     23  C   UNL     1       4.851   4.321  15.203  0.00  0.00    +0.000 A 
ENDBRANCH   3  18
TORSDOF 2
ENDMDL
MODEL 7
REMARK VINA RESULT:      -8.1      3.503      4.920
REMARK  Name = 
REMARK  2 active torsions:
REMARK  status: ('A' for Active; 'I' for Inactive)
REMARK    1  A    between atoms: C_5  and  C_6
REMARK    2  A    between atoms: C_8  and  C_9
REMARK                            x       y       z     vdW  Elec       q    Type
REMARK                         _______ _______ _______ _____ _____    ______ ____
ROOT
ATOM      1  C   UNL     1       3.143   5.712  19.742  0.00  0.00    +0.000 C 
ATOM      2  C   UNL     1       4.368   5.545  18.819  0.00  0.00    +0.000 C 
ATOM      3  C   UNL     1       3.916   5.049  17.433  0.00  0.00    +0.000 C 
ATOM      4  N   UNL     1       3.218   3.776  17.589  0.00  0.00    +0.000 N 
ATOM      5  C   UNL     1       2.286   3.675  18.560  0.00  0.00    +0.000 A 
ATOM      6  N   UNL     1       1.300   2.827  18.693  0.00  0.00    +0.000 NA
ATOM      7  C   UNL     1       0.702   3.226  19.860  0.00  0.00    +0.000 A 
ATOM      8  N   UNL     1       1.258   4.279  20.468  0.00  0.00    +0.000 NA
ATOM      9  N   UNL     1       2.257   4.559  19.610  0.00  0.00    +0.000 N 
ATOM     10  H   UNL     1       3.038   3.261  16.728  0.00  0.00    +0.000 HD
ENDROOT
BRANCH   1  15
ATOM     11 CL   UNL     1       0.373  10.999  18.687  0.00  0.00    +0.000 Cl
ATOM     12  C   UNL     1       1.124   9.482  18.989  0.00  0.00    +0.000 A 
ATOM     13  C   UNL     1       1.098   8.940  20.269  0.00  0.00    +0.000 A 
ATOM     14  C   UNL     1       1.737   7.725  20.523  0.00  0.00    +0.000 A 
ATOM     15  C   UNL     1       2.410   7.032  19.498  0.00  0.00    +0.000 A 
ATOM     16  C   UNL     1       2.395   7.581  18.205  0.00  0.00    +0.000 A 
ATOM     17  C   UNL     1       1.763   8.805  17.953  0.00  0.00    +0.000 A 
ENDBRANCH   1  15
BRANCH   3  18
ATOM     18  C   UNL     1       5.059   4.911  16.451  0.00  0.00    +0.000 A 
ATOM     19  C   UNL     1       6.360   5.338  16.756  0.00  0.00    +0.000 A 
ATOM     20  C   UNL     1       7.385   5.214  15.815  0.00  0.00    +0.000 A 
ATOM     21  C   UNL     1       7.126   4.658  14.564  0.00  0.00    +0.000 A 
ATOM     22  C   UNL     1       5.844   4.218  14.251  0.00  0.00    +0.000 A 
ATOM     23  C   UNL     1       4.817   4.344  15.188  0.00  0.00    +0.000 A 
ENDBRANCH   3  18
TORSDOF 2
ENDMDL
MODEL 8
REMARK VINA RESULT:      -8.1      3.549      4.903
REMARK  Name = 
REMARK  2 active torsions:
REMARK  status: ('A' for Active; 'I' for Inactive)
REMARK    1  A    between atoms: C_5  and  C_6
REMARK    2  A    between atoms: C_8  and  C_9
REMARK                            x       y       z     vdW  Elec       q    Type
REMARK                         _______ _______ _______ _____ _____    ______ ____
ROOT
ATOM      1  C   UNL     1       3.076   5.795  19.787  0.00  0.00    +0.000 C 
ATOM      2  C   UNL     1       4.304   5.627  18.868  0.00  0.00    +0.000 C 
ATOM      3  C   UNL     1       3.856   5.125  17.483  0.00  0.00    +0.000 C 
ATOM      4  N   UNL     1       3.160   3.852  17.640  0.00  0.00    +0.000 N 
ATOM      5  C   UNL     1       2.225   3.753  18.609  0.00  0.00    +0.000 A 
ATOM      6  N   UNL     1       1.240   2.904  18.743  0.00  0.00    +0.000 NA
ATOM      7  C   UNL     1       0.639   3.305  19.907  0.00  0.00    +0.000 A 
ATOM      8  N   UNL     1       1.192   4.362  20.513  0.00  0.00    +0.000 NA
ATOM      9  N   UNL     1       2.193   4.640  19.657  0.00  0.00    +0.000 N 
ATOM     10  H   UNL     1       2.983   3.334  16.781  0.00  0.00    +0.000 HD
ENDROOT
BRANCH   1  15
ATOM     11 CL   UNL     1       0.301  11.075  18.710  0.00  0.00    +0.000 Cl
ATOM     12  C   UNL     1       1.053   9.560  19.017  0.00  0.00    +0.000 A 
ATOM     13  C   UNL     1       1.011   9.013  20.295  0.00  0.00    +0.000 A 
ATOM     14  C   UNL     1       1.651   7.800  20.554  0.00  0.00    +0.000 A 
ATOM     15  C   UNL     1       2.342   7.113  19.537  0.00  0.00    +0.000 A 
ATOM     16  C   UNL     1       2.343   7.667  18.245  0.00  0.00    +0.000 A 
ATOM     17  C   UNL     1       1.710   8.888  17.988  0.00  0.00    +0.000 A 
ENDBRANCH   1  15
BRANCH   3  18
ATOM     18  C   UNL     1       5.002   4.986  16.503  0.00  0.00    +0.000 A 
ATOM     19  C   UNL     1       4.950   4.101  15.416  0.00  0.00    +0.000 A 
ATOM     20  C   UNL     1       6.036   3.983  14.546  0.00  0.00    +0.000 A 
ATOM     21  C   UNL     1       7.182   4.751  14.746  0.00  0.00    +0.000 A 
ATOM     22  C   UNL     1       7.244   5.642  15.812  0.00  0.00    +0.000 A 
ATOM     23  C   UNL     1       6.162   5.759  16.685  0.00  0.00    +0.000 A 
ENDBRANCH   3  18
TORSDOF 2
ENDMDL
MODEL 9
REMARK VINA RESULT:      -7.6      2.646      3.590
REMARK  Name = 
REMARK  2 active torsions:
REMARK  status: ('A' for Active; 'I' for Inactive)
REMARK    1  A    between atoms: C_5  and  C_6
REMARK    2  A    between atoms: C_8  and  C_9
REMARK                            x       y       z     vdW  Elec       q    Type
REMARK                         _______ _______ _______ _____ _____    ______ ____
ROOT
ATOM      1  C   UNL     1       5.006   4.984  18.480  0.00  0.00    +0.000 C 
ATOM      2  C   UNL     1       5.858   4.980  17.195  0.00  0.00    +0.000 C 
ATOM      3  C   UNL     1       5.079   4.301  16.052  0.00  0.00    +0.000 C 
ATOM      4  N   UNL     1       4.747   2.937  16.448  0.00  0.00    +0.000 N 
ATOM      5  C   UNL     1       4.235   2.738  17.681  0.00  0.00    +0.000 A 
ATOM      6  N   UNL     1       3.544   1.732  18.152  0.00  0.00    +0.000 NA
ATOM      7  C   UNL     1       3.303   2.101  19.450  0.00  0.00    +0.000 A 
ATOM      8  N   UNL     1       3.805   3.284  19.821  0.00  0.00    +0.000 NA
ATOM      9  N   UNL     1       4.381   3.679  18.670  0.00  0.00    +0.000 N 
ATOM     10  H   UNL     1       4.398   2.332  15.706  0.00  0.00    +0.000 HD
ENDROOT
BRANCH   1  15
ATOM     11 CL   UNL     1       1.075   9.598  18.494  0.00  0.00    +0.000 Cl
ATOM     12  C   UNL     1       2.161   8.265  18.479  0.00  0.00    +0.000 A 
ATOM     13  C   UNL     1       2.095   7.307  19.485  0.00  0.00    +0.000 A 
ATOM     14  C   UNL     1       2.999   6.244  19.493  0.00  0.00    +0.000 A 
ATOM     15  C   UNL     1       3.982   6.120  18.492  0.00  0.00    +0.000 A 
ATOM     16  C   UNL     1       4.010   7.081  17.467  0.00  0.00    +0.000 A 
ATOM     17  C   UNL     1       3.110   8.153  17.465  0.00  0.00    +0.000 A 
ENDBRANCH   1  15
BRANCH   3  18
ATOM     18  C   UNL     1       5.830   4.305  14.738  0.00  0.00    +0.000 A 
ATOM     19  C   UNL     1       7.021   5.025  14.562  0.00  0.00    +0.000 A 
ATOM     20  C   UNL     1       7.674   5.023  13.327  0.00  0.00    +0.000 A 
ATOM     21  C   UNL     1       7.152   4.297  12.258  0.00  0.00    +0.000 A 
ATOM     22  C   UNL     1       5.979   3.567  12.421  0.00  0.00    +0.000 A 
ATOM     23  C   UNL     1       5.322   3.571  13.652  0.00  0.00    +0.000 A 
ENDBRANCH   3  18
TORSDOF 2
ENDMDL
