MODEL 1
REMARK VINA RESULT:      -6.7      0.000      0.000
REMARK  Name = 
REMARK  3 active torsions:
REMARK  status: ('A' for Active; 'I' for Inactive)
REMARK    1  A    between atoms: C_1  and  N_2
REMARK    2  A    between atoms: N_8  and  C_9
REMARK    3  A    between atoms: C_10  and  C_11
REMARK                            x       y       z     vdW  Elec       q    Type
REMARK                         _______ _______ _______ _____ _____    ______ ____
ROOT
ATOM      1  C   UNL     1       7.292   3.735  11.859  0.00  0.00    +0.000 C 
ATOM      2  N   UNL     1       6.849   4.378  13.071  0.00  0.00    +0.000 N 
ATOM      3  C   UNL     1       5.675   4.113  13.721  0.00  0.00    +0.000 C 
ATOM      4  O   UNL     1       4.832   3.295  13.392  0.00  0.00    +0.000 OA
ATOM      5  C   UNL     1       5.520   5.095  14.852  0.00  0.00    +0.000 C 
ATOM      6  C   UNL     1       6.919   5.609  15.028  0.00  0.00    +0.000 C 
ATOM      7  O   UNL     1       7.532   4.791  16.010  0.00  0.00    +0.000 OA
ATOM      8  N   UNL     1       6.489   4.114  16.782  0.00  0.00    +0.000 NA
ATOM      9  C   UNL     1       6.744   4.522  18.159  0.00  0.00    +0.000 C 
ATOM     10  C   UNL     1       5.176   4.463  16.184  0.00  0.00    +0.000 C 
ATOM     11  C   UNL     1       7.582   5.337  13.709  0.00  0.00    +0.000 C 
ATOM     12  O   UNL     1       8.606   5.866  13.306  0.00  0.00    +0.000 OA
ENDROOT
BRANCH  10  13
ATOM     13  C   UNL     1       4.267   5.331  17.055  0.00  0.00    +0.000 A 
ATOM     14  C   UNL     1       4.253   6.735  16.981  0.00  0.00    +0.000 A 
ATOM     15  C   UNL     1       3.485   7.497  17.864  0.00  0.00    +0.000 A 
ATOM     16  C   UNL     1       2.711   6.871  18.837  0.00  0.00    +0.000 A 
ATOM     17  C   UNL     1       2.691   5.482  18.907  0.00  0.00    +0.000 A 
ATOM     18 BR   UNL     1       1.639   4.632  20.229  0.00  0.00    +0.000 Br
ATOM     19  C   UNL     1       3.454   4.713  18.025  0.00  0.00    +0.000 A 
ENDBRANCH  10  13
TORSDOF 1
ENDMDL
MODEL 2
REMARK VINA RESULT:      -6.6      2.681      4.005
REMARK  Name = 
REMARK  3 active torsions:
REMARK  status: ('A' for Active; 'I' for Inactive)
REMARK    1  A    between atoms: C_1  and  N_2
REMARK    2  A    between atoms: N_8  and  C_9
REMARK    3  A    between atoms: C_10  and  C_11
REMARK                            x       y       z     vdW  Elec       q    Type
REMARK                         _______ _______ _______ _____ _____    ______ ____
ROOT
ATOM      1  C   UNL     1       7.343   5.084  15.376  0.00  0.00    +0.000 C 
ATOM      2  N   UNL     1       6.421   5.425  16.429  0.00  0.00    +0.000 N 
ATOM      3  C   UNL     1       5.356   6.275  16.302  0.00  0.00    +0.000 C 
ATOM      4  O   UNL     1       5.015   6.863  15.290  0.00  0.00    +0.000 OA
ATOM      5  C   UNL     1       4.738   6.477  17.661  0.00  0.00    +0.000 C 
ATOM      6  C   UNL     1       5.281   5.315  18.439  0.00  0.00    +0.000 C 
ATOM      7  O   UNL     1       4.332   4.268  18.320  0.00  0.00    +0.000 OA
ATOM      8  N   UNL     1       3.044   4.838  17.922  0.00  0.00    +0.000 NA
ATOM      9  C   UNL     1       2.129   4.424  18.979  0.00  0.00    +0.000 C 
ATOM     10  C   UNL     1       3.236   6.292  17.697  0.00  0.00    +0.000 C 
ATOM     11  C   UNL     1       6.519   4.914  17.692  0.00  0.00    +0.000 C 
ATOM     12  O   UNL     1       7.428   4.230  18.137  0.00  0.00    +0.000 OA
ENDROOT
BRANCH  10  13
ATOM     13  C   UNL     1       2.532   7.212  18.695  0.00  0.00    +0.000 A 
ATOM     14  C   UNL     1       2.331   6.863  20.042  0.00  0.00    +0.000 A 
ATOM     15  C   UNL     1       1.592   7.684  20.897  0.00  0.00    +0.000 A 
ATOM     16  C   UNL     1       1.042   8.871  20.425  0.00  0.00    +0.000 A 
ATOM     17  C   UNL     1       1.255   9.246  19.102  0.00  0.00    +0.000 A 
ATOM     18 BR   UNL     1       0.507  10.861  18.461  0.00  0.00    +0.000 Br
ATOM     19  C   UNL     1       1.995   8.432  18.242  0.00  0.00    +0.000 A 
ENDBRANCH  10  13
TORSDOF 1
ENDMDL
MODEL 3
REMARK VINA RESULT:      -6.4      3.861      6.324
REMARK  Name = 
REMARK  3 active torsions:
REMARK  status: ('A' for Active; 'I' for Inactive)
REMARK    1  A    between atoms: C_1  and  N_2
REMARK    2  A    between atoms: N_8  and  C_9
REMARK    3  A    between atoms: C_10  and  C_11
REMARK                            x       y       z     vdW  Elec       q    Type
REMARK                         _______ _______ _______ _____ _____    ______ ____
ROOT
ATOM      1  C   UNL     1       0.513   2.835  20.497  0.00  0.00    +0.000 C 
ATOM      2  N   UNL     1       1.710   3.369  19.899  0.00  0.00    +0.000 N 
ATOM      3  C   UNL     1       2.102   3.169  18.603  0.00  0.00    +0.000 C 
ATOM      4  O   UNL     1       1.505   2.527  17.756  0.00  0.00    +0.000 OA
ATOM      5  C   UNL     1       3.473   3.766  18.419  0.00  0.00    +0.000 C 
ATOM      6  C   UNL     1       3.583   4.692  19.594  0.00  0.00    +0.000 C 
ATOM      7  O   UNL     1       3.127   5.961  19.156  0.00  0.00    +0.000 OA
ATOM      8  N   UNL     1       3.180   6.006  17.694  0.00  0.00    +0.000 NA
ATOM      9  C   UNL     1       4.045   7.144  17.404  0.00  0.00    +0.000 C 
ATOM     10  C   UNL     1       3.603   4.668  17.210  0.00  0.00    +0.000 C 
ATOM     11  C   UNL     1       2.593   4.153  20.585  0.00  0.00    +0.000 C 
ATOM     12  O   UNL     1       2.576   4.402  21.780  0.00  0.00    +0.000 OA
ENDROOT
BRANCH  10  13
ATOM     13  C   UNL     1       4.982   4.612  16.552  0.00  0.00    +0.000 A 
ATOM     14  C   UNL     1       6.163   4.969  17.225  0.00  0.00    +0.000 A 
ATOM     15  C   UNL     1       7.390   5.003  16.559  0.00  0.00    +0.000 A 
ATOM     16  C   UNL     1       7.463   4.679  15.209  0.00  0.00    +0.000 A 
ATOM     17  C   UNL     1       6.308   4.296  14.533  0.00  0.00    +0.000 A 
ATOM     18 BR   UNL     1       6.408   3.854  12.696  0.00  0.00    +0.000 Br
ATOM     19  C   UNL     1       5.078   4.255  15.192  0.00  0.00    +0.000 A 
ENDBRANCH  10  13
TORSDOF 1
ENDMDL
MODEL 4
REMARK VINA RESULT:      -6.3      3.643      5.947
REMARK  Name = 
REMARK  3 active torsions:
REMARK  status: ('A' for Active; 'I' for Inactive)
REMARK    1  A    between atoms: C_1  and  N_2
REMARK    2  A    between atoms: N_8  and  C_9
REMARK    3  A    between atoms: C_10  and  C_11
REMARK                            x       y       z     vdW  Elec       q    Type
REMARK                         _______ _______ _______ _____ _____    ______ ____
ROOT
ATOM      1  C   UNL     1       1.032   3.132  19.963  0.00  0.00    +0.000 C 
ATOM      2  N   UNL     1       2.263   3.318  19.238  0.00  0.00    +0.000 N 
ATOM      3  C   UNL     1       2.367   3.851  17.982  0.00  0.00    +0.000 C 
ATOM      4  O   UNL     1       1.449   4.258  17.289  0.00  0.00    +0.000 OA
ATOM      5  C   UNL     1       3.798   3.733  17.527  0.00  0.00    +0.000 C 
ATOM      6  C   UNL     1       4.530   3.508  18.818  0.00  0.00    +0.000 C 
ATOM      7  O   UNL     1       4.931   4.785  19.285  0.00  0.00    +0.000 OA
ATOM      8  N   UNL     1       4.912   5.728  18.165  0.00  0.00    +0.000 NA
ATOM      9  C   UNL     1       6.276   6.241  18.108  0.00  0.00    +0.000 C 
ATOM     10  C   UNL     1       4.384   5.015  16.975  0.00  0.00    +0.000 C 
ATOM     11  C   UNL     1       3.481   2.975  19.750  0.00  0.00    +0.000 C 
ATOM     12  O   UNL     1       3.696   2.371  20.789  0.00  0.00    +0.000 OA
ENDROOT
BRANCH  10  13
ATOM     13  C   UNL     1       5.388   4.790  15.844  0.00  0.00    +0.000 A 
ATOM     14  C   UNL     1       6.704   5.283  15.884  0.00  0.00    +0.000 A 
ATOM     15  C   UNL     1       7.559   5.146  14.788  0.00  0.00    +0.000 A 
ATOM     16  C   UNL     1       7.118   4.511  13.632  0.00  0.00    +0.000 A 
ATOM     17  C   UNL     1       5.827   3.993  13.585  0.00  0.00    +0.000 A 
ATOM     18 BR   UNL     1       5.228   3.129  12.012  0.00  0.00    +0.000 Br
ATOM     19  C   UNL     1       4.968   4.122  14.678  0.00  0.00    +0.000 A 
ENDBRANCH  10  13
TORSDOF 1
ENDMDL
MODEL 5
REMARK VINA RESULT:      -6.3      2.806      4.272
REMARK  Name = 
REMARK  3 active torsions:
REMARK  status: ('A' for Active; 'I' for Inactive)
REMARK    1  A    between atoms: C_1  and  N_2
REMARK    2  A    between atoms: N_8  and  C_9
REMARK    3  A    between atoms: C_10  and  C_11
REMARK                            x       y       z     vdW  Elec       q    Type
REMARK                         _______ _______ _______ _____ _____    ______ ____
ROOT
ATOM      1  C   UNL     1       7.352   4.522  16.632  0.00  0.00    +0.000 C 
ATOM      2  N   UNL     1       6.338   5.206  17.393  0.00  0.00    +0.000 N 
ATOM      3  C   UNL     1       5.257   5.856  16.863  0.00  0.00    +0.000 C 
ATOM      4  O   UNL     1       4.976   5.950  15.680  0.00  0.00    +0.000 OA
ATOM      5  C   UNL     1       4.526   6.560  17.976  0.00  0.00    +0.000 C 
ATOM      6  C   UNL     1       5.046   5.861  19.197  0.00  0.00    +0.000 C 
ATOM      7  O   UNL     1       4.148   4.799  19.471  0.00  0.00    +0.000 OA
ATOM      8  N   UNL     1       2.876   5.068  18.798  0.00  0.00    +0.000 NA
ATOM      9  C   UNL     1       1.896   5.068  19.878  0.00  0.00    +0.000 C 
ATOM     10  C   UNL     1       3.033   6.308  18.000  0.00  0.00    +0.000 C 
ATOM     11  C   UNL     1       6.354   5.269  18.757  0.00  0.00    +0.000 C 
ATOM     12  O   UNL     1       7.248   4.892  19.497  0.00  0.00    +0.000 OA
ENDROOT
BRANCH  10  13
ATOM     13  C   UNL     1       2.219   7.509  18.482  0.00  0.00    +0.000 A 
ATOM     14  C   UNL     1       1.716   8.490  17.609  0.00  0.00    +0.000 A 
ATOM     15  C   UNL     1       1.067   9.626  18.098  0.00  0.00    +0.000 A 
ATOM     16  C   UNL     1       0.903   9.804  19.468  0.00  0.00    +0.000 A 
ATOM     17  C   UNL     1       1.370   8.829  20.345  0.00  0.00    +0.000 A 
ATOM     18 BR   UNL     1       1.148   9.072  22.208  0.00  0.00    +0.000 Br
ATOM     19  C   UNL     1       2.018   7.689  19.865  0.00  0.00    +0.000 A 
ENDBRANCH  10  13
TORSDOF 1
ENDMDL
MODEL 6
REMARK VINA RESULT:      -6.1      3.247      5.803
REMARK  Name = 
REMARK  3 active torsions:
REMARK  status: ('A' for Active; 'I' for Inactive)
REMARK    1  A    between atoms: C_1  and  N_2
REMARK    2  A    between atoms: N_8  and  C_9
REMARK    3  A    between atoms: C_10  and  C_11
REMARK                            x       y       z     vdW  Elec       q    Type
REMARK                         _______ _______ _______ _____ _____    ______ ____
ROOT
ATOM      1  C   UNL     1       1.981   5.414  19.950  0.00  0.00    +0.000 C 
ATOM      2  N   UNL     1       2.946   4.956  18.984  0.00  0.00    +0.000 N 
ATOM      3  C   UNL     1       3.409   5.687  17.923  0.00  0.00    +0.000 C 
ATOM      4  O   UNL     1       3.093   6.829  17.636  0.00  0.00    +0.000 OA
ATOM      5  C   UNL     1       4.286   4.801  17.076  0.00  0.00    +0.000 C 
ATOM      6  C   UNL     1       4.613   3.678  18.015  0.00  0.00    +0.000 C 
ATOM      7  O   UNL     1       5.828   4.026  18.658  0.00  0.00    +0.000 OA
ATOM      8  N   UNL     1       6.511   5.046  17.860  0.00  0.00    +0.000 NA
ATOM      9  C   UNL     1       7.809   4.453  17.558  0.00  0.00    +0.000 C 
ATOM     10  C   UNL     1       5.628   5.407  16.723  0.00  0.00    +0.000 C 
ATOM     11  C   UNL     1       3.514   3.716  19.036  0.00  0.00    +0.000 C 
ATOM     12  O   UNL     1       3.212   2.803  19.790  0.00  0.00    +0.000 OA
ENDROOT
BRANCH  10  13
ATOM     13  C   UNL     1       6.136   4.999  15.340  0.00  0.00    +0.000 A 
ATOM     14  C   UNL     1       7.416   5.339  14.868  0.00  0.00    +0.000 A 
ATOM     15  C   UNL     1       7.806   5.038  13.560  0.00  0.00    +0.000 A 
ATOM     16  C   UNL     1       6.927   4.388  12.700  0.00  0.00    +0.000 A 
ATOM     17  C   UNL     1       5.666   4.019  13.160  0.00  0.00    +0.000 A 
ATOM     18 BR   UNL     1       4.471   3.136  11.989  0.00  0.00    +0.000 Br
ATOM     19  C   UNL     1       5.270   4.314  14.466  0.00  0.00    +0.000 A 
ENDBRANCH  10  13
TORSDOF 1
ENDMDL
MODEL 7
REMARK VINA RESULT:      -6.1      3.541      6.108
REMARK  Name = 
REMARK  3 active torsions:
REMARK  status: ('A' for Active; 'I' for Inactive)
REMARK    1  A    between atoms: C_1  and  N_2
REMARK    2  A    between atoms: N_8  and  C_9
REMARK    3  A    between atoms: C_10  and  C_11
REMARK                            x       y       z     vdW  Elec       q    Type
REMARK                         _______ _______ _______ _____ _____    ______ ____
ROOT
ATOM      1  C   UNL     1       1.961   5.147  20.604  0.00  0.00    +0.000 C 
ATOM      2  N   UNL     1       2.861   4.729  19.560  0.00  0.00    +0.000 N 
ATOM      3  C   UNL     1       3.134   5.437  18.421  0.00  0.00    +0.000 C 
ATOM      4  O   UNL     1       2.673   6.524  18.116  0.00  0.00    +0.000 OA
ATOM      5  C   UNL     1       4.003   4.592  17.527  0.00  0.00    +0.000 C 
ATOM      6  C   UNL     1       4.540   3.562  18.477  0.00  0.00    +0.000 C 
ATOM      7  O   UNL     1       5.773   4.063  18.964  0.00  0.00    +0.000 OA
ATOM      8  N   UNL     1       6.261   5.096  18.048  0.00  0.00    +0.000 NA
ATOM      9  C   UNL     1       7.574   4.613  17.635  0.00  0.00    +0.000 C 
ATOM     10  C   UNL     1       5.231   5.301  17.000  0.00  0.00    +0.000 C 
ATOM     11  C   UNL     1       3.555   3.554  19.610  0.00  0.00    +0.000 C 
ATOM     12  O   UNL     1       3.429   2.662  20.435  0.00  0.00    +0.000 OA
ENDROOT
BRANCH  10  13
ATOM     13  C   UNL     1       5.631   4.864  15.590  0.00  0.00    +0.000 A 
ATOM     14  C   UNL     1       5.006   3.801  14.916  0.00  0.00    +0.000 A 
ATOM     15  C   UNL     1       5.468   3.364  13.672  0.00  0.00    +0.000 A 
ATOM     16  C   UNL     1       6.562   3.983  13.075  0.00  0.00    +0.000 A 
ATOM     17  C   UNL     1       7.176   5.056  13.716  0.00  0.00    +0.000 A 
ATOM     18 BR   UNL     1       8.663   5.897  12.904  0.00  0.00    +0.000 Br
ATOM     19  C   UNL     1       6.718   5.500  14.958  0.00  0.00    +0.000 A 
ENDBRANCH  10  13
TORSDOF 1
ENDMDL
MODEL 8
REMARK VINA RESULT:      -6.0      4.075      6.009
REMARK  Name = 
REMARK  3 active torsions:
REMARK  status: ('A' for Active; 'I' for Inactive)
REMARK    1  A    between atoms: C_1  and  N_2
REMARK    2  A    between atoms: N_8  and  C_9
REMARK    3  A    between atoms: C_10  and  C_11
REMARK                            x       y       z     vdW  Elec       q    Type
REMARK                         _______ _______ _______ _____ _____    ______ ____
ROOT
ATOM      1  C   UNL     1       0.552   1.793  18.889  0.00  0.00    +0.000 C 
ATOM      2  N   UNL     1       1.555   2.822  18.991  0.00  0.00    +0.000 N 
ATOM      3  C   UNL     1       2.461   3.140  18.016  0.00  0.00    +0.000 C 
ATOM      4  O   UNL     1       2.557   2.621  16.917  0.00  0.00    +0.000 OA
ATOM      5  C   UNL     1       3.423   4.159  18.570  0.00  0.00    +0.000 C 
ATOM      6  C   UNL     1       2.683   4.689  19.762  0.00  0.00    +0.000 C 
ATOM      7  O   UNL     1       1.957   5.823  19.319  0.00  0.00    +0.000 OA
ATOM      8  N   UNL     1       2.548   6.307  18.070  0.00  0.00    +0.000 NA
ATOM      9  C   UNL     1       2.911   7.689  18.360  0.00  0.00    +0.000 C 
ATOM     10  C   UNL     1       3.630   5.368  17.682  0.00  0.00    +0.000 C 
ATOM     11  C   UNL     1       1.701   3.605  20.100  0.00  0.00    +0.000 C 
ATOM     12  O   UNL     1       1.124   3.477  21.169  0.00  0.00    +0.000 OA
ENDROOT
BRANCH  10  13
ATOM     13  C   UNL     1       5.048   5.937  17.745  0.00  0.00    +0.000 A 
ATOM     14  C   UNL     1       5.565   6.806  16.768  0.00  0.00    +0.000 A 
ATOM     15  C   UNL     1       6.898   7.221  16.805  0.00  0.00    +0.000 A 
ATOM     16  C   UNL     1       7.740   6.780  17.821  0.00  0.00    +0.000 A 
ATOM     17  C   UNL     1       7.238   5.941  18.811  0.00  0.00    +0.000 A 
ATOM     18 BR   UNL     1       8.384   5.341  20.192  0.00  0.00    +0.000 Br
ATOM     19  C   UNL     1       5.906   5.524  18.783  0.00  0.00    +0.000 A 
ENDBRANCH  10  13
TORSDOF 1
ENDMDL
MODEL 9
REMARK VINA RESULT:      -6.0      3.697      6.251
REMARK  Name = 
REMARK  3 active torsions:
REMARK  status: ('A' for Active; 'I' for Inactive)
REMARK    1  A    between atoms: C_1  and  N_2
REMARK    2  A    between atoms: N_8  and  C_9
REMARK    3  A    between atoms: C_10  and  C_11
REMARK                            x       y       z     vdW  Elec       q    Type
REMARK                         _______ _______ _______ _____ _____    ______ ____
ROOT
ATOM      1  C   UNL     1       1.755   7.556  20.453  0.00  0.00    +0.000 C 
ATOM      2  N   UNL     1       2.570   6.713  19.616  0.00  0.00    +0.000 N 
ATOM      3  C   UNL     1       3.088   7.070  18.401  0.00  0.00    +0.000 C 
ATOM      4  O   UNL     1       2.953   8.146  17.844  0.00  0.00    +0.000 OA
ATOM      5  C   UNL     1       3.750   5.864  17.788  0.00  0.00    +0.000 C 
ATOM      6  C   UNL     1       3.937   4.961  18.972  0.00  0.00    +0.000 C 
ATOM      7  O   UNL     1       5.228   5.231  19.490  0.00  0.00    +0.000 OA
ATOM      8  N   UNL     1       6.027   5.889  18.454  0.00  0.00    +0.000 NA
ATOM      9  C   UNL     1       7.185   5.018  18.291  0.00  0.00    +0.000 C 
ATOM     10  C   UNL     1       5.153   6.116  17.277  0.00  0.00    +0.000 C 
ATOM     11  C   UNL     1       2.921   5.441  19.967  0.00  0.00    +0.000 C 
ATOM     12  O   UNL     1       2.513   4.807  20.928  0.00  0.00    +0.000 OA
ENDROOT
BRANCH  10  13
ATOM     13  C   UNL     1       5.503   5.301  16.031  0.00  0.00    +0.000 A 
ATOM     14  C   UNL     1       4.927   4.050  15.751  0.00  0.00    +0.000 A 
ATOM     15  C   UNL     1       5.349   3.290  14.658  0.00  0.00    +0.000 A 
ATOM     16  C   UNL     1       6.353   3.766  13.820  0.00  0.00    +0.000 A 
ATOM     17  C   UNL     1       6.914   5.015  14.066  0.00  0.00    +0.000 A 
ATOM     18 BR   UNL     1       8.278   5.662  12.926  0.00  0.00    +0.000 Br
ATOM     19  C   UNL     1       6.496   5.783  15.154  0.00  0.00    +0.000 A 
ENDBRANCH  10  13
TORSDOF 1
ENDMDL
