MODEL 1
REMARK VINA RESULT:      -8.4      0.000      0.000
REMARK  Name = 
REMARK  11 active torsions:
REMARK  status: ('A' for Active; 'I' for Inactive)
REMARK    1  A    between atoms: C_1  and  C_2
REMARK    2  A    between atoms: C_2  and  O_3
REMARK    3  A    between atoms: O_3  and  C_4
REMARK    4  A    between atoms: C_4  and  C_6
REMARK    5  A    between atoms: C_8  and  C_9
REMARK    6  A    between atoms: C_12  and  C_13
REMARK    7  A    between atoms: N_16  and  C_17
REMARK    8  A    between atoms: C_17  and  C_18
REMARK    9  A    between atoms: C_18  and  C_19
REMARK   10  A    between atoms: C_25  and  C_26
REMARK   11  A    between atoms: C_32  and  C_33
REMARK                            x       y       z     vdW  Elec       q    Type
REMARK                         _______ _______ _______ _____ _____    ______ ____
ROOT
ATOM      1  C   UNL     1       5.128   4.453  15.515  0.00  0.00    +0.000 A 
ATOM      2  C   UNL     1       4.486   3.614  16.447  0.00  0.00    +0.000 A 
ATOM      3  C   UNL     1       3.983   4.374  17.496  0.00  0.00    +0.000 A 
ATOM      4  N   UNL     1       4.307   5.716  17.200  0.00  0.00    +0.000 N 
ATOM      5  C   UNL     1       4.995   5.757  15.988  0.00  0.00    +0.000 A 
ATOM      6  C   UNL     1       5.517   6.954  15.255  0.00  0.00    +0.000 C 
ENDROOT
BRANCH   3   7
ATOM      7  C   UNL     1       3.284   3.825  18.694  0.00  0.00    +0.000 A 
ATOM      8  C   UNL     1       1.886   3.958  18.801  0.00  0.00    +0.000 A 
ATOM      9  C   UNL     1       1.179   3.488  19.919  0.00  0.00    +0.000 A 
ATOM     10  C   UNL     1       1.850   2.851  20.963  0.00  0.00    +0.000 A 
ATOM     11  C   UNL     1       1.120   2.308  22.154  0.00  0.00    +0.000 C 
ATOM     12  C   UNL     1       3.240   2.730  20.882  0.00  0.00    +0.000 A 
ATOM     13  C   UNL     1       3.943   3.236  19.778  0.00  0.00    +0.000 A 
ENDBRANCH   3   7
BRANCH   1  14
ATOM     14  C   UNL     1       5.768   4.070  14.253  0.00  0.00    +0.000 C 
ATOM     15  O   UNL     1       6.983   3.982  14.105  0.00  0.00    +0.000 OA
BRANCH  14  16
ATOM     16  O   UNL     1       4.870   3.928  13.237  0.00  0.00    +0.000 OA
BRANCH  16  18
ATOM     17  C   UNL     1       4.226   3.050  11.117  0.00  0.00    +0.000 C 
ATOM     18  C   UNL     1       5.367   3.194  12.111  0.00  0.00    +0.000 C 
ENDBRANCH  16  18
ENDBRANCH  14  16
ENDBRANCH   1  14
BRANCH   4  19
ATOM     19  C   UNL     1       3.959   6.820  18.094  0.00  0.00    +0.000 C 
BRANCH  19  20
ATOM     20  C   UNL     1       2.908   7.867  17.723  0.00  0.00    +0.000 C 
BRANCH  20  21
ATOM     21  C   UNL     1       2.041   8.229  18.919  0.00  0.00    +0.000 C 
ATOM     22  O   UNL     1       1.877   7.430  19.835  0.00  0.00    +0.000 OA
ATOM     23  N   UNL     1       1.485   9.495  18.817  0.00  0.00    +0.000 N 
ATOM     24  C   UNL     1       0.722  10.090  19.799  0.00  0.00    +0.000 A 
ATOM     25  N   UNL     1      -0.118  11.078  19.574  0.00  0.00    +0.000 NA
ATOM     26  C   UNL     1      -0.817  11.379  20.747  0.00  0.00    +0.000 A 
ATOM     27  C   UNL     1      -1.890  12.303  20.906  0.00  0.00    +0.000 A 
ATOM     28  C   UNL     1      -2.391  13.223  19.827  0.00  0.00    +0.000 C 
ATOM     29  C   UNL     1      -2.528  12.379  22.166  0.00  0.00    +0.000 A 
ATOM     30  C   UNL     1      -2.077  11.647  23.259  0.00  0.00    +0.000 A 
ATOM     31  C   UNL     1      -0.978  10.805  23.136  0.00  0.00    +0.000 A 
ATOM     32  C   UNL     1      -0.393  10.663  21.870  0.00  0.00    +0.000 A 
ATOM     33  S   UNL     1       0.906   9.638  21.429  0.00  0.00    +0.000 S 
ATOM     34  H   UNL     1       1.412   9.943  17.913  0.00  0.00    +0.000 HD
ENDBRANCH  20  21
ENDBRANCH  19  20
ENDBRANCH   4  19
TORSDOF 7
ENDMDL
MODEL 2
REMARK VINA RESULT:      -7.8      2.715      5.213
REMARK  Name = 
REMARK  11 active torsions:
REMARK  status: ('A' for Active; 'I' for Inactive)
REMARK    1  A    between atoms: C_1  and  C_2
REMARK    2  A    between atoms: C_2  and  O_3
REMARK    3  A    between atoms: O_3  and  C_4
REMARK    4  A    between atoms: C_4  and  C_6
REMARK    5  A    between atoms: C_8  and  C_9
REMARK    6  A    between atoms: C_12  and  C_13
REMARK    7  A    between atoms: N_16  and  C_17
REMARK    8  A    between atoms: C_17  and  C_18
REMARK    9  A    between atoms: C_18  and  C_19
REMARK   10  A    between atoms: C_25  and  C_26
REMARK   11  A    between atoms: C_32  and  C_33
REMARK                            x       y       z     vdW  Elec       q    Type
REMARK                         _______ _______ _______ _____ _____    ______ ____
ROOT
ATOM      1  C   UNL     1       2.718   4.297  20.284  0.00  0.00    +0.000 A 
ATOM      2  C   UNL     1       3.671   3.951  19.306  0.00  0.00    +0.000 A 
ATOM      3  C   UNL     1       3.967   5.062  18.525  0.00  0.00    +0.000 A 
ATOM      4  N   UNL     1       3.192   6.123  19.040  0.00  0.00    +0.000 N 
ATOM      5  C   UNL     1       2.442   5.653  20.117  0.00  0.00    +0.000 A 
ATOM      6  C   UNL     1       1.496   6.413  20.995  0.00  0.00    +0.000 C 
ENDROOT
BRANCH   3   7
ATOM      7  C   UNL     1       4.896   5.065  17.358  0.00  0.00    +0.000 A 
ATOM      8  C   UNL     1       4.577   4.298  16.219  0.00  0.00    +0.000 A 
ATOM      9  C   UNL     1       5.427   4.237  15.104  0.00  0.00    +0.000 A 
ATOM     10  C   UNL     1       6.620   4.960  15.084  0.00  0.00    +0.000 A 
ATOM     11  C   UNL     1       7.531   4.943  13.895  0.00  0.00    +0.000 C 
ATOM     12  C   UNL     1       6.960   5.708  16.214  0.00  0.00    +0.000 A 
ATOM     13  C   UNL     1       6.124   5.733  17.339  0.00  0.00    +0.000 A 
ENDBRANCH   3   7
BRANCH   1  14
ATOM     14  C   UNL     1       2.150   3.440  21.329  0.00  0.00    +0.000 C 
ATOM     15  O   UNL     1       2.501   3.474  22.505  0.00  0.00    +0.000 OA
BRANCH  14  16
ATOM     16  O   UNL     1       1.267   2.529  20.831  0.00  0.00    +0.000 OA
BRANCH  16  18
ATOM     17  C   UNL     1       0.613   2.106  18.577  0.00  0.00    +0.000 C 
ATOM     18  C   UNL     1       0.439   3.029  19.773  0.00  0.00    +0.000 C 
ENDBRANCH  16  18
ENDBRANCH  14  16
ENDBRANCH   1  14
BRANCH   4  19
ATOM     19  C   UNL     1       3.216   7.464  18.456  0.00  0.00    +0.000 C 
BRANCH  19  20
ATOM     20  C   UNL     1       2.037   8.024  17.658  0.00  0.00    +0.000 C 
BRANCH  20  21
ATOM     21  C   UNL     1       1.683   9.433  18.109  0.00  0.00    +0.000 C 
ATOM     22  O   UNL     1       2.291  10.401  17.665  0.00  0.00    +0.000 OA
ATOM     23  N   UNL     1       0.661   9.457  19.046  0.00  0.00    +0.000 N 
ATOM     24  C   UNL     1       0.104  10.609  19.558  0.00  0.00    +0.000 A 
ATOM     25  N   UNL     1      -0.555  10.658  20.696  0.00  0.00    +0.000 NA
ATOM     26  C   UNL     1      -0.893  11.984  20.989  0.00  0.00    +0.000 A 
ATOM     27  C   UNL     1      -1.507  12.483  22.173  0.00  0.00    +0.000 A 
ATOM     28  C   UNL     1      -2.018  11.624  23.297  0.00  0.00    +0.000 C 
ATOM     29  C   UNL     1      -1.667  13.882  22.307  0.00  0.00    +0.000 A 
ATOM     30  C   UNL     1      -1.323  14.758  21.284  0.00  0.00    +0.000 A 
ATOM     31  C   UNL     1      -0.799  14.274  20.091  0.00  0.00    +0.000 A 
ATOM     32  C   UNL     1      -0.563  12.897  19.983  0.00  0.00    +0.000 A 
ATOM     33  S   UNL     1       0.145  12.059  18.669  0.00  0.00    +0.000 S 
ATOM     34  H   UNL     1       0.444   8.624  19.578  0.00  0.00    +0.000 HD
ENDBRANCH  20  21
ENDBRANCH  19  20
ENDBRANCH   4  19
TORSDOF 7
ENDMDL
MODEL 3
REMARK VINA RESULT:      -7.8      1.861      2.495
REMARK  Name = 
REMARK  11 active torsions:
REMARK  status: ('A' for Active; 'I' for Inactive)
REMARK    1  A    between atoms: C_1  and  C_2
REMARK    2  A    between atoms: C_2  and  O_3
REMARK    3  A    between atoms: O_3  and  C_4
REMARK    4  A    between atoms: C_4  and  C_6
REMARK    5  A    between atoms: C_8  and  C_9
REMARK    6  A    between atoms: C_12  and  C_13
REMARK    7  A    between atoms: N_16  and  C_17
REMARK    8  A    between atoms: C_17  and  C_18
REMARK    9  A    between atoms: C_18  and  C_19
REMARK   10  A    between atoms: C_25  and  C_26
REMARK   11  A    between atoms: C_32  and  C_33
REMARK                            x       y       z     vdW  Elec       q    Type
REMARK                         _______ _______ _______ _____ _____    ______ ____
ROOT
ATOM      1  C   UNL     1       5.459   4.814  16.344  0.00  0.00    +0.000 A 
ATOM      2  C   UNL     1       4.945   3.940  17.322  0.00  0.00    +0.000 A 
ATOM      3  C   UNL     1       3.857   4.531  17.955  0.00  0.00    +0.000 A 
ATOM      4  N   UNL     1       3.684   5.792  17.345  0.00  0.00    +0.000 N 
ATOM      5  C   UNL     1       4.656   5.953  16.358  0.00  0.00    +0.000 A 
ATOM      6  C   UNL     1       4.856   7.111  15.429  0.00  0.00    +0.000 C 
ENDROOT
BRANCH   3   7
ATOM      7  C   UNL     1       3.089   3.925  19.081  0.00  0.00    +0.000 A 
ATOM      8  C   UNL     1       3.784   3.293  20.131  0.00  0.00    +0.000 A 
ATOM      9  C   UNL     1       3.114   2.679  21.201  0.00  0.00    +0.000 A 
ATOM     10  C   UNL     1       1.721   2.693  21.263  0.00  0.00    +0.000 A 
ATOM     11  C   UNL     1       0.978   2.076  22.409  0.00  0.00    +0.000 C 
ATOM     12  C   UNL     1       1.016   3.297  20.219  0.00  0.00    +0.000 A 
ATOM     13  C   UNL     1       1.693   3.875  19.135  0.00  0.00    +0.000 A 
ENDBRANCH   3   7
BRANCH   1  14
ATOM     14  C   UNL     1       6.580   4.579  15.429  0.00  0.00    +0.000 C 
ATOM     15  O   UNL     1       7.577   5.292  15.374  0.00  0.00    +0.000 OA
BRANCH  14  16
ATOM     16  O   UNL     1       6.343   3.544  14.573  0.00  0.00    +0.000 OA
BRANCH  16  18
ATOM     17  C   UNL     1       5.139   3.588  12.517  0.00  0.00    +0.000 C 
ATOM     18  C   UNL     1       6.470   3.886  13.187  0.00  0.00    +0.000 C 
ENDBRANCH  16  18
ENDBRANCH  14  16
ENDBRANCH   1  14
BRANCH   4  19
ATOM     19  C   UNL     1       2.640   6.727  17.764  0.00  0.00    +0.000 C 
BRANCH  19  20
ATOM     20  C   UNL     1       2.965   8.042  18.474  0.00  0.00    +0.000 C 
BRANCH  20  21
ATOM     21  C   UNL     1       1.700   8.743  18.944  0.00  0.00    +0.000 C 
ATOM     22  O   UNL     1       1.448   8.839  20.141  0.00  0.00    +0.000 OA
ATOM     23  N   UNL     1       0.919   9.205  17.895  0.00  0.00    +0.000 N 
ATOM     24  C   UNL     1      -0.238   9.938  18.053  0.00  0.00    +0.000 A 
ATOM     25  N   UNL     1      -1.172  10.034  17.130  0.00  0.00    +0.000 NA
ATOM     26  C   UNL     1      -2.261  10.751  17.636  0.00  0.00    +0.000 A 
ATOM     27  C   UNL     1      -3.518  10.983  17.005  0.00  0.00    +0.000 A 
ATOM     28  C   UNL     1      -3.851  10.582  15.595  0.00  0.00    +0.000 C 
ATOM     29  C   UNL     1      -4.524  11.651  17.741  0.00  0.00    +0.000 A 
ATOM     30  C   UNL     1      -4.286  12.155  19.014  0.00  0.00    +0.000 A 
ATOM     31  C   UNL     1      -3.038  12.006  19.607  0.00  0.00    +0.000 A 
ATOM     32  C   UNL     1      -2.061  11.276  18.916  0.00  0.00    +0.000 A 
ATOM     33  S   UNL     1      -0.484  10.877  19.450  0.00  0.00    +0.000 S 
ATOM     34  H   UNL     1       1.035   8.814  16.969  0.00  0.00    +0.000 HD
ENDBRANCH  20  21
ENDBRANCH  19  20
ENDBRANCH   4  19
TORSDOF 7
ENDMDL
MODEL 4
REMARK VINA RESULT:      -7.8      3.267      5.675
REMARK  Name = 
REMARK  11 active torsions:
REMARK  status: ('A' for Active; 'I' for Inactive)
REMARK    1  A    between atoms: C_1  and  C_2
REMARK    2  A    between atoms: C_2  and  O_3
REMARK    3  A    between atoms: O_3  and  C_4
REMARK    4  A    between atoms: C_4  and  C_6
REMARK    5  A    between atoms: C_8  and  C_9
REMARK    6  A    between atoms: C_12  and  C_13
REMARK    7  A    between atoms: N_16  and  C_17
REMARK    8  A    between atoms: C_17  and  C_18
REMARK    9  A    between atoms: C_18  and  C_19
REMARK   10  A    between atoms: C_25  and  C_26
REMARK   11  A    between atoms: C_32  and  C_33
REMARK                            x       y       z     vdW  Elec       q    Type
REMARK                         _______ _______ _______ _____ _____    ______ ____
ROOT
ATOM      1  C   UNL     1       2.785   4.468  20.184  0.00  0.00    +0.000 A 
ATOM      2  C   UNL     1       3.745   4.116  19.215  0.00  0.00    +0.000 A 
ATOM      3  C   UNL     1       4.001   5.204  18.389  0.00  0.00    +0.000 A 
ATOM      4  N   UNL     1       3.192   6.258  18.866  0.00  0.00    +0.000 N 
ATOM      5  C   UNL     1       2.463   5.806  19.965  0.00  0.00    +0.000 A 
ATOM      6  C   UNL     1       1.496   6.568  20.818  0.00  0.00    +0.000 C 
ENDROOT
BRANCH   3   7
ATOM      7  C   UNL     1       4.924   5.192  17.217  0.00  0.00    +0.000 A 
ATOM      8  C   UNL     1       4.615   4.387  16.102  0.00  0.00    +0.000 A 
ATOM      9  C   UNL     1       5.461   4.312  14.985  0.00  0.00    +0.000 A 
ATOM     10  C   UNL     1       6.639   5.057  14.939  0.00  0.00    +0.000 A 
ATOM     11  C   UNL     1       7.546   5.024  13.746  0.00  0.00    +0.000 C 
ATOM     12  C   UNL     1       6.970   5.843  16.045  0.00  0.00    +0.000 A 
ATOM     13  C   UNL     1       6.138   5.884  17.173  0.00  0.00    +0.000 A 
ENDBRANCH   3   7
BRANCH   1  14
ATOM     14  C   UNL     1       2.251   3.634  21.264  0.00  0.00    +0.000 C 
ATOM     15  O   UNL     1       2.528   3.794  22.449  0.00  0.00    +0.000 OA
BRANCH  14  16
ATOM     16  O   UNL     1       1.499   2.596  20.797  0.00  0.00    +0.000 OA
BRANCH  16  18
ATOM     17  C   UNL     1       0.678   2.155  18.604  0.00  0.00    +0.000 C 
ATOM     18  C   UNL     1       0.481   2.981  19.865  0.00  0.00    +0.000 C 
ENDBRANCH  16  18
ENDBRANCH  14  16
ENDBRANCH   1  14
BRANCH   4  19
ATOM     19  C   UNL     1       3.168   7.575  18.229  0.00  0.00    +0.000 C 
BRANCH  19  20
ATOM     20  C   UNL     1       1.935   8.099  17.493  0.00  0.00    +0.000 C 
BRANCH  20  21
ATOM     21  C   UNL     1       1.424   9.389  18.117  0.00  0.00    +0.000 C 
ATOM     22  O   UNL     1       0.346   9.415  18.701  0.00  0.00    +0.000 OA
ATOM     23  N   UNL     1       2.286  10.459  17.923  0.00  0.00    +0.000 N 
ATOM     24  C   UNL     1       2.092  11.717  18.451  0.00  0.00    +0.000 A 
ATOM     25  N   UNL     1       2.654  12.805  17.968  0.00  0.00    +0.000 NA
ATOM     26  C   UNL     1       2.171  13.927  18.650  0.00  0.00    +0.000 A 
ATOM     27  C   UNL     1       2.437  15.298  18.367  0.00  0.00    +0.000 A 
ATOM     28  C   UNL     1       3.406  15.781  17.323  0.00  0.00    +0.000 C 
ATOM     29  C   UNL     1       1.759  16.283  19.123  0.00  0.00    +0.000 A 
ATOM     30  C   UNL     1       0.921  15.944  20.179  0.00  0.00    +0.000 A 
ATOM     31  C   UNL     1       0.719  14.612  20.517  0.00  0.00    +0.000 A 
ATOM     32  C   UNL     1       1.323  13.629  19.721  0.00  0.00    +0.000 A 
ATOM     33  S   UNL     1       1.172  11.930  19.866  0.00  0.00    +0.000 S 
ATOM     34  H   UNL     1       2.972  10.426  17.180  0.00  0.00    +0.000 HD
ENDBRANCH  20  21
ENDBRANCH  19  20
ENDBRANCH   4  19
TORSDOF 7
ENDMDL
MODEL 5
REMARK VINA RESULT:      -7.8      2.672      5.183
REMARK  Name = 
REMARK  11 active torsions:
REMARK  status: ('A' for Active; 'I' for Inactive)
REMARK    1  A    between atoms: C_1  and  C_2
REMARK    2  A    between atoms: C_2  and  O_3
REMARK    3  A    between atoms: O_3  and  C_4
REMARK    4  A    between atoms: C_4  and  C_6
REMARK    5  A    between atoms: C_8  and  C_9
REMARK    6  A    between atoms: C_12  and  C_13
REMARK    7  A    between atoms: N_16  and  C_17
REMARK    8  A    between atoms: C_17  and  C_18
REMARK    9  A    between atoms: C_18  and  C_19
REMARK   10  A    between atoms: C_25  and  C_26
REMARK   11  A    between atoms: C_32  and  C_33
REMARK                            x       y       z     vdW  Elec       q    Type
REMARK                         _______ _______ _______ _____ _____    ______ ____
ROOT
ATOM      1  C   UNL     1       3.336   3.560  19.837  0.00  0.00    +0.000 A 
ATOM      2  C   UNL     1       4.192   3.323  18.744  0.00  0.00    +0.000 A 
ATOM      3  C   UNL     1       4.503   4.527  18.121  0.00  0.00    +0.000 A 
ATOM      4  N   UNL     1       3.836   5.532  18.854  0.00  0.00    +0.000 N 
ATOM      5  C   UNL     1       3.136   4.938  19.903  0.00  0.00    +0.000 A 
ATOM      6  C   UNL     1       2.306   5.598  20.960  0.00  0.00    +0.000 C 
ENDROOT
BRANCH   3   7
ATOM      7  C   UNL     1       5.344   4.665  16.897  0.00  0.00    +0.000 A 
ATOM      8  C   UNL     1       4.797   4.335  15.641  0.00  0.00    +0.000 A 
ATOM      9  C   UNL     1       5.549   4.416  14.459  0.00  0.00    +0.000 A 
ATOM     10  C   UNL     1       6.875   4.850  14.494  0.00  0.00    +0.000 A 
ATOM     11  C   UNL     1       7.693   4.980  13.245  0.00  0.00    +0.000 C 
ATOM     12  C   UNL     1       7.438   5.160  15.734  0.00  0.00    +0.000 A 
ATOM     13  C   UNL     1       6.691   5.041  16.914  0.00  0.00    +0.000 A 
ENDBRANCH   3   7
BRANCH   1  14
ATOM     14  C   UNL     1       2.791   2.579  20.780  0.00  0.00    +0.000 C 
ATOM     15  O   UNL     1       3.247   2.386  21.903  0.00  0.00    +0.000 OA
BRANCH  14  16
ATOM     16  O   UNL     1       1.789   1.832  20.233  0.00  0.00    +0.000 OA
BRANCH  16  18
ATOM     17  C   UNL     1       0.550   2.602  18.347  0.00  0.00    +0.000 C 
ATOM     18  C   UNL     1       0.627   2.586  19.866  0.00  0.00    +0.000 C 
ENDBRANCH  16  18
ENDBRANCH  14  16
ENDBRANCH   1  14
BRANCH   4  19
ATOM     19  C   UNL     1       3.903   6.945  18.482  0.00  0.00    +0.000 C 
BRANCH  19  20
ATOM     20  C   UNL     1       2.859   7.598  17.575  0.00  0.00    +0.000 C 
BRANCH  20  21
ATOM     21  C   UNL     1       1.881   8.443  18.376  0.00  0.00    +0.000 C 
ATOM     22  O   UNL     1       1.999   8.549  19.592  0.00  0.00    +0.000 OA
ATOM     23  N   UNL     1       0.894   9.016  17.588  0.00  0.00    +0.000 N 
ATOM     24  C   UNL     1      -0.068   9.884  18.058  0.00  0.00    +0.000 A 
ATOM     25  N   UNL     1      -1.210  10.111  17.443  0.00  0.00    +0.000 NA
ATOM     26  C   UNL     1      -2.009  10.949  18.227  0.00  0.00    +0.000 A 
ATOM     27  C   UNL     1      -3.356  11.346  17.981  0.00  0.00    +0.000 A 
ATOM     28  C   UNL     1      -4.129  11.012  16.735  0.00  0.00    +0.000 C 
ATOM     29  C   UNL     1      -4.016  12.120  18.962  0.00  0.00    +0.000 A 
ATOM     30  C   UNL     1      -3.360  12.569  20.103  0.00  0.00    +0.000 A 
ATOM     31  C   UNL     1      -2.023  12.257  20.313  0.00  0.00    +0.000 A 
ATOM     32  C   UNL     1      -1.385  11.422  19.384  0.00  0.00    +0.000 A 
ATOM     33  S   UNL     1       0.217  10.822  19.448  0.00  0.00    +0.000 S 
ATOM     34  H   UNL     1       0.688   8.629  16.676  0.00  0.00    +0.000 HD
ENDBRANCH  20  21
ENDBRANCH  19  20
ENDBRANCH   4  19
TORSDOF 7
ENDMDL
MODEL 6
REMARK VINA RESULT:      -7.8      2.841      4.776
REMARK  Name = 
REMARK  11 active torsions:
REMARK  status: ('A' for Active; 'I' for Inactive)
REMARK    1  A    between atoms: C_1  and  C_2
REMARK    2  A    between atoms: C_2  and  O_3
REMARK    3  A    between atoms: O_3  and  C_4
REMARK    4  A    between atoms: C_4  and  C_6
REMARK    5  A    between atoms: C_8  and  C_9
REMARK    6  A    between atoms: C_12  and  C_13
REMARK    7  A    between atoms: N_16  and  C_17
REMARK    8  A    between atoms: C_17  and  C_18
REMARK    9  A    between atoms: C_18  and  C_19
REMARK   10  A    between atoms: C_25  and  C_26
REMARK   11  A    between atoms: C_32  and  C_33
REMARK                            x       y       z     vdW  Elec       q    Type
REMARK                         _______ _______ _______ _____ _____    ______ ____
ROOT
ATOM      1  C   UNL     1       3.378   4.902  19.496  0.00  0.00    +0.000 A 
ATOM      2  C   UNL     1       2.586   5.516  20.485  0.00  0.00    +0.000 A 
ATOM      3  C   UNL     1       2.220   6.792  20.070  0.00  0.00    +0.000 A 
ATOM      4  N   UNL     1       2.786   6.965  18.789  0.00  0.00    +0.000 N 
ATOM      5  C   UNL     1       3.481   5.808  18.441  0.00  0.00    +0.000 A 
ATOM      6  C   UNL     1       4.219   5.511  17.172  0.00  0.00    +0.000 C 
ENDROOT
BRANCH   3   7
ATOM      7  C   UNL     1       1.423   7.760  20.878  0.00  0.00    +0.000 A 
ATOM      8  C   UNL     1       0.028   7.590  20.982  0.00  0.00    +0.000 A 
ATOM      9  C   UNL     1      -0.777   8.486  21.702  0.00  0.00    +0.000 A 
ATOM     10  C   UNL     1      -0.206   9.576  22.361  0.00  0.00    +0.000 A 
ATOM     11  C   UNL     1      -1.035  10.530  23.166  0.00  0.00    +0.000 C 
ATOM     12  C   UNL     1       1.173   9.770  22.250  0.00  0.00    +0.000 A 
ATOM     13  C   UNL     1       1.965   8.891  21.497  0.00  0.00    +0.000 A 
ENDBRANCH   3   7
BRANCH   1  14
ATOM     14  C   UNL     1       3.949   3.552  19.512  0.00  0.00    +0.000 C 
ATOM     15  O   UNL     1       5.129   3.308  19.280  0.00  0.00    +0.000 OA
BRANCH  14  16
ATOM     16  O   UNL     1       3.002   2.590  19.707  0.00  0.00    +0.000 OA
BRANCH  16  18
ATOM     17  C   UNL     1       0.844   2.466  18.703  0.00  0.00    +0.000 C 
ATOM     18  C   UNL     1       2.325   2.179  18.513  0.00  0.00    +0.000 C 
ENDBRANCH  16  18
ENDBRANCH  14  16
ENDBRANCH   1  14
BRANCH   4  19
ATOM     19  C   UNL     1       2.638   8.208  18.031  0.00  0.00    +0.000 C 
BRANCH  19  20
ATOM     20  C   UNL     1       1.267   8.764  17.642  0.00  0.00    +0.000 C 
BRANCH  20  21
ATOM     21  C   UNL     1       1.050  10.154  18.221  0.00  0.00    +0.000 C 
ATOM     22  O   UNL     1       1.987  10.938  18.328  0.00  0.00    +0.000 OA
ATOM     23  N   UNL     1      -0.264  10.377  18.604  0.00  0.00    +0.000 N 
ATOM     24  C   UNL     1      -0.738  11.578  19.087  0.00  0.00    +0.000 A 
ATOM     25  N   UNL     1      -1.834  11.694  19.807  0.00  0.00    +0.000 NA
ATOM     26  C   UNL     1      -1.979  13.017  20.235  0.00  0.00    +0.000 A 
ATOM     27  C   UNL     1      -2.963  13.541  21.123  0.00  0.00    +0.000 A 
ATOM     28  C   UNL     1      -4.120  12.753  21.675  0.00  0.00    +0.000 C 
ATOM     29  C   UNL     1      -2.866  14.898  21.507  0.00  0.00    +0.000 A 
ATOM     30  C   UNL     1      -1.896  15.740  20.974  0.00  0.00    +0.000 A 
ATOM     31  C   UNL     1      -0.982  15.260  20.045  0.00  0.00    +0.000 A 
ATOM     32  C   UNL     1      -1.022  13.897  19.721  0.00  0.00    +0.000 A 
ATOM     33  S   UNL     1       0.032  13.040  18.679  0.00  0.00    +0.000 S 
ATOM     34  H   UNL     1      -0.881   9.594  18.774  0.00  0.00    +0.000 HD
ENDBRANCH  20  21
ENDBRANCH  19  20
ENDBRANCH   4  19
TORSDOF 7
ENDMDL
MODEL 7
REMARK VINA RESULT:      -7.7      2.460      5.306
REMARK  Name = 
REMARK  11 active torsions:
REMARK  status: ('A' for Active; 'I' for Inactive)
REMARK    1  A    between atoms: C_1  and  C_2
REMARK    2  A    between atoms: C_2  and  O_3
REMARK    3  A    between atoms: O_3  and  C_4
REMARK    4  A    between atoms: C_4  and  C_6
REMARK    5  A    between atoms: C_8  and  C_9
REMARK    6  A    between atoms: C_12  and  C_13
REMARK    7  A    between atoms: N_16  and  C_17
REMARK    8  A    between atoms: C_17  and  C_18
REMARK    9  A    between atoms: C_18  and  C_19
REMARK   10  A    between atoms: C_25  and  C_26
REMARK   11  A    between atoms: C_32  and  C_33
REMARK                            x       y       z     vdW  Elec       q    Type
REMARK                         _______ _______ _______ _____ _____    ______ ____
ROOT
ATOM      1  C   UNL     1       2.317   3.457  18.558  0.00  0.00    +0.000 A 
ATOM      2  C   UNL     1       3.312   3.264  17.579  0.00  0.00    +0.000 A 
ATOM      3  C   UNL     1       3.928   4.476  17.290  0.00  0.00    +0.000 A 
ATOM      4  N   UNL     1       3.311   5.438  18.118  0.00  0.00    +0.000 N 
ATOM      5  C   UNL     1       2.339   4.809  18.895  0.00  0.00    +0.000 A 
ATOM      6  C   UNL     1       1.448   5.411  19.937  0.00  0.00    +0.000 C 
ENDROOT
BRANCH   3   7
ATOM      7  C   UNL     1       4.994   4.671  16.265  0.00  0.00    +0.000 A 
ATOM      8  C   UNL     1       4.722   4.364  14.917  0.00  0.00    +0.000 A 
ATOM      9  C   UNL     1       5.694   4.499  13.914  0.00  0.00    +0.000 A 
ATOM     10  C   UNL     1       6.972   4.965  14.226  0.00  0.00    +0.000 A 
ATOM     11  C   UNL     1       8.021   5.152  13.173  0.00  0.00    +0.000 C 
ATOM     12  C   UNL     1       7.264   5.253  15.562  0.00  0.00    +0.000 A 
ATOM     13  C   UNL     1       6.297   5.080  16.563  0.00  0.00    +0.000 A 
ENDBRANCH   3   7
BRANCH   1  14
ATOM     14  C   UNL     1       1.451   2.445  19.170  0.00  0.00    +0.000 C 
ATOM     15  O   UNL     1       0.270   2.288  18.874  0.00  0.00    +0.000 OA
BRANCH  14  16
ATOM     16  O   UNL     1       2.073   1.771  20.179  0.00  0.00    +0.000 OA
BRANCH  16  18
ATOM     17  C   UNL     1       1.217   2.576  22.253  0.00  0.00    +0.000 C 
ATOM     18  C   UNL     1       2.410   2.584  21.310  0.00  0.00    +0.000 C 
ENDBRANCH  16  18
ENDBRANCH  14  16
ENDBRANCH   1  14
BRANCH   4  19
ATOM     19  C   UNL     1       3.680   6.853  18.081  0.00  0.00    +0.000 C 
BRANCH  19  20
ATOM     20  C   UNL     1       2.840   7.893  17.339  0.00  0.00    +0.000 C 
BRANCH  20  21
ATOM     21  C   UNL     1       1.913   8.636  18.289  0.00  0.00    +0.000 C 
ATOM     22  O   UNL     1       2.077   8.567  19.502  0.00  0.00    +0.000 OA
ATOM     23  N   UNL     1       0.913   9.334  17.628  0.00  0.00    +0.000 N 
ATOM     24  C   UNL     1      -0.009  10.147  18.253  0.00  0.00    +0.000 A 
ATOM     25  N   UNL     1      -1.166  10.481  17.722  0.00  0.00    +0.000 NA
ATOM     26  C   UNL     1      -1.915  11.216  18.647  0.00  0.00    +0.000 A 
ATOM     27  C   UNL     1      -3.258  11.671  18.512  0.00  0.00    +0.000 A 
ATOM     28  C   UNL     1      -4.085  11.533  17.263  0.00  0.00    +0.000 C 
ATOM     29  C   UNL     1      -3.863  12.312  19.618  0.00  0.00    +0.000 A 
ATOM     30  C   UNL     1      -3.154  12.582  20.783  0.00  0.00    +0.000 A 
ATOM     31  C   UNL     1      -1.818  12.216  20.894  0.00  0.00    +0.000 A 
ATOM     32  C   UNL     1      -1.237  11.509  19.834  0.00  0.00    +0.000 A 
ATOM     33  S   UNL     1       0.351  10.873  19.749  0.00  0.00    +0.000 S 
ATOM     34  H   UNL     1       0.664   9.085  16.680  0.00  0.00    +0.000 HD
ENDBRANCH  20  21
ENDBRANCH  19  20
ENDBRANCH   4  19
TORSDOF 7
ENDMDL
MODEL 8
REMARK VINA RESULT:      -7.7      3.266      5.334
REMARK  Name = 
REMARK  11 active torsions:
REMARK  status: ('A' for Active; 'I' for Inactive)
REMARK    1  A    between atoms: C_1  and  C_2
REMARK    2  A    between atoms: C_2  and  O_3
REMARK    3  A    between atoms: O_3  and  C_4
REMARK    4  A    between atoms: C_4  and  C_6
REMARK    5  A    between atoms: C_8  and  C_9
REMARK    6  A    between atoms: C_12  and  C_13
REMARK    7  A    between atoms: N_16  and  C_17
REMARK    8  A    between atoms: C_17  and  C_18
REMARK    9  A    between atoms: C_18  and  C_19
REMARK   10  A    between atoms: C_25  and  C_26
REMARK   11  A    between atoms: C_32  and  C_33
REMARK                            x       y       z     vdW  Elec       q    Type
REMARK                         _______ _______ _______ _____ _____    ______ ____
ROOT
ATOM      1  C   UNL     1       3.324   4.921  19.451  0.00  0.00    +0.000 A 
ATOM      2  C   UNL     1       2.535   5.505  20.462  0.00  0.00    +0.000 A 
ATOM      3  C   UNL     1       2.196   6.804  20.103  0.00  0.00    +0.000 A 
ATOM      4  N   UNL     1       2.775   7.025  18.834  0.00  0.00    +0.000 N 
ATOM      5  C   UNL     1       3.451   5.871  18.439  0.00  0.00    +0.000 A 
ATOM      6  C   UNL     1       4.193   5.618  17.163  0.00  0.00    +0.000 C 
ENDROOT
BRANCH   3   7
ATOM      7  C   UNL     1       1.411   7.749  20.949  0.00  0.00    +0.000 A 
ATOM      8  C   UNL     1       0.009   7.621  21.009  0.00  0.00    +0.000 A 
ATOM      9  C   UNL     1      -0.784   8.500  21.763  0.00  0.00    +0.000 A 
ATOM     10  C   UNL     1      -0.195   9.529  22.499  0.00  0.00    +0.000 A 
ATOM     11  C   UNL     1      -1.012  10.462  23.340  0.00  0.00    +0.000 C 
ATOM     12  C   UNL     1       1.192   9.682  22.432  0.00  0.00    +0.000 A 
ATOM     13  C   UNL     1       1.973   8.823  21.646  0.00  0.00    +0.000 A 
ENDBRANCH   3   7
BRANCH   1  14
ATOM     14  C   UNL     1       3.870   3.561  19.410  0.00  0.00    +0.000 C 
ATOM     15  O   UNL     1       5.039   3.288  19.662  0.00  0.00    +0.000 OA
BRANCH  14  16
ATOM     16  O   UNL     1       2.961   2.650  18.958  0.00  0.00    +0.000 OA
BRANCH  16  18
ATOM     17  C   UNL     1       0.593   2.466  18.765  0.00  0.00    +0.000 C 
ATOM     18  C   UNL     1       1.758   2.584  19.734  0.00  0.00    +0.000 C 
ENDBRANCH  16  18
ENDBRANCH  14  16
ENDBRANCH   1  14
BRANCH   4  19
ATOM     19  C   UNL     1       2.655   8.302  18.132  0.00  0.00    +0.000 C 
BRANCH  19  20
ATOM     20  C   UNL     1       1.314   8.819  17.608  0.00  0.00    +0.000 C 
BRANCH  20  21
ATOM     21  C   UNL     1       0.938  10.141  18.258  0.00  0.00    +0.000 C 
ATOM     22  O   UNL     1      -0.096  10.245  18.909  0.00  0.00    +0.000 OA
ATOM     23  N   UNL     1       1.860  11.146  18.005  0.00  0.00    +0.000 N 
ATOM     24  C   UNL     1       1.792  12.415  18.540  0.00  0.00    +0.000 A 
ATOM     25  N   UNL     1       2.398  13.460  18.018  0.00  0.00    +0.000 NA
ATOM     26  C   UNL     1       2.042  14.613  18.725  0.00  0.00    +0.000 A 
ATOM     27  C   UNL     1       2.386  15.962  18.420  0.00  0.00    +0.000 A 
ATOM     28  C   UNL     1       3.320  16.375  17.316  0.00  0.00    +0.000 C 
ATOM     29  C   UNL     1       1.830  16.992  19.214  0.00  0.00    +0.000 A 
ATOM     30  C   UNL     1       1.038  16.714  20.322  0.00  0.00    +0.000 A 
ATOM     31  C   UNL     1       0.763  15.399  20.678  0.00  0.00    +0.000 A 
ATOM     32  C   UNL     1       1.244  14.376  19.849  0.00  0.00    +0.000 A 
ATOM     33  S   UNL     1       0.981  12.692  20.009  0.00  0.00    +0.000 S 
ATOM     34  H   UNL     1       2.494  11.065  17.221  0.00  0.00    +0.000 HD
ENDBRANCH  20  21
ENDBRANCH  19  20
ENDBRANCH   4  19
TORSDOF 7
ENDMDL
MODEL 9
REMARK VINA RESULT:      -7.6      3.337      9.738
REMARK  Name = 
REMARK  11 active torsions:
REMARK  status: ('A' for Active; 'I' for Inactive)
REMARK    1  A    between atoms: C_1  and  C_2
REMARK    2  A    between atoms: C_2  and  O_3
REMARK    3  A    between atoms: O_3  and  C_4
REMARK    4  A    between atoms: C_4  and  C_6
REMARK    5  A    between atoms: C_8  and  C_9
REMARK    6  A    between atoms: C_12  and  C_13
REMARK    7  A    between atoms: N_16  and  C_17
REMARK    8  A    between atoms: C_17  and  C_18
REMARK    9  A    between atoms: C_18  and  C_19
REMARK   10  A    between atoms: C_25  and  C_26
REMARK   11  A    between atoms: C_32  and  C_33
REMARK                            x       y       z     vdW  Elec       q    Type
REMARK                         _______ _______ _______ _____ _____    ______ ____
ROOT
ATOM      1  C   UNL     1      -3.187  11.444  18.009  0.00  0.00    +0.000 A 
ATOM      2  C   UNL     1      -3.257  12.362  19.075  0.00  0.00    +0.000 A 
ATOM      3  C   UNL     1      -2.216  12.128  19.966  0.00  0.00    +0.000 A 
ATOM      4  N   UNL     1      -1.476  11.051  19.432  0.00  0.00    +0.000 N 
ATOM      5  C   UNL     1      -2.067  10.646  18.236  0.00  0.00    +0.000 A 
ATOM      6  C   UNL     1      -1.626   9.564  17.299  0.00  0.00    +0.000 C 
ENDROOT
BRANCH   3   7
ATOM      7  C   UNL     1      -1.997  12.871  21.241  0.00  0.00    +0.000 A 
ATOM      8  C   UNL     1      -0.985  13.849  21.306  0.00  0.00    +0.000 A 
ATOM      9  C   UNL     1      -0.713  14.557  22.487  0.00  0.00    +0.000 A 
ATOM     10  C   UNL     1      -1.461  14.321  23.641  0.00  0.00    +0.000 A 
ATOM     11  C   UNL     1      -1.217  15.085  24.907  0.00  0.00    +0.000 C 
ATOM     12  C   UNL     1      -2.453  13.339  23.599  0.00  0.00    +0.000 A 
ATOM     13  C   UNL     1      -2.693  12.609  22.425  0.00  0.00    +0.000 A 
ENDBRANCH   3   7
BRANCH   1  14
ATOM     14  C   UNL     1      -4.068  11.355  16.840  0.00  0.00    +0.000 C 
ATOM     15  O   UNL     1      -5.292  11.307  16.911  0.00  0.00    +0.000 OA
BRANCH  14  16
ATOM     16  O   UNL     1      -3.373  11.224  15.675  0.00  0.00    +0.000 OA
BRANCH  16  18
ATOM     17  C   UNL     1      -2.864   9.853  13.792  0.00  0.00    +0.000 C 
ATOM     18  C   UNL     1      -3.962  10.314  14.737  0.00  0.00    +0.000 C 
ENDBRANCH  16  18
ENDBRANCH  14  16
ENDBRANCH   1  14
BRANCH   4  19
ATOM     19  C   UNL     1      -0.305  10.495  20.109  0.00  0.00    +0.000 C 
BRANCH  19  20
ATOM     20  C   UNL     1       1.101  10.595  19.515  0.00  0.00    +0.000 C 
BRANCH  20  21
ATOM     21  C   UNL     1       1.541   9.270  18.910  0.00  0.00    +0.000 C 
ATOM     22  O   UNL     1       1.689   9.156  17.698  0.00  0.00    +0.000 OA
ATOM     23  N   UNL     1       1.714   8.276  19.862  0.00  0.00    +0.000 N 
ATOM     24  C   UNL     1       2.179   7.008  19.584  0.00  0.00    +0.000 A 
ATOM     25  N   UNL     1       1.975   5.969  20.365  0.00  0.00    +0.000 NA
ATOM     26  C   UNL     1       2.473   4.814  19.752  0.00  0.00    +0.000 A 
ATOM     27  C   UNL     1       2.356   3.469  20.207  0.00  0.00    +0.000 A 
ATOM     28  C   UNL     1       1.758   3.063  21.526  0.00  0.00    +0.000 C 
ATOM     29  C   UNL     1       2.846   2.435  19.375  0.00  0.00    +0.000 A 
ATOM     30  C   UNL     1       3.508   2.707  18.184  0.00  0.00    +0.000 A 
ATOM     31  C   UNL     1       3.701   4.020  17.771  0.00  0.00    +0.000 A 
ATOM     32  C   UNL     1       3.147   5.045  18.549  0.00  0.00    +0.000 A 
ATOM     33  S   UNL     1       3.165   6.727  18.226  0.00  0.00    +0.000 S 
ATOM     34  H   UNL     1       1.273   8.362  20.768  0.00  0.00    +0.000 HD
ENDBRANCH  20  21
ENDBRANCH  19  20
ENDBRANCH   4  19
TORSDOF 7
ENDMDL
