MODEL 1
REMARK VINA RESULT:      -7.1      0.000      0.000
REMARK  Name = 
REMARK  11 active torsions:
REMARK  status: ('A' for Active; 'I' for Inactive)
REMARK    1  A    between atoms: C_1  and  O_2
REMARK    2  A    between atoms: O_2  and  C_3
REMARK    3  A    between atoms: C_6  and  C_7
REMARK    4  A    between atoms: C_8  and  C_9
REMARK    5  A    between atoms: C_8  and  C_11
REMARK    6  A    between atoms: C_13  and  O_14
REMARK    7  A    between atoms: O_14  and  C_15
REMARK    8  A    between atoms: C_16  and  O_17
REMARK    9  A    between atoms: O_17  and  C_18
REMARK   10  A    between atoms: C_19  and  O_20
REMARK   11  A    between atoms: O_20  and  C_21
REMARK                            x       y       z     vdW  Elec       q    Type
REMARK                         _______ _______ _______ _____ _____    ______ ____
ROOT
ATOM      1  C   UNL     1       1.946   8.734  17.690  0.00  0.00    +0.000 C 
ATOM      2  C   UNL     1       2.407   7.700  18.429  0.00  0.00    +0.000 C 
ENDROOT
BRANCH   1   6
ATOM      3  C   UNL     1      -0.841  11.847  18.752  0.00  0.00    +0.000 A 
ATOM      4  C   UNL     1       0.515  11.963  19.072  0.00  0.00    +0.000 A 
ATOM      5  C   UNL     1       1.414  10.935  18.751  0.00  0.00    +0.000 A 
ATOM      6  C   UNL     1       0.975   9.770  18.117  0.00  0.00    +0.000 A 
ATOM      7  C   UNL     1      -0.391   9.625  17.845  0.00  0.00    +0.000 A 
ATOM      8  C   UNL     1      -1.289  10.658  18.158  0.00  0.00    +0.000 A 
ATOM      9 BR   UNL     1      -3.117  10.413  17.694  0.00  0.00    +0.000 Br
BRANCH   3  11
ATOM     10  C   UNL     1      -2.135  13.005  20.377  0.00  0.00    +0.000 C 
ATOM     11  O   UNL     1      -1.773  12.818  19.014  0.00  0.00    +0.000 OA
ENDBRANCH   3  11
ENDBRANCH   1   6
BRANCH   2  12
ATOM     12  C   UNL     1       3.383   6.723  17.908  0.00  0.00    +0.000 A 
ATOM     13  C   UNL     1       4.624   7.166  17.454  0.00  0.00    +0.000 A 
ATOM     14  C   UNL     1       5.582   6.268  16.980  0.00  0.00    +0.000 A 
ATOM     15  C   UNL     1       5.283   4.890  16.904  0.00  0.00    +0.000 A 
ATOM     16  C   UNL     1       4.025   4.427  17.342  0.00  0.00    +0.000 A 
ATOM     17  C   UNL     1       3.107   5.347  17.863  0.00  0.00    +0.000 A 
BRANCH  14  18
ATOM     18  O   UNL     1       6.827   6.675  16.553  0.00  0.00    +0.000 OA
ATOM     19  C   UNL     1       7.598   7.414  17.497  0.00  0.00    +0.000 C 
ENDBRANCH  14  18
BRANCH  15  20
ATOM     20  O   UNL     1       6.262   4.113  16.332  0.00  0.00    +0.000 OA
ATOM     21  C   UNL     1       6.154   3.862  14.937  0.00  0.00    +0.000 C 
ENDBRANCH  15  20
BRANCH  16  22
ATOM     22  O   UNL     1       3.743   3.092  17.209  0.00  0.00    +0.000 OA
ATOM     23  C   UNL     1       3.629   2.298  18.387  0.00  0.00    +0.000 C 
ENDBRANCH  16  22
ENDBRANCH   2  12
BRANCH   2  24
ATOM     24  C   UNL     1       1.898   7.603  19.857  0.00  0.00    +0.000 C 
ATOM     25  N   UNL     1       1.475   7.521  21.042  0.00  0.00    +0.000 NA
ENDBRANCH   2  24
TORSDOF 7
ENDMDL
MODEL 2
REMARK VINA RESULT:      -7.0      1.223      1.556
REMARK  Name = 
REMARK  11 active torsions:
REMARK  status: ('A' for Active; 'I' for Inactive)
REMARK    1  A    between atoms: C_1  and  O_2
REMARK    2  A    between atoms: O_2  and  C_3
REMARK    3  A    between atoms: C_6  and  C_7
REMARK    4  A    between atoms: C_8  and  C_9
REMARK    5  A    between atoms: C_8  and  C_11
REMARK    6  A    between atoms: C_13  and  O_14
REMARK    7  A    between atoms: O_14  and  C_15
REMARK    8  A    between atoms: C_16  and  O_17
REMARK    9  A    between atoms: O_17  and  C_18
REMARK   10  A    between atoms: C_19  and  O_20
REMARK   11  A    between atoms: O_20  and  C_21
REMARK                            x       y       z     vdW  Elec       q    Type
REMARK                         _______ _______ _______ _____ _____    ______ ____
ROOT
ATOM      1  C   UNL     1       1.986   8.803  17.686  0.00  0.00    +0.000 C 
ATOM      2  C   UNL     1       2.413   7.755  18.426  0.00  0.00    +0.000 C 
ENDROOT
BRANCH   1   6
ATOM      3  C   UNL     1      -0.766  11.804  19.102  0.00  0.00    +0.000 A 
ATOM      4  C   UNL     1      -1.232  10.655  18.457  0.00  0.00    +0.000 A 
ATOM      5  C   UNL     1      -0.333   9.694  17.972  0.00  0.00    +0.000 A 
ATOM      6  C   UNL     1       1.047   9.869  18.110  0.00  0.00    +0.000 A 
ATOM      7  C   UNL     1       1.521  11.044  18.704  0.00  0.00    +0.000 A 
ATOM      8  C   UNL     1       0.620  12.001  19.198  0.00  0.00    +0.000 A 
ATOM      9 BR   UNL     1       1.342  13.539  20.054  0.00  0.00    +0.000 Br
BRANCH   3  11
ATOM     10  C   UNL     1      -2.955  12.432  19.787  0.00  0.00    +0.000 C 
ATOM     11  O   UNL     1      -1.583  12.774  19.621  0.00  0.00    +0.000 OA
ENDBRANCH   3  11
ENDBRANCH   1   6
BRANCH   2  12
ATOM     12  C   UNL     1       3.359   6.748  17.909  0.00  0.00    +0.000 A 
ATOM     13  C   UNL     1       4.614   7.153  17.456  0.00  0.00    +0.000 A 
ATOM     14  C   UNL     1       5.545   6.226  16.985  0.00  0.00    +0.000 A 
ATOM     15  C   UNL     1       5.205   4.857  16.911  0.00  0.00    +0.000 A 
ATOM     16  C   UNL     1       3.933   4.432  17.347  0.00  0.00    +0.000 A 
ATOM     17  C   UNL     1       3.042   5.381  17.865  0.00  0.00    +0.000 A 
BRANCH  14  18
ATOM     18  O   UNL     1       6.802   6.594  16.559  0.00  0.00    +0.000 OA
ATOM     19  C   UNL     1       7.552   7.406  17.460  0.00  0.00    +0.000 C 
ENDBRANCH  14  18
BRANCH  15  20
ATOM     20  O   UNL     1       6.161   4.050  16.342  0.00  0.00    +0.000 OA
ATOM     21  C   UNL     1       6.076   3.840  14.938  0.00  0.00    +0.000 C 
ENDBRANCH  15  20
BRANCH  16  22
ATOM     22  O   UNL     1       3.611   3.106  17.216  0.00  0.00    +0.000 OA
ATOM     23  C   UNL     1       3.613   2.286  18.380  0.00  0.00    +0.000 C 
ENDBRANCH  16  22
ENDBRANCH   2  12
BRANCH   2  24
ATOM     24  C   UNL     1       1.896   7.673  19.852  0.00  0.00    +0.000 C 
ATOM     25  N   UNL     1       1.468   7.606  21.036  0.00  0.00    +0.000 NA
ENDBRANCH   2  24
TORSDOF 7
ENDMDL
MODEL 3
REMARK VINA RESULT:      -7.0      0.327      2.529
REMARK  Name = 
REMARK  11 active torsions:
REMARK  status: ('A' for Active; 'I' for Inactive)
REMARK    1  A    between atoms: C_1  and  O_2
REMARK    2  A    between atoms: O_2  and  C_3
REMARK    3  A    between atoms: C_6  and  C_7
REMARK    4  A    between atoms: C_8  and  C_9
REMARK    5  A    between atoms: C_8  and  C_11
REMARK    6  A    between atoms: C_13  and  O_14
REMARK    7  A    between atoms: O_14  and  C_15
REMARK    8  A    between atoms: C_16  and  O_17
REMARK    9  A    between atoms: O_17  and  C_18
REMARK   10  A    between atoms: C_19  and  O_20
REMARK   11  A    between atoms: O_20  and  C_21
REMARK                            x       y       z     vdW  Elec       q    Type
REMARK                         _______ _______ _______ _____ _____    ______ ____
ROOT
ATOM      1  C   UNL     1       1.770   8.804  17.758  0.00  0.00    +0.000 C 
ATOM      2  C   UNL     1       2.299   7.786  18.473  0.00  0.00    +0.000 C 
ENDROOT
BRANCH   1   6
ATOM      3  C   UNL     1      -1.058  11.828  18.961  0.00  0.00    +0.000 A 
ATOM      4  C   UNL     1       0.279  11.897  19.367  0.00  0.00    +0.000 A 
ATOM      5  C   UNL     1       1.189  10.896  18.998  0.00  0.00    +0.000 A 
ATOM      6  C   UNL     1       0.781   9.804  18.229  0.00  0.00    +0.000 A 
ATOM      7  C   UNL     1      -0.567   9.700  17.867  0.00  0.00    +0.000 A 
ATOM      8  C   UNL     1      -1.477  10.708  18.228  0.00  0.00    +0.000 A 
ATOM      9 BR   UNL     1      -3.276  10.529  17.639  0.00  0.00    +0.000 Br
BRANCH   3  11
ATOM     10  C   UNL     1      -2.431  12.841  20.617  0.00  0.00    +0.000 C 
ATOM     11  O   UNL     1      -1.998  12.778  19.263  0.00  0.00    +0.000 OA
ENDBRANCH   3  11
ENDBRANCH   1   6
BRANCH   2  12
ATOM     12  C   UNL     1       3.285   6.845  17.909  0.00  0.00    +0.000 A 
ATOM     13  C   UNL     1       2.984   5.485  17.853  0.00  0.00    +0.000 A 
ATOM     14  C   UNL     1       3.881   4.569  17.302  0.00  0.00    +0.000 A 
ATOM     15  C   UNL     1       5.141   5.005  16.837  0.00  0.00    +0.000 A 
ATOM     16  C   UNL     1       5.470   6.374  16.903  0.00  0.00    +0.000 A 
ATOM     17  C   UNL     1       4.526   7.276  17.411  0.00  0.00    +0.000 A 
BRANCH  14  18
ATOM     18  O   UNL     1       3.597   3.224  17.206  0.00  0.00    +0.000 OA
ATOM     19  C   UNL     1       2.568   2.742  18.067  0.00  0.00    +0.000 C 
ENDBRANCH  14  18
BRANCH  15  20
ATOM     20  O   UNL     1       5.980   4.005  16.405  0.00  0.00    +0.000 OA
ATOM     21  C   UNL     1       6.162   3.877  15.000  0.00  0.00    +0.000 C 
ENDBRANCH  15  20
BRANCH  16  22
ATOM     22  O   UNL     1       6.719   6.763  16.492  0.00  0.00    +0.000 OA
ATOM     23  C   UNL     1       7.600   7.348  17.447  0.00  0.00    +0.000 C 
ENDBRANCH  16  22
ENDBRANCH   2  12
BRANCH   2  24
ATOM     24  C   UNL     1       1.855   7.668  19.921  0.00  0.00    +0.000 C 
ATOM     25  N   UNL     1       1.486   7.571  21.123  0.00  0.00    +0.000 NA
ENDBRANCH   2  24
TORSDOF 7
ENDMDL
MODEL 4
REMARK VINA RESULT:      -6.9      1.251      2.930
REMARK  Name = 
REMARK  11 active torsions:
REMARK  status: ('A' for Active; 'I' for Inactive)
REMARK    1  A    between atoms: C_1  and  O_2
REMARK    2  A    between atoms: O_2  and  C_3
REMARK    3  A    between atoms: C_6  and  C_7
REMARK    4  A    between atoms: C_8  and  C_9
REMARK    5  A    between atoms: C_8  and  C_11
REMARK    6  A    between atoms: C_13  and  O_14
REMARK    7  A    between atoms: O_14  and  C_15
REMARK    8  A    between atoms: C_16  and  O_17
REMARK    9  A    between atoms: O_17  and  C_18
REMARK   10  A    between atoms: C_19  and  O_20
REMARK   11  A    between atoms: O_20  and  C_21
REMARK                            x       y       z     vdW  Elec       q    Type
REMARK                         _______ _______ _______ _____ _____    ______ ____
ROOT
ATOM      1  C   UNL     1       1.802   8.949  17.760  0.00  0.00    +0.000 C 
ATOM      2  C   UNL     1       2.272   7.912  18.488  0.00  0.00    +0.000 C 
ENDROOT
BRANCH   1   6
ATOM      3  C   UNL     1      -0.997  11.876  19.239  0.00  0.00    +0.000 A 
ATOM      4  C   UNL     1      -1.437  10.784  18.484  0.00  0.00    +0.000 A 
ATOM      5  C   UNL     1      -0.521   9.850  17.979  0.00  0.00    +0.000 A 
ATOM      6  C   UNL     1       0.850   9.994  18.208  0.00  0.00    +0.000 A 
ATOM      7  C   UNL     1       1.301  11.115  18.916  0.00  0.00    +0.000 A 
ATOM      8  C   UNL     1       0.382  12.045  19.429  0.00  0.00    +0.000 A 
ATOM      9 BR   UNL     1       1.069  13.504  20.438  0.00  0.00    +0.000 Br
BRANCH   3  11
ATOM     10  C   UNL     1      -3.205  12.455  19.907  0.00  0.00    +0.000 C 
ATOM     11  O   UNL     1      -1.834  12.816  19.782  0.00  0.00    +0.000 OA
ENDBRANCH   3  11
ENDBRANCH   1   6
BRANCH   2  12
ATOM     12  C   UNL     1       3.226   6.926  17.946  0.00  0.00    +0.000 A 
ATOM     13  C   UNL     1       2.881   5.575  17.926  0.00  0.00    +0.000 A 
ATOM     14  C   UNL     1       3.747   4.617  17.396  0.00  0.00    +0.000 A 
ATOM     15  C   UNL     1       5.018   5.001  16.916  0.00  0.00    +0.000 A 
ATOM     16  C   UNL     1       5.391   6.361  16.946  0.00  0.00    +0.000 A 
ATOM     17  C   UNL     1       4.477   7.304  17.433  0.00  0.00    +0.000 A 
BRANCH  14  18
ATOM     18  O   UNL     1       3.421   3.280  17.337  0.00  0.00    +0.000 OA
ATOM     19  C   UNL     1       3.283   2.616  18.591  0.00  0.00    +0.000 C 
ENDBRANCH  14  18
BRANCH  15  20
ATOM     20  O   UNL     1       5.824   3.965  16.508  0.00  0.00    +0.000 OA
ATOM     21  C   UNL     1       6.040   3.827  15.109  0.00  0.00    +0.000 C 
ENDBRANCH  15  20
BRANCH  16  22
ATOM     22  O   UNL     1       6.650   6.699  16.521  0.00  0.00    +0.000 OA
ATOM     23  C   UNL     1       7.561   7.256  17.464  0.00  0.00    +0.000 C 
ENDBRANCH  16  22
ENDBRANCH   2  12
BRANCH   2  24
ATOM     24  C   UNL     1       1.795   7.819  19.928  0.00  0.00    +0.000 C 
ATOM     25  N   UNL     1       1.400   7.744  21.123  0.00  0.00    +0.000 NA
ENDBRANCH   2  24
TORSDOF 7
ENDMDL
MODEL 5
REMARK VINA RESULT:      -6.8      2.145      3.525
REMARK  Name = 
REMARK  11 active torsions:
REMARK  status: ('A' for Active; 'I' for Inactive)
REMARK    1  A    between atoms: C_1  and  O_2
REMARK    2  A    between atoms: O_2  and  C_3
REMARK    3  A    between atoms: C_6  and  C_7
REMARK    4  A    between atoms: C_8  and  C_9
REMARK    5  A    between atoms: C_8  and  C_11
REMARK    6  A    between atoms: C_13  and  O_14
REMARK    7  A    between atoms: O_14  and  C_15
REMARK    8  A    between atoms: C_16  and  O_17
REMARK    9  A    between atoms: O_17  and  C_18
REMARK   10  A    between atoms: C_19  and  O_20
REMARK   11  A    between atoms: O_20  and  C_21
REMARK                            x       y       z     vdW  Elec       q    Type
REMARK                         _______ _______ _______ _____ _____    ______ ____
ROOT
ATOM      1  C   UNL     1       1.832   8.668  18.282  0.00  0.00    +0.000 C 
ATOM      2  C   UNL     1       1.986   7.812  19.316  0.00  0.00    +0.000 C 
ENDROOT
BRANCH   1   6
ATOM      3  C   UNL     1       0.139  12.617  18.640  0.00  0.00    +0.000 A 
ATOM      4  C   UNL     1      -0.685  11.490  18.563  0.00  0.00    +0.000 A 
ATOM      5  C   UNL     1      -0.133  10.210  18.417  0.00  0.00    +0.000 A 
ATOM      6  C   UNL     1       1.251  10.031  18.333  0.00  0.00    +0.000 A 
ATOM      7  C   UNL     1       2.079  11.160  18.354  0.00  0.00    +0.000 A 
ATOM      8  C   UNL     1       1.524  12.442  18.510  0.00  0.00    +0.000 A 
ATOM      9 BR   UNL     1       2.721  13.918  18.598  0.00  0.00    +0.000 Br
BRANCH   3  11
ATOM     10  C   UNL     1      -1.003  14.177  20.025  0.00  0.00    +0.000 C 
ATOM     11  O   UNL     1      -0.327  13.896  18.805  0.00  0.00    +0.000 OA
ENDBRANCH   3  11
ENDBRANCH   1   6
BRANCH   2  12
ATOM     12  C   UNL     1       2.585   6.472  19.158  0.00  0.00    +0.000 A 
ATOM     13  C   UNL     1       2.386   5.509  20.147  0.00  0.00    +0.000 A 
ATOM     14  C   UNL     1       2.914   4.224  20.019  0.00  0.00    +0.000 A 
ATOM     15  C   UNL     1       3.709   3.894  18.900  0.00  0.00    +0.000 A 
ATOM     16  C   UNL     1       3.937   4.861  17.900  0.00  0.00    +0.000 A 
ATOM     17  C   UNL     1       3.347   6.125  18.031  0.00  0.00    +0.000 A 
BRANCH  14  18
ATOM     18  O   UNL     1       2.708   3.244  20.966  0.00  0.00    +0.000 OA
ATOM     19  C   UNL     1       1.347   2.958  21.280  0.00  0.00    +0.000 C 
ENDBRANCH  14  18
BRANCH  15  20
ATOM     20  O   UNL     1       4.256   2.633  18.927  0.00  0.00    +0.000 OA
ATOM     21  C   UNL     1       3.542   1.606  18.251  0.00  0.00    +0.000 C 
ENDBRANCH  15  20
BRANCH  16  22
ATOM     22  O   UNL     1       4.755   4.531  16.851  0.00  0.00    +0.000 OA
ATOM     23  C   UNL     1       5.278   5.577  16.038  0.00  0.00    +0.000 C 
ENDBRANCH  16  22
ENDBRANCH   2  12
BRANCH   2  24
ATOM     24  C   UNL     1       1.542   8.306  20.682  0.00  0.00    +0.000 C 
ATOM     25  N   UNL     1       1.173   8.715  21.817  0.00  0.00    +0.000 NA
ENDBRANCH   2  24
TORSDOF 7
ENDMDL
MODEL 6
REMARK VINA RESULT:      -6.7      1.738      2.369
REMARK  Name = 
REMARK  11 active torsions:
REMARK  status: ('A' for Active; 'I' for Inactive)
REMARK    1  A    between atoms: C_1  and  O_2
REMARK    2  A    between atoms: O_2  and  C_3
REMARK    3  A    between atoms: C_6  and  C_7
REMARK    4  A    between atoms: C_8  and  C_9
REMARK    5  A    between atoms: C_8  and  C_11
REMARK    6  A    between atoms: C_13  and  O_14
REMARK    7  A    between atoms: O_14  and  C_15
REMARK    8  A    between atoms: C_16  and  O_17
REMARK    9  A    between atoms: O_17  and  C_18
REMARK   10  A    between atoms: C_19  and  O_20
REMARK   11  A    between atoms: O_20  and  C_21
REMARK                            x       y       z     vdW  Elec       q    Type
REMARK                         _______ _______ _______ _____ _____    ______ ____
ROOT
ATOM      1  C   UNL     1       1.704   8.783  18.438  0.00  0.00    +0.000 C 
ATOM      2  C   UNL     1       1.892   7.909  19.451  0.00  0.00    +0.000 C 
ENDROOT
BRANCH   1   6
ATOM      3  C   UNL     1       0.013  12.748  18.502  0.00  0.00    +0.000 A 
ATOM      4  C   UNL     1       1.399  12.562  18.515  0.00  0.00    +0.000 A 
ATOM      5  C   UNL     1       1.945  11.271  18.524  0.00  0.00    +0.000 A 
ATOM      6  C   UNL     1       1.120  10.143  18.531  0.00  0.00    +0.000 A 
ATOM      7  C   UNL     1      -0.267  10.323  18.575  0.00  0.00    +0.000 A 
ATOM      8  C   UNL     1      -0.814  11.617  18.557  0.00  0.00    +0.000 A 
ATOM      9 BR   UNL     1      -2.710  11.777  18.548  0.00  0.00    +0.000 Br
BRANCH   3  11
ATOM     10  C   UNL     1      -0.003  15.001  19.265  0.00  0.00    +0.000 C 
ATOM     11  O   UNL     1      -0.593  13.978  18.471  0.00  0.00    +0.000 OA
ENDBRANCH   3  11
ENDBRANCH   1   6
BRANCH   2  12
ATOM     12  C   UNL     1       2.490   6.575  19.251  0.00  0.00    +0.000 A 
ATOM     13  C   UNL     1       3.174   6.299  18.067  0.00  0.00    +0.000 A 
ATOM     14  C   UNL     1       3.775   5.058  17.854  0.00  0.00    +0.000 A 
ATOM     15  C   UNL     1       3.653   4.037  18.822  0.00  0.00    +0.000 A 
ATOM     16  C   UNL     1       2.949   4.292  20.016  0.00  0.00    +0.000 A 
ATOM     17  C   UNL     1       2.404   5.566  20.224  0.00  0.00    +0.000 A 
BRANCH  14  18
ATOM     18  O   UNL     1       4.482   4.768  16.707  0.00  0.00    +0.000 OA
ATOM     19  C   UNL     1       5.212   5.850  16.135  0.00  0.00    +0.000 C 
ENDBRANCH  14  18
BRANCH  15  20
ATOM     20  O   UNL     1       4.201   2.828  18.464  0.00  0.00    +0.000 OA
ATOM     21  C   UNL     1       3.305   1.825  18.002  0.00  0.00    +0.000 C 
ENDBRANCH  15  20
BRANCH  16  22
ATOM     22  O   UNL     1       2.802   3.268  20.916  0.00  0.00    +0.000 OA
ATOM     23  C   UNL     1       1.487   2.892  21.312  0.00  0.00    +0.000 C 
ENDBRANCH  16  22
ENDBRANCH   2  12
BRANCH   2  24
ATOM     24  C   UNL     1       1.488   8.377  20.839  0.00  0.00    +0.000 C 
ATOM     25  N   UNL     1       1.153   8.765  21.991  0.00  0.00    +0.000 NA
ENDBRANCH   2  24
TORSDOF 7
ENDMDL
MODEL 7
REMARK VINA RESULT:      -6.7      2.119      2.809
REMARK  Name = 
REMARK  11 active torsions:
REMARK  status: ('A' for Active; 'I' for Inactive)
REMARK    1  A    between atoms: C_1  and  O_2
REMARK    2  A    between atoms: O_2  and  C_3
REMARK    3  A    between atoms: C_6  and  C_7
REMARK    4  A    between atoms: C_8  and  C_9
REMARK    5  A    between atoms: C_8  and  C_11
REMARK    6  A    between atoms: C_13  and  O_14
REMARK    7  A    between atoms: O_14  and  C_15
REMARK    8  A    between atoms: C_16  and  O_17
REMARK    9  A    between atoms: O_17  and  C_18
REMARK   10  A    between atoms: C_19  and  O_20
REMARK   11  A    between atoms: O_20  and  C_21
REMARK                            x       y       z     vdW  Elec       q    Type
REMARK                         _______ _______ _______ _____ _____    ______ ____
ROOT
ATOM      1  C   UNL     1       1.719   8.710  18.325  0.00  0.00    +0.000 C 
ATOM      2  C   UNL     1       1.899   7.874  19.372  0.00  0.00    +0.000 C 
ENDROOT
BRANCH   1   6
ATOM      3  C   UNL     1       0.004  12.653  18.643  0.00  0.00    +0.000 A 
ATOM      4  C   UNL     1      -0.814  11.525  18.529  0.00  0.00    +0.000 A 
ATOM      5  C   UNL     1      -0.253  10.246  18.396  0.00  0.00    +0.000 A 
ATOM      6  C   UNL     1       1.133  10.071  18.363  0.00  0.00    +0.000 A 
ATOM      7  C   UNL     1       1.957  11.202  18.420  0.00  0.00    +0.000 A 
ATOM      8  C   UNL     1       1.394  12.481  18.562  0.00  0.00    +0.000 A 
ATOM      9 BR   UNL     1       2.582  13.960  18.703  0.00  0.00    +0.000 Br
BRANCH   3  11
ATOM     10  C   UNL     1      -1.046  14.249  20.059  0.00  0.00    +0.000 C 
ATOM     11  O   UNL     1      -0.471  13.929  18.797  0.00  0.00    +0.000 OA
ENDBRANCH   3  11
ENDBRANCH   1   6
BRANCH   2  12
ATOM     12  C   UNL     1       2.500   6.534  19.227  0.00  0.00    +0.000 A 
ATOM     13  C   UNL     1       3.220   6.226  18.073  0.00  0.00    +0.000 A 
ATOM     14  C   UNL     1       3.826   4.978  17.913  0.00  0.00    +0.000 A 
ATOM     15  C   UNL     1       3.671   3.984  18.903  0.00  0.00    +0.000 A 
ATOM     16  C   UNL     1       2.930   4.273  20.068  0.00  0.00    +0.000 A 
ATOM     17  C   UNL     1       2.381   5.552  20.224  0.00  0.00    +0.000 A 
BRANCH  14  18
ATOM     18  O   UNL     1       4.567   4.656  16.797  0.00  0.00    +0.000 OA
ATOM     19  C   UNL     1       5.856   5.260  16.710  0.00  0.00    +0.000 C 
ENDBRANCH  14  18
BRANCH  15  20
ATOM     20  O   UNL     1       4.227   2.765  18.596  0.00  0.00    +0.000 OA
ATOM     21  C   UNL     1       3.351   1.764  18.094  0.00  0.00    +0.000 C 
ENDBRANCH  15  20
BRANCH  16  22
ATOM     22  O   UNL     1       2.753   3.273  20.989  0.00  0.00    +0.000 OA
ATOM     23  C   UNL     1       1.426   2.869  21.310  0.00  0.00    +0.000 C 
ENDBRANCH  16  22
ENDBRANCH   2  12
BRANCH   2  24
ATOM     24  C   UNL     1       1.481   8.393  20.737  0.00  0.00    +0.000 C 
ATOM     25  N   UNL     1       1.134   8.824  21.870  0.00  0.00    +0.000 NA
ENDBRANCH   2  24
TORSDOF 7
ENDMDL
MODEL 8
REMARK VINA RESULT:      -6.7      1.710      3.128
REMARK  Name = 
REMARK  11 active torsions:
REMARK  status: ('A' for Active; 'I' for Inactive)
REMARK    1  A    between atoms: C_1  and  O_2
REMARK    2  A    between atoms: O_2  and  C_3
REMARK    3  A    between atoms: C_6  and  C_7
REMARK    4  A    between atoms: C_8  and  C_9
REMARK    5  A    between atoms: C_8  and  C_11
REMARK    6  A    between atoms: C_13  and  O_14
REMARK    7  A    between atoms: O_14  and  C_15
REMARK    8  A    between atoms: C_16  and  O_17
REMARK    9  A    between atoms: O_17  and  C_18
REMARK   10  A    between atoms: C_19  and  O_20
REMARK   11  A    between atoms: O_20  and  C_21
REMARK                            x       y       z     vdW  Elec       q    Type
REMARK                         _______ _______ _______ _____ _____    ______ ____
ROOT
ATOM      1  C   UNL     1       1.743   8.772  18.395  0.00  0.00    +0.000 C 
ATOM      2  C   UNL     1       1.925   7.884  19.398  0.00  0.00    +0.000 C 
ENDROOT
BRANCH   1   6
ATOM      3  C   UNL     1       0.063  12.740  18.504  0.00  0.00    +0.000 A 
ATOM      4  C   UNL     1       1.448  12.550  18.514  0.00  0.00    +0.000 A 
ATOM      5  C   UNL     1       1.991  11.258  18.508  0.00  0.00    +0.000 A 
ATOM      6  C   UNL     1       1.163  10.132  18.504  0.00  0.00    +0.000 A 
ATOM      7  C   UNL     1      -0.224  10.315  18.551  0.00  0.00    +0.000 A 
ATOM      8  C   UNL     1      -0.767  11.611  18.548  0.00  0.00    +0.000 A 
ATOM      9 BR   UNL     1      -2.662  11.775  18.542  0.00  0.00    +0.000 Br
BRANCH   3  11
ATOM     10  C   UNL     1      -0.331  14.801  19.624  0.00  0.00    +0.000 C 
ATOM     11  O   UNL     1      -0.540  13.972  18.487  0.00  0.00    +0.000 OA
ENDBRANCH   3  11
ENDBRANCH   1   6
BRANCH   2  12
ATOM     12  C   UNL     1       2.520   6.551  19.183  0.00  0.00    +0.000 A 
ATOM     13  C   UNL     1       2.389   5.573  20.169  0.00  0.00    +0.000 A 
ATOM     14  C   UNL     1       2.915   4.292  19.989  0.00  0.00    +0.000 A 
ATOM     15  C   UNL     1       3.639   3.984  18.818  0.00  0.00    +0.000 A 
ATOM     16  C   UNL     1       3.798   4.966  17.819  0.00  0.00    +0.000 A 
ATOM     17  C   UNL     1       3.211   6.224  18.005  0.00  0.00    +0.000 A 
BRANCH  14  18
ATOM     18  O   UNL     1       2.774   3.298  20.932  0.00  0.00    +0.000 OA
ATOM     19  C   UNL     1       1.435   2.927  21.251  0.00  0.00    +0.000 C 
ENDBRANCH  14  18
BRANCH  15  20
ATOM     20  O   UNL     1       4.194   2.726  18.791  0.00  0.00    +0.000 OA
ATOM     21  C   UNL     1       3.463   1.713  18.111  0.00  0.00    +0.000 C 
ENDBRANCH  15  20
BRANCH  16  22
ATOM     22  O   UNL     1       4.550   4.656  16.715  0.00  0.00    +0.000 OA
ATOM     23  C   UNL     1       5.830   5.262  16.569  0.00  0.00    +0.000 C 
ENDBRANCH  16  22
ENDBRANCH   2  12
BRANCH   2  24
ATOM     24  C   UNL     1       1.517   8.335  20.790  0.00  0.00    +0.000 C 
ATOM     25  N   UNL     1       1.179   8.710  21.946  0.00  0.00    +0.000 NA
ENDBRANCH   2  24
TORSDOF 7
ENDMDL
MODEL 9
REMARK VINA RESULT:      -6.5      1.142      1.402
REMARK  Name = 
REMARK  11 active torsions:
REMARK  status: ('A' for Active; 'I' for Inactive)
REMARK    1  A    between atoms: C_1  and  O_2
REMARK    2  A    between atoms: O_2  and  C_3
REMARK    3  A    between atoms: C_6  and  C_7
REMARK    4  A    between atoms: C_8  and  C_9
REMARK    5  A    between atoms: C_8  and  C_11
REMARK    6  A    between atoms: C_13  and  O_14
REMARK    7  A    between atoms: O_14  and  C_15
REMARK    8  A    between atoms: C_16  and  O_17
REMARK    9  A    between atoms: O_17  and  C_18
REMARK   10  A    between atoms: C_19  and  O_20
REMARK   11  A    between atoms: O_20  and  C_21
REMARK                            x       y       z     vdW  Elec       q    Type
REMARK                         _______ _______ _______ _____ _____    ______ ____
ROOT
ATOM      1  C   UNL     1       1.946   8.691  17.905  0.00  0.00    +0.000 C 
ATOM      2  C   UNL     1       2.399   7.734  18.746  0.00  0.00    +0.000 C 
ENDROOT
BRANCH   1   6
ATOM      3  C   UNL     1      -1.117  11.663  18.514  0.00  0.00    +0.000 A 
ATOM      4  C   UNL     1       0.203  11.906  18.907  0.00  0.00    +0.000 A 
ATOM      5  C   UNL     1       1.191  10.926  18.735  0.00  0.00    +0.000 A 
ATOM      6  C   UNL     1       0.878   9.683  18.178  0.00  0.00    +0.000 A 
ATOM      7  C   UNL     1      -0.452   9.413  17.834  0.00  0.00    +0.000 A 
ATOM      8  C   UNL     1      -1.439  10.399  17.999  0.00  0.00    +0.000 A 
ATOM      9 BR   UNL     1      -3.210   9.980  17.444  0.00  0.00    +0.000 Br
BRANCH   3  11
ATOM     10  C   UNL     1      -2.738  12.700  19.912  0.00  0.00    +0.000 C 
ATOM     11  O   UNL     1      -2.130  12.579  18.631  0.00  0.00    +0.000 OA
ENDBRANCH   3  11
ENDBRANCH   1   6
BRANCH   2  12
ATOM     12  C   UNL     1       3.476   6.795  18.377  0.00  0.00    +0.000 A 
ATOM     13  C   UNL     1       4.151   6.965  17.168  0.00  0.00    +0.000 A 
ATOM     14  C   UNL     1       5.193   6.113  16.798  0.00  0.00    +0.000 A 
ATOM     15  C   UNL     1       5.545   5.026  17.626  0.00  0.00    +0.000 A 
ATOM     16  C   UNL     1       4.860   4.827  18.843  0.00  0.00    +0.000 A 
ATOM     17  C   UNL     1       3.856   5.732  19.212  0.00  0.00    +0.000 A 
BRANCH  14  18
ATOM     18  O   UNL     1       5.897   6.275  15.625  0.00  0.00    +0.000 OA
ATOM     19  C   UNL     1       5.581   5.361  14.578  0.00  0.00    +0.000 C 
ENDBRANCH  14  18
BRANCH  15  20
ATOM     20  O   UNL     1       6.518   4.198  17.117  0.00  0.00    +0.000 OA
ATOM     21  C   UNL     1       7.852   4.425  17.553  0.00  0.00    +0.000 C 
ENDBRANCH  15  20
BRANCH  16  22
ATOM     22  O   UNL     1       5.188   3.734  19.603  0.00  0.00    +0.000 OA
ATOM     23  C   UNL     1       4.238   2.680  19.726  0.00  0.00    +0.000 C 
ENDBRANCH  16  22
ENDBRANCH   2  12
BRANCH   2  24
ATOM     24  C   UNL     1       1.766   7.684  20.126  0.00  0.00    +0.000 C 
ATOM     25  N   UNL     1       1.240   7.643  21.271  0.00  0.00    +0.000 NA
ENDBRANCH   2  24
TORSDOF 7
ENDMDL
