MODEL 1
REMARK VINA RESULT:      -8.3      0.000      0.000
REMARK  Name = 
REMARK  3 active torsions:
REMARK  status: ('A' for Active; 'I' for Inactive)
REMARK    1  A    between atoms: C_2  and  C_3
REMARK    2  A    between atoms: C_6  and  C_7
REMARK    3  A    between atoms: N_17  and  C_18
REMARK                            x       y       z     vdW  Elec       q    Type
REMARK                         _______ _______ _______ _____ _____    ______ ____
ROOT
ATOM      1  C   UNL     1       2.318   7.614  18.873  0.00  0.00    +0.000 A 
ATOM      2  C   UNL     1       1.961   7.300  20.202  0.00  0.00    +0.000 A 
ATOM      3  C   UNL     1       1.140   8.161  20.935  0.00  0.00    +0.000 A 
ATOM      4  C   UNL     1       0.645   9.324  20.339  0.00  0.00    +0.000 A 
ATOM      5  N   UNL     1      -0.165  10.155  21.034  0.00  0.00    +0.000 NA
ATOM      6  C   UNL     1      -0.724  11.265  20.473  0.00  0.00    +0.000 A 
ATOM      7  N   UNL     1      -1.618  12.058  21.245  0.00  0.00    +0.000 N 
ATOM      8  C   UNL     1      -1.501  12.056  22.696  0.00  0.00    +0.000 C 
ATOM      9  C   UNL     1      -1.148  13.426  23.304  0.00  0.00    +0.000 C 
ATOM     10  C   UNL     1      -1.744  14.705  22.684  0.00  0.00    +0.000 C 
ATOM     11  N   UNL     1      -3.086  14.591  22.084  0.00  0.00    +0.000 NA
ATOM     12  C   UNL     1      -3.037  14.060  20.707  0.00  0.00    +0.000 C 
ATOM     13  C   UNL     1      -2.852  12.550  20.628  0.00  0.00    +0.000 C 
ATOM     14  C   UNL     1      -0.442  11.579  19.133  0.00  0.00    +0.000 A 
ATOM     15  C   UNL     1       0.419  10.764  18.406  0.00  0.00    +0.000 A 
ATOM     16  C   UNL     1       0.965   9.627  19.005  0.00  0.00    +0.000 A 
ATOM     17  C   UNL     1       1.813   8.788  18.293  0.00  0.00    +0.000 A 
ENDROOT
BRANCH   1  21
ATOM     18  C   UNL     1       4.819   5.096  16.460  0.00  0.00    +0.000 A 
ATOM     19  C   UNL     1       3.837   4.521  17.272  0.00  0.00    +0.000 A 
ATOM     20  C   UNL     1       3.033   5.333  18.078  0.00  0.00    +0.000 A 
ATOM     21  C   UNL     1       3.193   6.732  18.062  0.00  0.00    +0.000 A 
ATOM     22  C   UNL     1       4.196   7.290  17.241  0.00  0.00    +0.000 A 
ATOM     23  C   UNL     1       5.004   6.478  16.455  0.00  0.00    +0.000 A 
BRANCH  18  25
ATOM     24  N   UNL     1       6.297   3.593  14.952  0.00  0.00    +0.000 NA
ATOM     25  C   UNL     1       5.639   4.265  15.626  0.00  0.00    +0.000 C 
ENDBRANCH  18  25
ENDBRANCH   1  21
BRANCH  11  26
ATOM     26  C   UNL     1      -4.153  14.039  22.948  0.00  0.00    +0.000 C 
ATOM     27  C   UNL     1      -4.560  14.935  24.114  0.00  0.00    +0.000 C 
ATOM     28  C   UNL     1      -6.011  14.554  23.821  0.00  0.00    +0.000 C 
ATOM     29  C   UNL     1      -5.578  14.194  22.404  0.00  0.00    +0.000 C 
ENDBRANCH  11  26
TORSDOF 3
ENDMDL
MODEL 2
REMARK VINA RESULT:      -8.1      1.471      2.938
REMARK  Name = 
REMARK  3 active torsions:
REMARK  status: ('A' for Active; 'I' for Inactive)
REMARK    1  A    between atoms: C_2  and  C_3
REMARK    2  A    between atoms: C_6  and  C_7
REMARK    3  A    between atoms: N_17  and  C_18
REMARK                            x       y       z     vdW  Elec       q    Type
REMARK                         _______ _______ _______ _____ _____    ______ ____
ROOT
ATOM      1  C   UNL     1       1.252   8.892  19.366  0.00  0.00    +0.000 A 
ATOM      2  C   UNL     1       0.648   9.788  18.457  0.00  0.00    +0.000 A 
ATOM      3  C   UNL     1      -0.293  10.720  18.905  0.00  0.00    +0.000 A 
ATOM      4  C   UNL     1      -0.614  10.786  20.263  0.00  0.00    +0.000 A 
ATOM      5  N   UNL     1      -1.510  11.696  20.708  0.00  0.00    +0.000 NA
ATOM      6  C   UNL     1      -1.805  11.842  22.031  0.00  0.00    +0.000 A 
ATOM      7  N   UNL     1      -2.708  12.864  22.433  0.00  0.00    +0.000 N 
ATOM      8  C   UNL     1      -3.712  13.339  21.492  0.00  0.00    +0.000 C 
ATOM      9  C   UNL     1      -5.165  13.092  21.938  0.00  0.00    +0.000 C 
ATOM     10  C   UNL     1      -5.531  13.226  23.429  0.00  0.00    +0.000 C 
ATOM     11  N   UNL     1      -4.775  14.219  24.214  0.00  0.00    +0.000 NA
ATOM     12  C   UNL     1      -3.478  13.688  24.678  0.00  0.00    +0.000 C 
ATOM     13  C   UNL     1      -2.391  13.676  23.611  0.00  0.00    +0.000 C 
ATOM     14  C   UNL     1      -1.177  11.010  22.974  0.00  0.00    +0.000 A 
ATOM     15  C   UNL     1      -0.281  10.038  22.541  0.00  0.00    +0.000 A 
ATOM     16  C   UNL     1       0.009   9.923  21.181  0.00  0.00    +0.000 A 
ATOM     17  C   UNL     1       0.914   8.973  20.726  0.00  0.00    +0.000 A 
ENDROOT
BRANCH   1  21
ATOM     18  C   UNL     1       4.180   5.987  18.181  0.00  0.00    +0.000 A 
ATOM     19  C   UNL     1       3.979   7.126  17.396  0.00  0.00    +0.000 A 
ATOM     20  C   UNL     1       3.011   8.066  17.764  0.00  0.00    +0.000 A 
ATOM     21  C   UNL     1       2.249   7.883  18.933  0.00  0.00    +0.000 A 
ATOM     22  C   UNL     1       2.462   6.721  19.706  0.00  0.00    +0.000 A 
ATOM     23  C   UNL     1       3.413   5.781  19.327  0.00  0.00    +0.000 A 
BRANCH  18  25
ATOM     24  N   UNL     1       5.981   4.249  17.509  0.00  0.00    +0.000 NA
ATOM     25  C   UNL     1       5.178   5.026  17.810  0.00  0.00    +0.000 C 
ENDBRANCH  18  25
ENDBRANCH   1  21
BRANCH  11  26
ATOM     26  C   UNL     1      -4.753  15.601  23.689  0.00  0.00    +0.000 C 
ATOM     27  C   UNL     1      -6.121  16.271  23.593  0.00  0.00    +0.000 C 
ATOM     28  C   UNL     1      -5.465  17.548  24.117  0.00  0.00    +0.000 C 
ATOM     29  C   UNL     1      -4.359  16.678  24.706  0.00  0.00    +0.000 C 
ENDBRANCH  11  26
TORSDOF 3
ENDMDL
MODEL 3
REMARK VINA RESULT:      -7.9      0.765      1.184
REMARK  Name = 
REMARK  3 active torsions:
REMARK  status: ('A' for Active; 'I' for Inactive)
REMARK    1  A    between atoms: C_2  and  C_3
REMARK    2  A    between atoms: C_6  and  C_7
REMARK    3  A    between atoms: N_17  and  C_18
REMARK                            x       y       z     vdW  Elec       q    Type
REMARK                         _______ _______ _______ _____ _____    ______ ____
ROOT
ATOM      1  C   UNL     1       1.925   8.041  19.295  0.00  0.00    +0.000 A 
ATOM      2  C   UNL     1       1.511   7.752  20.614  0.00  0.00    +0.000 A 
ATOM      3  C   UNL     1       0.722   8.663  21.321  0.00  0.00    +0.000 A 
ATOM      4  C   UNL     1       0.315   9.852  20.710  0.00  0.00    +0.000 A 
ATOM      5  N   UNL     1      -0.464  10.731  21.380  0.00  0.00    +0.000 NA
ATOM      6  C   UNL     1      -0.939  11.871  20.802  0.00  0.00    +0.000 A 
ATOM      7  N   UNL     1      -1.806  12.718  21.546  0.00  0.00    +0.000 N 
ATOM      8  C   UNL     1      -1.733  12.714  23.000  0.00  0.00    +0.000 C 
ATOM      9  C   UNL     1      -1.316  14.062  23.617  0.00  0.00    +0.000 C 
ATOM     10  C   UNL     1      -1.817  15.372  22.978  0.00  0.00    +0.000 C 
ATOM     11  N   UNL     1      -3.145  15.336  22.339  0.00  0.00    +0.000 NA
ATOM     12  C   UNL     1      -3.087  14.800  20.965  0.00  0.00    +0.000 C 
ATOM     13  C   UNL     1      -2.990  13.281  20.893  0.00  0.00    +0.000 C 
ATOM     14  C   UNL     1      -0.600  12.164  19.470  0.00  0.00    +0.000 A 
ATOM     15  C   UNL     1       0.232  11.297  18.769  0.00  0.00    +0.000 A 
ATOM     16  C   UNL     1       0.692  10.131  19.385  0.00  0.00    +0.000 A 
ATOM     17  C   UNL     1       1.508   9.241  18.700  0.00  0.00    +0.000 A 
ENDROOT
BRANCH   1  21
ATOM     18  C   UNL     1       4.401   5.311  17.097  0.00  0.00    +0.000 A 
ATOM     19  C   UNL     1       4.541   6.687  16.896  0.00  0.00    +0.000 A 
ATOM     20  C   UNL     1       3.723   7.582  17.591  0.00  0.00    +0.000 A 
ATOM     21  C   UNL     1       2.769   7.106  18.511  0.00  0.00    +0.000 A 
ATOM     22  C   UNL     1       2.639   5.713  18.692  0.00  0.00    +0.000 A 
ATOM     23  C   UNL     1       3.443   4.826  17.986  0.00  0.00    +0.000 A 
BRANCH  18  25
ATOM     24  N   UNL     1       5.926   3.652  15.817  0.00  0.00    +0.000 NA
ATOM     25  C   UNL     1       5.246   4.392  16.390  0.00  0.00    +0.000 C 
ENDBRANCH  18  25
ENDBRANCH   1  21
BRANCH  11  26
ATOM     26  C   UNL     1      -4.267  14.851  23.171  0.00  0.00    +0.000 C 
ATOM     27  C   UNL     1      -4.716  15.816  24.266  0.00  0.00    +0.000 C 
ATOM     28  C   UNL     1      -6.157  15.448  23.915  0.00  0.00    +0.000 C 
ATOM     29  C   UNL     1      -5.658  15.004  22.544  0.00  0.00    +0.000 C 
ENDBRANCH  11  26
TORSDOF 3
ENDMDL
MODEL 4
REMARK VINA RESULT:      -7.8      2.078      3.316
REMARK  Name = 
REMARK  3 active torsions:
REMARK  status: ('A' for Active; 'I' for Inactive)
REMARK    1  A    between atoms: C_2  and  C_3
REMARK    2  A    between atoms: C_6  and  C_7
REMARK    3  A    between atoms: N_17  and  C_18
REMARK                            x       y       z     vdW  Elec       q    Type
REMARK                         _______ _______ _______ _____ _____    ______ ____
ROOT
ATOM      1  C   UNL     1       1.514   7.810  20.248  0.00  0.00    +0.000 A 
ATOM      2  C   UNL     1       1.538   8.794  19.235  0.00  0.00    +0.000 A 
ATOM      3  C   UNL     1       0.874  10.010  19.418  0.00  0.00    +0.000 A 
ATOM      4  C   UNL     1       0.210  10.266  20.621  0.00  0.00    +0.000 A 
ATOM      5  N   UNL     1      -0.420  11.447  20.813  0.00  0.00    +0.000 NA
ATOM      6  C   UNL     1      -1.024  11.767  21.993  0.00  0.00    +0.000 A 
ATOM      7  N   UNL     1      -1.611  13.053  22.147  0.00  0.00    +0.000 N 
ATOM      8  C   UNL     1      -2.076  13.770  20.969  0.00  0.00    +0.000 C 
ATOM      9  C   UNL     1      -3.591  14.044  20.951  0.00  0.00    +0.000 C 
ATOM     10  C   UNL     1      -4.312  14.388  22.270  0.00  0.00    +0.000 C 
ATOM     11  N   UNL     1      -3.534  15.125  23.282  0.00  0.00    +0.000 NA
ATOM     12  C   UNL     1      -2.684  14.228  24.091  0.00  0.00    +0.000 C 
ATOM     13  C   UNL     1      -1.402  13.790  23.396  0.00  0.00    +0.000 C 
ATOM     14  C   UNL     1      -1.015  10.838  23.047  0.00  0.00    +0.000 A 
ATOM     15  C   UNL     1      -0.409   9.600  22.863  0.00  0.00    +0.000 A 
ATOM     16  C   UNL     1       0.212   9.308  21.648  0.00  0.00    +0.000 A 
ATOM     17  C   UNL     1       0.839   8.086  21.447  0.00  0.00    +0.000 A 
ENDROOT
BRANCH   1  21
ATOM     18  C   UNL     1       3.514   4.031  19.878  0.00  0.00    +0.000 A 
ATOM     19  C   UNL     1       3.990   5.137  19.169  0.00  0.00    +0.000 A 
ATOM     20  C   UNL     1       3.331   6.366  19.267  0.00  0.00    +0.000 A 
ATOM     21  C   UNL     1       2.199   6.503  20.093  0.00  0.00    +0.000 A 
ATOM     22  C   UNL     1       1.730   5.371  20.793  0.00  0.00    +0.000 A 
ATOM     23  C   UNL     1       2.379   4.147  20.679  0.00  0.00    +0.000 A 
BRANCH  18  25
ATOM     24  N   UNL     1       4.740   1.754  19.710  0.00  0.00    +0.000 NA
ATOM     25  C   UNL     1       4.194   2.771  19.786  0.00  0.00    +0.000 C 
ENDBRANCH  18  25
ENDBRANCH   1  21
BRANCH  11  26
ATOM     26  C   UNL     1      -2.900  16.386  22.841  0.00  0.00    +0.000 C 
ATOM     27  C   UNL     1      -3.877  17.478  22.412  0.00  0.00    +0.000 C 
ATOM     28  C   UNL     1      -2.985  18.479  23.146  0.00  0.00    +0.000 C 
ATOM     29  C   UNL     1      -2.443  17.316  23.971  0.00  0.00    +0.000 C 
ENDBRANCH  11  26
TORSDOF 3
ENDMDL
MODEL 5
REMARK VINA RESULT:      -7.8      1.261      2.334
REMARK  Name = 
REMARK  3 active torsions:
REMARK  status: ('A' for Active; 'I' for Inactive)
REMARK    1  A    between atoms: C_2  and  C_3
REMARK    2  A    between atoms: C_6  and  C_7
REMARK    3  A    between atoms: N_17  and  C_18
REMARK                            x       y       z     vdW  Elec       q    Type
REMARK                         _______ _______ _______ _____ _____    ______ ____
ROOT
ATOM      1  C   UNL     1       1.670   8.429  18.700  0.00  0.00    +0.000 A 
ATOM      2  C   UNL     1       1.079   9.386  17.847  0.00  0.00    +0.000 A 
ATOM      3  C   UNL     1       0.205  10.347  18.364  0.00  0.00    +0.000 A 
ATOM      4  C   UNL     1      -0.061  10.379  19.735  0.00  0.00    +0.000 A 
ATOM      5  N   UNL     1      -0.891  11.317  20.247  0.00  0.00    +0.000 NA
ATOM      6  C   UNL     1      -1.128  11.428  21.585  0.00  0.00    +0.000 A 
ATOM      7  N   UNL     1      -1.962  12.479  22.058  0.00  0.00    +0.000 N 
ATOM      8  C   UNL     1      -2.975  13.038  21.174  0.00  0.00    +0.000 C 
ATOM      9  C   UNL     1      -4.421  12.848  21.668  0.00  0.00    +0.000 C 
ATOM     10  C   UNL     1      -4.723  12.945  23.176  0.00  0.00    +0.000 C 
ATOM     11  N   UNL     1      -3.887  13.869  23.965  0.00  0.00    +0.000 NA
ATOM     12  C   UNL     1      -2.602  13.258  24.359  0.00  0.00    +0.000 C 
ATOM     13  C   UNL     1      -1.559  13.230  23.249  0.00  0.00    +0.000 C 
ATOM     14  C   UNL     1      -0.509  10.532  22.473  0.00  0.00    +0.000 A 
ATOM     15  C   UNL     1       0.319   9.533  21.971  0.00  0.00    +0.000 A 
ATOM     16  C   UNL     1       0.551   9.454  20.597  0.00  0.00    +0.000 A 
ATOM     17  C   UNL     1       1.388   8.477  20.074  0.00  0.00    +0.000 A 
ENDROOT
BRANCH   1  21
ATOM     18  C   UNL     1       4.333   5.438  17.158  0.00  0.00    +0.000 A 
ATOM     19  C   UNL     1       3.205   5.050  17.887  0.00  0.00    +0.000 A 
ATOM     20  C   UNL     1       2.345   6.019  18.412  0.00  0.00    +0.000 A 
ATOM     21  C   UNL     1       2.597   7.387  18.193  0.00  0.00    +0.000 A 
ATOM     22  C   UNL     1       3.746   7.757  17.462  0.00  0.00    +0.000 A 
ATOM     23  C   UNL     1       4.607   6.790  16.957  0.00  0.00    +0.000 A 
BRANCH  18  25
ATOM     24  N   UNL     1       5.921   3.645  16.167  0.00  0.00    +0.000 NA
ATOM     25  C   UNL     1       5.212   4.445  16.611  0.00  0.00    +0.000 C 
ENDBRANCH  18  25
ENDBRANCH   1  21
BRANCH  11  26
ATOM     26  C   UNL     1      -3.814  15.267  23.487  0.00  0.00    +0.000 C 
ATOM     27  C   UNL     1      -5.144  16.017  23.494  0.00  0.00    +0.000 C 
ATOM     28  C   UNL     1      -4.386  17.234  24.023  0.00  0.00    +0.000 C 
ATOM     29  C   UNL     1      -3.302  16.281  24.517  0.00  0.00    +0.000 C 
ENDBRANCH  11  26
TORSDOF 3
ENDMDL
MODEL 6
REMARK VINA RESULT:      -7.6      1.879     10.808
REMARK  Name = 
REMARK  3 active torsions:
REMARK  status: ('A' for Active; 'I' for Inactive)
REMARK    1  A    between atoms: C_2  and  C_3
REMARK    2  A    between atoms: C_6  and  C_7
REMARK    3  A    between atoms: N_17  and  C_18
REMARK                            x       y       z     vdW  Elec       q    Type
REMARK                         _______ _______ _______ _____ _____    ______ ____
ROOT
ATOM      1  C   UNL     1      -0.781  10.825  21.490  0.00  0.00    +0.000 A 
ATOM      2  C   UNL     1      -0.278   9.897  22.428  0.00  0.00    +0.000 A 
ATOM      3  C   UNL     1       0.589   8.879  22.019  0.00  0.00    +0.000 A 
ATOM      4  C   UNL     1       0.983   8.798  20.680  0.00  0.00    +0.000 A 
ATOM      5  N   UNL     1       1.836   7.828  20.278  0.00  0.00    +0.000 NA
ATOM      6  C   UNL     1       2.299   7.751  18.999  0.00  0.00    +0.000 A 
ATOM      7  N   UNL     1       3.244   6.742  18.663  0.00  0.00    +0.000 N 
ATOM      8  C   UNL     1       3.279   5.510  19.438  0.00  0.00    +0.000 C 
ATOM      9  C   UNL     1       2.950   4.243  18.628  0.00  0.00    +0.000 C 
ATOM     10  C   UNL     1       3.439   4.128  17.171  0.00  0.00    +0.000 C 
ATOM     11  N   UNL     1       4.714   4.791  16.843  0.00  0.00    +0.000 NA
ATOM     12  C   UNL     1       4.538   6.232  16.570  0.00  0.00    +0.000 C 
ATOM     13  C   UNL     1       4.391   7.089  17.821  0.00  0.00    +0.000 C 
ATOM     14  C   UNL     1       1.870   8.694  18.050  0.00  0.00    +0.000 A 
ATOM     15  C   UNL     1       0.963   9.679  18.426  0.00  0.00    +0.000 A 
ATOM     16  C   UNL     1       0.517   9.739  19.747  0.00  0.00    +0.000 A 
ATOM     17  C   UNL     1      -0.374  10.725  20.151  0.00  0.00    +0.000 A 
ENDROOT
BRANCH   1  21
ATOM     18  C   UNL     1      -3.523  13.925  22.623  0.00  0.00    +0.000 A 
ATOM     19  C   UNL     1      -2.930  13.955  21.358  0.00  0.00    +0.000 A 
ATOM     20  C   UNL     1      -2.018  12.961  20.990  0.00  0.00    +0.000 A 
ATOM     21  C   UNL     1      -1.708  11.915  21.880  0.00  0.00    +0.000 A 
ATOM     22  C   UNL     1      -2.312  11.909  23.155  0.00  0.00    +0.000 A 
ATOM     23  C   UNL     1      -3.205  12.909  23.523  0.00  0.00    +0.000 A 
BRANCH  18  25
ATOM     24  N   UNL     1      -5.224  15.757  23.306  0.00  0.00    +0.000 NA
ATOM     25  C   UNL     1      -4.466  14.939  22.999  0.00  0.00    +0.000 C 
ENDBRANCH  18  25
ENDBRANCH   1  21
BRANCH  11  26
ATOM     26  C   UNL     1       5.881   4.434  17.679  0.00  0.00    +0.000 C 
ATOM     27  C   UNL     1       7.216   4.410  16.938  0.00  0.00    +0.000 C 
ATOM     28  C   UNL     1       7.837   5.086  18.160  0.00  0.00    +0.000 C 
ATOM     29  C   UNL     1       6.442   5.574  18.537  0.00  0.00    +0.000 C 
ENDBRANCH  11  26
TORSDOF 3
ENDMDL
MODEL 7
REMARK VINA RESULT:      -7.5      1.688     11.009
REMARK  Name = 
REMARK  3 active torsions:
REMARK  status: ('A' for Active; 'I' for Inactive)
REMARK    1  A    between atoms: C_2  and  C_3
REMARK    2  A    between atoms: C_6  and  C_7
REMARK    3  A    between atoms: N_17  and  C_18
REMARK                            x       y       z     vdW  Elec       q    Type
REMARK                         _______ _______ _______ _____ _____    ______ ____
ROOT
ATOM      1  C   UNL     1      -0.644  11.167  20.572  0.00  0.00    +0.000 A 
ATOM      2  C   UNL     1      -0.261  11.530  19.262  0.00  0.00    +0.000 A 
ATOM      3  C   UNL     1       0.637  10.736  18.544  0.00  0.00    +0.000 A 
ATOM      4  C   UNL     1       1.134   9.560  19.113  0.00  0.00    +0.000 A 
ATOM      5  N   UNL     1       1.990   8.775  18.419  0.00  0.00    +0.000 NA
ATOM      6  C   UNL     1       2.448   7.588  18.907  0.00  0.00    +0.000 A 
ATOM      7  N   UNL     1       3.295   6.784  18.095  0.00  0.00    +0.000 N 
ATOM      8  C   UNL     1       4.109   7.417  17.067  0.00  0.00    +0.000 C 
ATOM      9  C   UNL     1       5.627   7.262  17.277  0.00  0.00    +0.000 C 
ATOM     10  C   UNL     1       6.180   5.941  17.847  0.00  0.00    +0.000 C 
ATOM     11  N   UNL     1       5.446   4.709  17.505  0.00  0.00    +0.000 NA
ATOM     12  C   UNL     1       4.282   4.492  18.388  0.00  0.00    +0.000 C 
ATOM     13  C   UNL     1       3.066   5.338  18.035  0.00  0.00    +0.000 C 
ATOM     14  C   UNL     1       2.041   7.161  20.182  0.00  0.00    +0.000 A 
ATOM     15  C   UNL     1       1.192   7.967  20.935  0.00  0.00    +0.000 A 
ATOM     16  C   UNL     1       0.730   9.171  20.402  0.00  0.00    +0.000 A 
ATOM     17  C   UNL     1      -0.132   9.983  21.126  0.00  0.00    +0.000 A 
ENDROOT
BRANCH   1  21
ATOM     18  C   UNL     1      -3.342  13.599  22.858  0.00  0.00    +0.000 A 
ATOM     19  C   UNL     1      -2.442  12.757  23.517  0.00  0.00    +0.000 A 
ATOM     20  C   UNL     1      -1.576  11.944  22.779  0.00  0.00    +0.000 A 
ATOM     21  C   UNL     1      -1.589  11.984  21.372  0.00  0.00    +0.000 A 
ATOM     22  C   UNL     1      -2.511  12.835  20.727  0.00  0.00    +0.000 A 
ATOM     23  C   UNL     1      -3.382  13.628  21.465  0.00  0.00    +0.000 A 
BRANCH  18  25
ATOM     24  N   UNL     1      -4.936  15.118  24.225  0.00  0.00    +0.000 NA
ATOM     25  C   UNL     1      -4.225  14.439  23.613  0.00  0.00    +0.000 C 
ENDBRANCH  18  25
ENDBRANCH   1  21
BRANCH  11  26
ATOM     26  C   UNL     1       5.217   4.451  16.067  0.00  0.00    +0.000 C 
ATOM     27  C   UNL     1       6.182   5.170  15.127  0.00  0.00    +0.000 C 
ATOM     28  C   UNL     1       6.240   3.885  14.302  0.00  0.00    +0.000 C 
ATOM     29  C   UNL     1       5.784   3.126  15.544  0.00  0.00    +0.000 C 
ENDBRANCH  11  26
TORSDOF 3
ENDMDL
MODEL 8
REMARK VINA RESULT:      -7.4      1.147      1.389
REMARK  Name = 
REMARK  3 active torsions:
REMARK  status: ('A' for Active; 'I' for Inactive)
REMARK    1  A    between atoms: C_2  and  C_3
REMARK    2  A    between atoms: C_6  and  C_7
REMARK    3  A    between atoms: N_17  and  C_18
REMARK                            x       y       z     vdW  Elec       q    Type
REMARK                         _______ _______ _______ _____ _____    ______ ____
ROOT
ATOM      1  C   UNL     1       1.658   8.343  19.761  0.00  0.00    +0.000 A 
ATOM      2  C   UNL     1       1.205   8.109  21.078  0.00  0.00    +0.000 A 
ATOM      3  C   UNL     1       0.427   9.065  21.737  0.00  0.00    +0.000 A 
ATOM      4  C   UNL     1       0.070  10.244  21.078  0.00  0.00    +0.000 A 
ATOM      5  N   UNL     1      -0.698  11.167  21.701  0.00  0.00    +0.000 NA
ATOM      6  C   UNL     1      -1.126  12.301  21.076  0.00  0.00    +0.000 A 
ATOM      7  N   UNL     1      -1.984  13.196  21.772  0.00  0.00    +0.000 N 
ATOM      8  C   UNL     1      -1.945  13.237  23.226  0.00  0.00    +0.000 C 
ATOM      9  C   UNL     1      -1.502  14.592  23.810  0.00  0.00    +0.000 C 
ATOM     10  C   UNL     1      -1.949  15.894  23.118  0.00  0.00    +0.000 C 
ATOM     11  N   UNL     1      -3.263  15.876  22.449  0.00  0.00    +0.000 NA
ATOM     12  C   UNL     1      -3.189  15.294  21.094  0.00  0.00    +0.000 C 
ATOM     13  C   UNL     1      -3.135  13.772  21.072  0.00  0.00    +0.000 C 
ATOM     14  C   UNL     1      -0.747  12.540  19.744  0.00  0.00    +0.000 A 
ATOM     15  C   UNL     1       0.075  11.627  19.092  0.00  0.00    +0.000 A 
ATOM     16  C   UNL     1       0.485  10.470  19.755  0.00  0.00    +0.000 A 
ATOM     17  C   UNL     1       1.290   9.535  19.118  0.00  0.00    +0.000 A 
ENDROOT
BRANCH   1  21
ATOM     18  C   UNL     1       4.020   5.502  17.577  0.00  0.00    +0.000 A 
ATOM     19  C   UNL     1       3.378   5.108  18.755  0.00  0.00    +0.000 A 
ATOM     20  C   UNL     1       2.625   6.033  19.484  0.00  0.00    +0.000 A 
ATOM     21  C   UNL     1       2.492   7.359  19.028  0.00  0.00    +0.000 A 
ATOM     22  C   UNL     1       3.155   7.737  17.842  0.00  0.00    +0.000 A 
ATOM     23  C   UNL     1       3.917   6.818  17.129  0.00  0.00    +0.000 A 
BRANCH  18  25
ATOM     24  N   UNL     1       5.406   3.786  16.217  0.00  0.00    +0.000 NA
ATOM     25  C   UNL     1       4.786   4.552  16.823  0.00  0.00    +0.000 C 
ENDBRANCH  18  25
ENDBRANCH   1  21
BRANCH  11  26
ATOM     26  C   UNL     1      -4.418  15.451  23.269  0.00  0.00    +0.000 C 
ATOM     27  C   UNL     1      -4.748  16.376  24.438  0.00  0.00    +0.000 C 
ATOM     28  C   UNL     1      -6.225  16.185  24.093  0.00  0.00    +0.000 C 
ATOM     29  C   UNL     1      -5.793  15.793  22.684  0.00  0.00    +0.000 C 
ENDBRANCH  11  26
TORSDOF 3
ENDMDL
MODEL 9
REMARK VINA RESULT:      -7.2      1.378      2.022
REMARK  Name = 
REMARK  3 active torsions:
REMARK  status: ('A' for Active; 'I' for Inactive)
REMARK    1  A    between atoms: C_2  and  C_3
REMARK    2  A    between atoms: C_6  and  C_7
REMARK    3  A    between atoms: N_17  and  C_18
REMARK                            x       y       z     vdW  Elec       q    Type
REMARK                         _______ _______ _______ _____ _____    ______ ____
ROOT
ATOM      1  C   UNL     1       1.464   8.468  20.025  0.00  0.00    +0.000 A 
ATOM      2  C   UNL     1       1.082   8.294  21.373  0.00  0.00    +0.000 A 
ATOM      3  C   UNL     1       0.388   9.305  22.045  0.00  0.00    +0.000 A 
ATOM      4  C   UNL     1       0.044  10.479  21.370  0.00  0.00    +0.000 A 
ATOM      5  N   UNL     1      -0.644  11.455  22.007  0.00  0.00    +0.000 NA
ATOM      6  C   UNL     1      -1.057  12.587  21.371  0.00  0.00    +0.000 A 
ATOM      7  N   UNL     1      -1.832  13.542  22.087  0.00  0.00    +0.000 N 
ATOM      8  C   UNL     1      -1.703  13.624  23.535  0.00  0.00    +0.000 C 
ATOM      9  C   UNL     1      -1.167  14.974  24.046  0.00  0.00    +0.000 C 
ATOM     10  C   UNL     1      -1.597  16.274  23.340  0.00  0.00    +0.000 C 
ATOM     11  N   UNL     1      -2.948  16.297  22.750  0.00  0.00    +0.000 NA
ATOM     12  C   UNL     1      -2.981  15.672  21.413  0.00  0.00    +0.000 C 
ATOM     13  C   UNL     1      -2.997  14.149  21.438  0.00  0.00    +0.000 C 
ATOM     14  C   UNL     1      -0.749  12.769  20.012  0.00  0.00    +0.000 A 
ATOM     15  C   UNL     1      -0.010  11.800  19.343  0.00  0.00    +0.000 A 
ATOM     16  C   UNL     1       0.389  10.645  20.018  0.00  0.00    +0.000 A 
ATOM     17  C   UNL     1       1.112   9.656  19.367  0.00  0.00    +0.000 A 
ENDROOT
BRANCH   1  21
ATOM     18  C   UNL     1       3.664   5.441  17.924  0.00  0.00    +0.000 A 
ATOM     19  C   UNL     1       3.671   6.755  17.450  0.00  0.00    +0.000 A 
ATOM     20  C   UNL     1       2.939   7.743  18.116  0.00  0.00    +0.000 A 
ATOM     21  C   UNL     1       2.208   7.425  19.277  0.00  0.00    +0.000 A 
ATOM     22  C   UNL     1       2.209   6.090  19.733  0.00  0.00    +0.000 A 
ATOM     23  C   UNL     1       2.924   5.108  19.058  0.00  0.00    +0.000 A 
BRANCH  18  25
ATOM     24  N   UNL     1       5.031   3.611  16.699  0.00  0.00    +0.000 NA
ATOM     25  C   UNL     1       4.422   4.428  17.247  0.00  0.00    +0.000 C 
ENDBRANCH  18  25
ENDBRANCH   1  21
BRANCH  11  26
ATOM     26  C   UNL     1      -4.069  15.951  23.650  0.00  0.00    +0.000 C 
ATOM     27  C   UNL     1      -4.271  16.910  24.821  0.00  0.00    +0.000 C 
ATOM     28  C   UNL     1      -5.775  16.798  24.575  0.00  0.00    +0.000 C 
ATOM     29  C   UNL     1      -5.458  16.361  23.148  0.00  0.00    +0.000 C 
ENDBRANCH  11  26
TORSDOF 3
ENDMDL
