MODEL 1
REMARK VINA RESULT:      -6.8      0.000      0.000
REMARK  Name = 
REMARK  5 active torsions:
REMARK  status: ('A' for Active; 'I' for Inactive)
REMARK    1  A    between atoms: C_2  and  C_3
REMARK    2  A    between atoms: C_3  and  N_4
REMARK    3  A    between atoms: C_6  and  N_7
REMARK    4  A    between atoms: N_12  and  C_13
REMARK    5  A    between atoms: C_13  and  C_14
REMARK                            x       y       z     vdW  Elec       q    Type
REMARK                         _______ _______ _______ _____ _____    ______ ____
ROOT
ATOM      1  O   UNL     1       5.028   2.779  19.896  0.00  0.00    +0.000 OA
ATOM      2  C   UNL     1       4.894   3.450  18.874  0.00  0.00    +0.000 C 
ATOM      3  N   UNL     1       3.903   3.202  17.951  0.00  0.00    +0.000 N 
ATOM      4  H   UNL     1       3.865   3.711  17.074  0.00  0.00    +0.000 HD
ENDROOT
BRANCH   2   5
ATOM      5  C   UNL     1       5.782   4.634  18.559  0.00  0.00    +0.000 C 
BRANCH   5   6
ATOM      6  N   UNL     1       5.853   4.912  17.133  0.00  0.00    +0.000 N 
ATOM      7  C   UNL     1       6.794   4.470  16.244  0.00  0.00    +0.000 A 
ATOM      8  C   UNL     1       6.483   5.057  15.036  0.00  0.00    +0.000 A 
ATOM      9  C   UNL     1       5.365   5.864  15.305  0.00  0.00    +0.000 A 
ATOM     10  N   UNL     1       4.978   5.786  16.584  0.00  0.00    +0.000 NA
BRANCH   8  11
ATOM     11  N   UNL     1       7.162   4.887  13.792  0.00  0.00    +0.000 N 
ATOM     12  O   UNL     1       6.735   4.013  13.026  0.00  0.00    +0.000 OA
ATOM     13  O   UNL     1       8.126   5.632  13.578  0.00  0.00    +0.000 OA
ENDBRANCH   8  11
ENDBRANCH   5   6
ENDBRANCH   2   5
BRANCH   3  14
ATOM     14  C   UNL     1       2.936   2.119  18.099  0.00  0.00    +0.000 C 
BRANCH  14  15
ATOM     15  C   UNL     1       1.709   2.547  18.910  0.00  0.00    +0.000 C 
ATOM     16  C   UNL     1       1.546   4.051  19.063  0.00  0.00    +0.000 C 
ATOM     17  C   UNL     1       0.786   4.152  20.361  0.00  0.00    +0.000 C 
ATOM     18  C   UNL     1       1.374   3.018  21.173  0.00  0.00    +0.000 C 
ATOM     19  O   UNL     1       1.796   2.007  20.246  0.00  0.00    +0.000 OA
ENDBRANCH  14  15
ENDBRANCH   3  14
TORSDOF 5
ENDMDL
MODEL 2
REMARK VINA RESULT:      -6.5      2.170      7.062
REMARK  Name = 
REMARK  5 active torsions:
REMARK  status: ('A' for Active; 'I' for Inactive)
REMARK    1  A    between atoms: C_2  and  C_3
REMARK    2  A    between atoms: C_3  and  N_4
REMARK    3  A    between atoms: C_6  and  N_7
REMARK    4  A    between atoms: N_12  and  C_13
REMARK    5  A    between atoms: C_13  and  C_14
REMARK                            x       y       z     vdW  Elec       q    Type
REMARK                         _______ _______ _______ _____ _____    ______ ____
ROOT
ATOM      1  O   UNL     1       7.633   4.582  17.710  0.00  0.00    +0.000 OA
ATOM      2  C   UNL     1       6.409   4.672  17.636  0.00  0.00    +0.000 C 
ATOM      3  N   UNL     1       5.695   4.187  16.563  0.00  0.00    +0.000 N 
ATOM      4  H   UNL     1       4.697   4.350  16.482  0.00  0.00    +0.000 HD
ENDROOT
BRANCH   2   5
ATOM      5  C   UNL     1       5.574   5.287  18.737  0.00  0.00    +0.000 C 
BRANCH   5   6
ATOM      6  N   UNL     1       4.643   4.337  19.325  0.00  0.00    +0.000 N 
ATOM      7  C   UNL     1       3.433   4.605  19.903  0.00  0.00    +0.000 A 
ATOM      8  C   UNL     1       2.962   3.400  20.380  0.00  0.00    +0.000 A 
ATOM      9  C   UNL     1       3.973   2.473  20.077  0.00  0.00    +0.000 A 
ATOM     10  N   UNL     1       5.006   3.038  19.439  0.00  0.00    +0.000 NA
BRANCH   8  11
ATOM     11  N   UNL     1       1.722   3.158  21.045  0.00  0.00    +0.000 N 
ATOM     12  O   UNL     1       1.768   2.875  22.248  0.00  0.00    +0.000 OA
ATOM     13  O   UNL     1       0.696   3.251  20.359  0.00  0.00    +0.000 OA
ENDBRANCH   8  11
ENDBRANCH   5   6
ENDBRANCH   2   5
BRANCH   3  14
ATOM     14  C   UNL     1       6.328   3.538  15.419  0.00  0.00    +0.000 C 
BRANCH  14  15
ATOM     15  C   UNL     1       6.386   4.455  14.194  0.00  0.00    +0.000 C 
ATOM     16  C   UNL     1       6.485   3.725  12.863  0.00  0.00    +0.000 C 
ATOM     17  C   UNL     1       7.191   4.742  12.002  0.00  0.00    +0.000 C 
ATOM     18  C   UNL     1       8.148   5.390  12.979  0.00  0.00    +0.000 C 
ATOM     19  O   UNL     1       7.546   5.310  14.279  0.00  0.00    +0.000 OA
ENDBRANCH  14  15
ENDBRANCH   3  14
TORSDOF 5
ENDMDL
MODEL 3
REMARK VINA RESULT:      -6.4      1.358      1.576
REMARK  Name = 
REMARK  5 active torsions:
REMARK  status: ('A' for Active; 'I' for Inactive)
REMARK    1  A    between atoms: C_2  and  C_3
REMARK    2  A    between atoms: C_3  and  N_4
REMARK    3  A    between atoms: C_6  and  N_7
REMARK    4  A    between atoms: N_12  and  C_13
REMARK    5  A    between atoms: C_13  and  C_14
REMARK                            x       y       z     vdW  Elec       q    Type
REMARK                         _______ _______ _______ _____ _____    ______ ____
ROOT
ATOM      1  O   UNL     1       4.835   5.387  19.605  0.00  0.00    +0.000 OA
ATOM      2  C   UNL     1       5.585   4.575  19.067  0.00  0.00    +0.000 C 
ATOM      3  N   UNL     1       5.396   3.214  19.168  0.00  0.00    +0.000 N 
ATOM      4  H   UNL     1       6.076   2.563  18.789  0.00  0.00    +0.000 HD
ENDROOT
BRANCH   2   5
ATOM      5  C   UNL     1       6.758   4.999  18.211  0.00  0.00    +0.000 C 
BRANCH   5   6
ATOM      6  N   UNL     1       6.551   4.708  16.801  0.00  0.00    +0.000 N 
ATOM      7  C   UNL     1       7.370   5.032  15.754  0.00  0.00    +0.000 A 
ATOM      8  C   UNL     1       6.714   4.618  14.614  0.00  0.00    +0.000 A 
ATOM      9  C   UNL     1       5.494   4.092  15.071  0.00  0.00    +0.000 A 
ATOM     10  N   UNL     1       5.384   4.150  16.404  0.00  0.00    +0.000 NA
BRANCH   8  11
ATOM     11  N   UNL     1       7.176   4.715  13.267  0.00  0.00    +0.000 N 
ATOM     12  O   UNL     1       6.735   3.895  12.453  0.00  0.00    +0.000 OA
ATOM     13  O   UNL     1       7.985   5.619  13.021  0.00  0.00    +0.000 OA
ENDBRANCH   8  11
ENDBRANCH   5   6
ENDBRANCH   2   5
BRANCH   3  14
ATOM     14  C   UNL     1       4.303   2.621  19.929  0.00  0.00    +0.000 C 
BRANCH  14  15
ATOM     15  C   UNL     1       2.946   3.229  19.560  0.00  0.00    +0.000 C 
ATOM     16  C   UNL     1       1.946   3.282  20.704  0.00  0.00    +0.000 C 
ATOM     17  C   UNL     1       0.629   3.237  19.970  0.00  0.00    +0.000 C 
ATOM     18  C   UNL     1       0.933   2.311  18.812  0.00  0.00    +0.000 C 
ATOM     19  O   UNL     1       2.330   2.448  18.514  0.00  0.00    +0.000 OA
ENDBRANCH  14  15
ENDBRANCH   3  14
TORSDOF 5
ENDMDL
MODEL 4
REMARK VINA RESULT:      -6.4      1.756      2.143
REMARK  Name = 
REMARK  5 active torsions:
REMARK  status: ('A' for Active; 'I' for Inactive)
REMARK    1  A    between atoms: C_2  and  C_3
REMARK    2  A    between atoms: C_3  and  N_4
REMARK    3  A    between atoms: C_6  and  N_7
REMARK    4  A    between atoms: N_12  and  C_13
REMARK    5  A    between atoms: C_13  and  C_14
REMARK                            x       y       z     vdW  Elec       q    Type
REMARK                         _______ _______ _______ _____ _____    ______ ____
ROOT
ATOM      1  O   UNL     1       2.067   6.712  18.749  0.00  0.00    +0.000 OA
ATOM      2  C   UNL     1       2.961   6.149  18.120  0.00  0.00    +0.000 C 
ATOM      3  N   UNL     1       2.811   4.885  17.594  0.00  0.00    +0.000 N 
ATOM      4  H   UNL     1       3.590   4.406  17.155  0.00  0.00    +0.000 HD
ENDROOT
BRANCH   2   5
ATOM      5  C   UNL     1       4.290   6.811  17.831  0.00  0.00    +0.000 C 
BRANCH   5   6
ATOM      6  N   UNL     1       5.172   5.965  17.043  0.00  0.00    +0.000 N 
ATOM      7  C   UNL     1       5.460   6.076  15.710  0.00  0.00    +0.000 A 
ATOM      8  C   UNL     1       6.277   5.008  15.406  0.00  0.00    +0.000 A 
ATOM      9  C   UNL     1       6.393   4.289  16.608  0.00  0.00    +0.000 A 
ATOM     10  N   UNL     1       5.715   4.863  17.610  0.00  0.00    +0.000 NA
BRANCH   8  11
ATOM     11  N   UNL     1       6.863   4.699  14.141  0.00  0.00    +0.000 N 
ATOM     12  O   UNL     1       6.367   3.767  13.496  0.00  0.00    +0.000 OA
ATOM     13  O   UNL     1       7.825   5.394  13.791  0.00  0.00    +0.000 OA
ENDBRANCH   8  11
ENDBRANCH   5   6
ENDBRANCH   2   5
BRANCH   3  14
ATOM     14  C   UNL     1       1.589   4.103  17.748  0.00  0.00    +0.000 C 
BRANCH  14  15
ATOM     15  C   UNL     1       1.707   3.062  18.866  0.00  0.00    +0.000 C 
ATOM     16  C   UNL     1       0.969   3.424  20.145  0.00  0.00    +0.000 C 
ATOM     17  C   UNL     1       1.769   2.681  21.186  0.00  0.00    +0.000 C 
ATOM     18  C   UNL     1       3.182   2.797  20.656  0.00  0.00    +0.000 C 
ATOM     19  O   UNL     1       3.093   2.888  19.227  0.00  0.00    +0.000 OA
ENDBRANCH  14  15
ENDBRANCH   3  14
TORSDOF 5
ENDMDL
MODEL 5
REMARK VINA RESULT:      -6.3      1.890      2.402
REMARK  Name = 
REMARK  5 active torsions:
REMARK  status: ('A' for Active; 'I' for Inactive)
REMARK    1  A    between atoms: C_2  and  C_3
REMARK    2  A    between atoms: C_3  and  N_4
REMARK    3  A    between atoms: C_6  and  N_7
REMARK    4  A    between atoms: N_12  and  C_13
REMARK    5  A    between atoms: C_13  and  C_14
REMARK                            x       y       z     vdW  Elec       q    Type
REMARK                         _______ _______ _______ _____ _____    ______ ____
ROOT
ATOM      1  O   UNL     1       4.352   6.675  17.022  0.00  0.00    +0.000 OA
ATOM      2  C   UNL     1       4.808   5.591  17.380  0.00  0.00    +0.000 C 
ATOM      3  N   UNL     1       4.057   4.663  18.065  0.00  0.00    +0.000 N 
ATOM      4  H   UNL     1       4.478   3.813  18.426  0.00  0.00    +0.000 HD
ENDROOT
BRANCH   2   5
ATOM      5  C   UNL     1       6.224   5.163  17.063  0.00  0.00    +0.000 C 
BRANCH   5   6
ATOM      6  N   UNL     1       6.419   4.894  15.647  0.00  0.00    +0.000 N 
ATOM      7  C   UNL     1       5.683   4.063  14.848  0.00  0.00    +0.000 A 
ATOM      8  C   UNL     1       6.295   4.080  13.612  0.00  0.00    +0.000 A 
ATOM      9  C   UNL     1       7.412   4.917  13.775  0.00  0.00    +0.000 A 
ATOM     10  N   UNL     1       7.498   5.413  15.016  0.00  0.00    +0.000 NA
BRANCH   8  11
ATOM     11  N   UNL     1       5.886   3.386  12.434  0.00  0.00    +0.000 N 
ATOM     12  O   UNL     1       4.691   3.454  12.120  0.00  0.00    +0.000 OA
ATOM     13  O   UNL     1       6.765   2.770  11.818  0.00  0.00    +0.000 OA
ENDBRANCH   8  11
ENDBRANCH   5   6
ENDBRANCH   2   5
BRANCH   3  14
ATOM     14  C   UNL     1       2.664   4.889  18.435  0.00  0.00    +0.000 C 
BRANCH  14  15
ATOM     15  C   UNL     1       2.082   3.719  19.235  0.00  0.00    +0.000 C 
ATOM     16  C   UNL     1       1.131   4.128  20.349  0.00  0.00    +0.000 C 
ATOM     17  C   UNL     1       1.277   2.982  21.319  0.00  0.00    +0.000 C 
ATOM     18  C   UNL     1       2.744   2.633  21.193  0.00  0.00    +0.000 C 
ATOM     19  O   UNL     1       3.150   2.976  19.860  0.00  0.00    +0.000 OA
ENDBRANCH  14  15
ENDBRANCH   3  14
TORSDOF 5
ENDMDL
MODEL 6
REMARK VINA RESULT:      -6.3      2.454      6.460
REMARK  Name = 
REMARK  5 active torsions:
REMARK  status: ('A' for Active; 'I' for Inactive)
REMARK    1  A    between atoms: C_2  and  C_3
REMARK    2  A    between atoms: C_3  and  N_4
REMARK    3  A    between atoms: C_6  and  N_7
REMARK    4  A    between atoms: N_12  and  C_13
REMARK    5  A    between atoms: C_13  and  C_14
REMARK                            x       y       z     vdW  Elec       q    Type
REMARK                         _______ _______ _______ _____ _____    ______ ____
ROOT
ATOM      1  O   UNL     1       7.945   4.409  16.450  0.00  0.00    +0.000 OA
ATOM      2  C   UNL     1       6.968   5.142  16.317  0.00  0.00    +0.000 C 
ATOM      3  N   UNL     1       6.434   5.447  15.085  0.00  0.00    +0.000 N 
ATOM      4  H   UNL     1       5.683   6.122  14.993  0.00  0.00    +0.000 HD
ENDROOT
BRANCH   2   5
ATOM      5  C   UNL     1       6.237   5.741  17.499  0.00  0.00    +0.000 C 
BRANCH   5   6
ATOM      6  N   UNL     1       5.167   4.884  17.984  0.00  0.00    +0.000 N 
ATOM      7  C   UNL     1       3.857   4.884  17.589  0.00  0.00    +0.000 A 
ATOM      8  C   UNL     1       3.220   3.954  18.383  0.00  0.00    +0.000 A 
ATOM      9  C   UNL     1       4.217   3.476  19.250  0.00  0.00    +0.000 A 
ATOM     10  N   UNL     1       5.407   4.044  19.017  0.00  0.00    +0.000 NA
BRANCH   8  11
ATOM     11  N   UNL     1       1.844   3.574  18.337  0.00  0.00    +0.000 N 
ATOM     12  O   UNL     1       1.199   3.895  17.332  0.00  0.00    +0.000 OA
ATOM     13  O   UNL     1       1.407   2.950  19.312  0.00  0.00    +0.000 OA
ENDBRANCH   8  11
ENDBRANCH   5   6
ENDBRANCH   2   5
BRANCH   3  14
ATOM     14  C   UNL     1       6.988   4.939  13.835  0.00  0.00    +0.000 C 
BRANCH  14  15
ATOM     15  C   UNL     1       6.249   3.691  13.341  0.00  0.00    +0.000 C 
ATOM     16  C   UNL     1       6.820   3.081  12.070  0.00  0.00    +0.000 C 
ATOM     17  C   UNL     1       5.609   2.406  11.477  0.00  0.00    +0.000 C 
ATOM     18  C   UNL     1       4.493   3.363  11.837  0.00  0.00    +0.000 C 
ATOM     19  O   UNL     1       4.873   4.020  13.055  0.00  0.00    +0.000 OA
ENDBRANCH  14  15
ENDBRANCH   3  14
TORSDOF 5
ENDMDL
MODEL 7
REMARK VINA RESULT:      -6.2      2.316      6.599
REMARK  Name = 
REMARK  5 active torsions:
REMARK  status: ('A' for Active; 'I' for Inactive)
REMARK    1  A    between atoms: C_2  and  C_3
REMARK    2  A    between atoms: C_3  and  N_4
REMARK    3  A    between atoms: C_6  and  N_7
REMARK    4  A    between atoms: N_12  and  C_13
REMARK    5  A    between atoms: C_13  and  C_14
REMARK                            x       y       z     vdW  Elec       q    Type
REMARK                         _______ _______ _______ _____ _____    ______ ____
ROOT
ATOM      1  O   UNL     1       7.871   4.507  16.365  0.00  0.00    +0.000 OA
ATOM      2  C   UNL     1       6.875   5.202  16.169  0.00  0.00    +0.000 C 
ATOM      3  N   UNL     1       6.363   5.420  14.910  0.00  0.00    +0.000 N 
ATOM      4  H   UNL     1       5.594   6.066  14.764  0.00  0.00    +0.000 HD
ENDROOT
BRANCH   2   5
ATOM      5  C   UNL     1       6.100   5.844  17.299  0.00  0.00    +0.000 C 
BRANCH   5   6
ATOM      6  N   UNL     1       5.186   4.916  17.943  0.00  0.00    +0.000 N 
ATOM      7  C   UNL     1       5.361   4.264  19.134  0.00  0.00    +0.000 A 
ATOM      8  C   UNL     1       4.266   3.441  19.284  0.00  0.00    +0.000 A 
ATOM      9  C   UNL     1       3.507   3.635  18.117  0.00  0.00    +0.000 A 
ATOM     10  N   UNL     1       4.065   4.529  17.291  0.00  0.00    +0.000 NA
BRANCH   8  11
ATOM     11  N   UNL     1       3.979   2.574  20.381  0.00  0.00    +0.000 N 
ATOM     12  O   UNL     1       4.923   1.937  20.865  0.00  0.00    +0.000 OA
ATOM     13  O   UNL     1       2.802   2.532  20.763  0.00  0.00    +0.000 OA
ENDBRANCH   8  11
ENDBRANCH   5   6
ENDBRANCH   2   5
BRANCH   3  14
ATOM     14  C   UNL     1       6.960   4.859  13.703  0.00  0.00    +0.000 C 
BRANCH  14  15
ATOM     15  C   UNL     1       6.233   3.596  13.232  0.00  0.00    +0.000 C 
ATOM     16  C   UNL     1       6.817   2.962  11.979  0.00  0.00    +0.000 C 
ATOM     17  C   UNL     1       5.614   2.266  11.394  0.00  0.00    +0.000 C 
ATOM     18  C   UNL     1       4.489   3.222  11.725  0.00  0.00    +0.000 C 
ATOM     19  O   UNL     1       4.857   3.909  12.931  0.00  0.00    +0.000 OA
ENDBRANCH  14  15
ENDBRANCH   3  14
TORSDOF 5
ENDMDL
MODEL 8
REMARK VINA RESULT:      -6.2      2.245      6.620
REMARK  Name = 
REMARK  5 active torsions:
REMARK  status: ('A' for Active; 'I' for Inactive)
REMARK    1  A    between atoms: C_2  and  C_3
REMARK    2  A    between atoms: C_3  and  N_4
REMARK    3  A    between atoms: C_6  and  N_7
REMARK    4  A    between atoms: N_12  and  C_13
REMARK    5  A    between atoms: C_13  and  C_14
REMARK                            x       y       z     vdW  Elec       q    Type
REMARK                         _______ _______ _______ _____ _____    ______ ____
ROOT
ATOM      1  O   UNL     1       8.094   4.196  17.622  0.00  0.00    +0.000 OA
ATOM      2  C   UNL     1       6.951   4.647  17.630  0.00  0.00    +0.000 C 
ATOM      3  N   UNL     1       6.066   4.435  16.596  0.00  0.00    +0.000 N 
ATOM      4  H   UNL     1       5.158   4.888  16.583  0.00  0.00    +0.000 HD
ENDROOT
BRANCH   2   5
ATOM      5  C   UNL     1       6.399   5.440  18.794  0.00  0.00    +0.000 C 
BRANCH   5   6
ATOM      6  N   UNL     1       4.945   5.452  18.819  0.00  0.00    +0.000 N 
ATOM      7  C   UNL     1       4.116   4.571  19.458  0.00  0.00    +0.000 A 
ATOM      8  C   UNL     1       2.831   4.947  19.126  0.00  0.00    +0.000 A 
ATOM      9  C   UNL     1       2.989   6.036  18.253  0.00  0.00    +0.000 A 
ATOM     10  N   UNL     1       4.276   6.346  18.055  0.00  0.00    +0.000 NA
BRANCH   8  11
ATOM     11  N   UNL     1       1.613   4.347  19.567  0.00  0.00    +0.000 N 
ATOM     12  O   UNL     1       1.138   4.745  20.638  0.00  0.00    +0.000 OA
ATOM     13  O   UNL     1       1.128   3.473  18.838  0.00  0.00    +0.000 OA
ENDBRANCH   8  11
ENDBRANCH   5   6
ENDBRANCH   2   5
BRANCH   3  14
ATOM     14  C   UNL     1       6.411   3.671  15.402  0.00  0.00    +0.000 C 
BRANCH  14  15
ATOM     15  C   UNL     1       6.468   4.551  14.149  0.00  0.00    +0.000 C 
ATOM     16  C   UNL     1       6.559   3.782  12.841  0.00  0.00    +0.000 C 
ATOM     17  C   UNL     1       7.265   4.770  11.947  0.00  0.00    +0.000 C 
ATOM     18  C   UNL     1       8.229   5.442  12.901  0.00  0.00    +0.000 C 
ATOM     19  O   UNL     1       7.632   5.403  14.205  0.00  0.00    +0.000 OA
ENDBRANCH  14  15
ENDBRANCH   3  14
TORSDOF 5
ENDMDL
MODEL 9
REMARK VINA RESULT:      -6.2      1.258      1.485
REMARK  Name = 
REMARK  5 active torsions:
REMARK  status: ('A' for Active; 'I' for Inactive)
REMARK    1  A    between atoms: C_2  and  C_3
REMARK    2  A    between atoms: C_3  and  N_4
REMARK    3  A    between atoms: C_6  and  N_7
REMARK    4  A    between atoms: N_12  and  C_13
REMARK    5  A    between atoms: C_13  and  C_14
REMARK                            x       y       z     vdW  Elec       q    Type
REMARK                         _______ _______ _______ _____ _____    ______ ____
ROOT
ATOM      1  O   UNL     1       6.292   4.825  19.500  0.00  0.00    +0.000 OA
ATOM      2  C   UNL     1       5.487   4.726  18.577  0.00  0.00    +0.000 C 
ATOM      3  N   UNL     1       4.554   3.715  18.515  0.00  0.00    +0.000 N 
ATOM      4  H   UNL     1       3.958   3.603  17.702  0.00  0.00    +0.000 HD
ENDROOT
BRANCH   2   5
ATOM      5  C   UNL     1       5.421   5.730  17.447  0.00  0.00    +0.000 C 
BRANCH   5   6
ATOM      6  N   UNL     1       5.924   5.190  16.194  0.00  0.00    +0.000 N 
ATOM      7  C   UNL     1       6.832   5.761  15.345  0.00  0.00    +0.000 A 
ATOM      8  C   UNL     1       6.930   4.913  14.263  0.00  0.00    +0.000 A 
ATOM      9  C   UNL     1       6.015   3.880  14.531  0.00  0.00    +0.000 A 
ATOM     10  N   UNL     1       5.392   4.046  15.704  0.00  0.00    +0.000 NA
BRANCH   8  11
ATOM     11  N   UNL     1       7.769   5.064  13.118  0.00  0.00    +0.000 N 
ATOM     12  O   UNL     1       7.425   4.486  12.080  0.00  0.00    +0.000 OA
ATOM     13  O   UNL     1       8.779   5.765  13.259  0.00  0.00    +0.000 OA
ENDBRANCH   8  11
ENDBRANCH   5   6
ENDBRANCH   2   5
BRANCH   3  14
ATOM     14  C   UNL     1       4.449   2.671  19.529  0.00  0.00    +0.000 C 
BRANCH  14  15
ATOM     15  C   UNL     1       2.997   2.417  19.948  0.00  0.00    +0.000 C 
ATOM     16  C   UNL     1       2.006   3.459  19.454  0.00  0.00    +0.000 C 
ATOM     17  C   UNL     1       0.923   3.380  20.501  0.00  0.00    +0.000 C 
ATOM     18  C   UNL     1       1.712   3.120  21.767  0.00  0.00    +0.000 C 
ATOM     19  O   UNL     1       2.900   2.410  21.389  0.00  0.00    +0.000 OA
ENDBRANCH  14  15
ENDBRANCH   3  14
TORSDOF 5
ENDMDL
