MODEL 1
REMARK VINA RESULT:     -10.2      0.000      0.000
REMARK  Name = 
REMARK  6 active torsions:
REMARK  status: ('A' for Active; 'I' for Inactive)
REMARK    1  A    between atoms: N_3  and  C_4
REMARK    2  A    between atoms: C_4  and  C_5
REMARK    3  A    between atoms: C_5  and  C_6
REMARK    4  A    between atoms: C_6  and  N_7
REMARK    5  A    between atoms: C_13  and  N_14
REMARK    6  A    between atoms: C_25  and  C_26
REMARK                            x       y       z     vdW  Elec       q    Type
REMARK                         _______ _______ _______ _____ _____    ______ ____
ROOT
ATOM      1  N   UNL     1       3.011   5.451  19.852  0.00  0.00    +0.000 N 
ATOM      2  C   UNL     1       2.627   6.743  19.510  0.00  0.00    +0.000 A 
ATOM      3  C   UNL     1       3.015   7.299  18.351  0.00  0.00    +0.000 A 
ATOM      4  C   UNL     1       3.887   6.632  17.413  0.00  0.00    +0.000 A 
ATOM      5  C   UNL     1       4.182   7.182  16.162  0.00  0.00    +0.000 A 
ATOM      6  C   UNL     1       5.097   6.568  15.317  0.00  0.00    +0.000 A 
ATOM      7  C   UNL     1       5.755   5.412  15.744  0.00  0.00    +0.000 A 
ATOM      8  C   UNL     1       5.428   4.812  16.977  0.00  0.00    +0.000 A 
ATOM      9  C   UNL     1       4.463   5.415  17.802  0.00  0.00    +0.000 A 
ATOM     10  C   UNL     1       3.980   4.759  19.063  0.00  0.00    +0.000 A 
ATOM     11  O   UNL     1       4.407   3.639  19.335  0.00  0.00    +0.000 OA
ATOM     12  C   UNL     1       2.383   8.619  18.209  0.00  0.00    +0.000 C 
ATOM     13  O   UNL     1       2.504   9.425  17.313  0.00  0.00    +0.000 OA
ATOM     14  C   UNL     1       1.565   8.797  19.383  0.00  0.00    +0.000 A 
ATOM     15  C   UNL     1       0.741   9.877  19.643  0.00  0.00    +0.000 A 
ATOM     16  C   UNL     1       0.021   9.886  20.837  0.00  0.00    +0.000 A 
ATOM     17  C   UNL     1       0.243   8.807  21.729  0.00  0.00    +0.000 A 
ATOM     18  C   UNL     1       1.137   7.751  21.447  0.00  0.00    +0.000 A 
ATOM     19  C   UNL     1       1.759   7.701  20.216  0.00  0.00    +0.000 A 
ENDROOT
BRANCH  16  20
ATOM     20  C   UNL     1      -0.884  11.011  21.161  0.00  0.00    +0.000 A 
ATOM     21  C   UNL     1      -1.204  11.348  22.490  0.00  0.00    +0.000 A 
ATOM     22  C   UNL     1      -2.125  12.359  22.786  0.00  0.00    +0.000 A 
ATOM     23  C   UNL     1      -2.729  13.071  21.756  0.00  0.00    +0.000 A 
ATOM     24  C   UNL     1      -2.410  12.778  20.435  0.00  0.00    +0.000 A 
ATOM     25  C   UNL     1      -1.503  11.757  20.144  0.00  0.00    +0.000 A 
ENDBRANCH  16  20
BRANCH   7  26
ATOM     26  N   UNL     1       6.808   4.854  14.888  0.00  0.00    +0.000 N 
ATOM     27  O   UNL     1       7.852   5.505  14.756  0.00  0.00    +0.000 OA
ATOM     28  O   UNL     1       6.593   3.752  14.359  0.00  0.00    +0.000 OA
ENDBRANCH   7  26
BRANCH   1  29
ATOM     29  C   UNL     1       2.444   4.733  21.004  0.00  0.00    +0.000 C 
BRANCH  29  30
ATOM     30  C   UNL     1       1.153   3.940  20.733  0.00  0.00    +0.000 C 
BRANCH  30  31
ATOM     31  C   UNL     1       1.375   2.517  20.241  0.00  0.00    +0.000 C 
BRANCH  31  34
ATOM     32  N   UNL     1       1.201   3.938  17.273  0.00  0.00    +0.000 NA
ATOM     33  N   UNL     1       0.934   3.189  18.086  0.00  0.00    +0.000 NA
ATOM     34  N   UNL     1       0.641   2.370  18.976  0.00  0.00    +0.000 NA
ENDBRANCH  31  34
ENDBRANCH  30  31
ENDBRANCH  29  30
ENDBRANCH   1  29
TORSDOF 6
ENDMDL
MODEL 2
REMARK VINA RESULT:      -9.2      1.230      1.554
REMARK  Name = 
REMARK  6 active torsions:
REMARK  status: ('A' for Active; 'I' for Inactive)
REMARK    1  A    between atoms: N_3  and  C_4
REMARK    2  A    between atoms: C_4  and  C_5
REMARK    3  A    between atoms: C_5  and  C_6
REMARK    4  A    between atoms: C_6  and  N_7
REMARK    5  A    between atoms: C_13  and  N_14
REMARK    6  A    between atoms: C_25  and  C_26
REMARK                            x       y       z     vdW  Elec       q    Type
REMARK                         _______ _______ _______ _____ _____    ______ ____
ROOT
ATOM      1  N   UNL     1       2.946   5.595  19.818  0.00  0.00    +0.000 N 
ATOM      2  C   UNL     1       2.567   6.885  19.461  0.00  0.00    +0.000 A 
ATOM      3  C   UNL     1       2.966   7.430  18.301  0.00  0.00    +0.000 A 
ATOM      4  C   UNL     1       3.847   6.754  17.377  0.00  0.00    +0.000 A 
ATOM      5  C   UNL     1       4.154   7.292  16.124  0.00  0.00    +0.000 A 
ATOM      6  C   UNL     1       5.076   6.669  15.292  0.00  0.00    +0.000 A 
ATOM      7  C   UNL     1       5.728   5.517  15.736  0.00  0.00    +0.000 A 
ATOM      8  C   UNL     1       5.389   4.928  16.972  0.00  0.00    +0.000 A 
ATOM      9  C   UNL     1       4.417   5.539  17.782  0.00  0.00    +0.000 A 
ATOM     10  C   UNL     1       3.921   4.896  19.044  0.00  0.00    +0.000 A 
ATOM     11  O   UNL     1       4.345   3.777  19.330  0.00  0.00    +0.000 OA
ATOM     12  C   UNL     1       2.338   8.750  18.141  0.00  0.00    +0.000 C 
ATOM     13  O   UNL     1       2.468   9.547  17.239  0.00  0.00    +0.000 OA
ATOM     14  C   UNL     1       1.509   8.939  19.306  0.00  0.00    +0.000 A 
ATOM     15  C   UNL     1       0.684  10.022  19.548  0.00  0.00    +0.000 A 
ATOM     16  C   UNL     1      -0.047  10.043  20.735  0.00  0.00    +0.000 A 
ATOM     17  C   UNL     1       0.165   8.971  21.639  0.00  0.00    +0.000 A 
ATOM     18  C   UNL     1       1.059   7.912  21.375  0.00  0.00    +0.000 A 
ATOM     19  C   UNL     1       1.694   7.850  20.150  0.00  0.00    +0.000 A 
ENDROOT
BRANCH  16  20
ATOM     20  C   UNL     1      -0.955  11.172  21.041  0.00  0.00    +0.000 A 
ATOM     21  C   UNL     1      -1.258  11.544  22.365  0.00  0.00    +0.000 A 
ATOM     22  C   UNL     1      -2.180  12.558  22.645  0.00  0.00    +0.000 A 
ATOM     23  C   UNL     1      -2.802  13.237  21.604  0.00  0.00    +0.000 A 
ATOM     24  C   UNL     1      -2.500  12.910  20.288  0.00  0.00    +0.000 A 
ATOM     25  C   UNL     1      -1.592  11.886  20.012  0.00  0.00    +0.000 A 
ENDBRANCH  16  20
BRANCH   7  26
ATOM     26  N   UNL     1       6.788   4.950  14.895  0.00  0.00    +0.000 N 
ATOM     27  O   UNL     1       6.566   3.868  14.335  0.00  0.00    +0.000 OA
ATOM     28  O   UNL     1       7.840   5.598  14.782  0.00  0.00    +0.000 OA
ENDBRANCH   7  26
BRANCH   1  29
ATOM     29  C   UNL     1       2.367   4.888  20.970  0.00  0.00    +0.000 C 
BRANCH  29  30
ATOM     30  C   UNL     1       1.262   3.868  20.647  0.00  0.00    +0.000 C 
BRANCH  30  31
ATOM     31  C   UNL     1       1.620   2.423  20.964  0.00  0.00    +0.000 C 
BRANCH  31  34
ATOM     32  N   UNL     1       4.767   1.539  21.383  0.00  0.00    +0.000 NA
ATOM     33  N   UNL     1       3.758   1.972  21.681  0.00  0.00    +0.000 NA
ATOM     34  N   UNL     1       2.655   2.446  22.008  0.00  0.00    +0.000 NA
ENDBRANCH  31  34
ENDBRANCH  30  31
ENDBRANCH  29  30
ENDBRANCH   1  29
TORSDOF 6
ENDMDL
MODEL 3
REMARK VINA RESULT:      -9.0      1.783      2.160
REMARK  Name = 
REMARK  6 active torsions:
REMARK  status: ('A' for Active; 'I' for Inactive)
REMARK    1  A    between atoms: N_3  and  C_4
REMARK    2  A    between atoms: C_4  and  C_5
REMARK    3  A    between atoms: C_5  and  C_6
REMARK    4  A    between atoms: C_6  and  N_7
REMARK    5  A    between atoms: C_13  and  N_14
REMARK    6  A    between atoms: C_25  and  C_26
REMARK                            x       y       z     vdW  Elec       q    Type
REMARK                         _______ _______ _______ _____ _____    ______ ____
ROOT
ATOM      1  N   UNL     1       2.798   4.677  18.993  0.00  0.00    +0.000 N 
ATOM      2  C   UNL     1       2.624   6.056  18.969  0.00  0.00    +0.000 A 
ATOM      3  C   UNL     1       3.182   6.811  18.009  0.00  0.00    +0.000 A 
ATOM      4  C   UNL     1       4.036   6.266  16.979  0.00  0.00    +0.000 A 
ATOM      5  C   UNL     1       4.510   7.051  15.924  0.00  0.00    +0.000 A 
ATOM      6  C   UNL     1       5.404   6.528  14.999  0.00  0.00    +0.000 A 
ATOM      7  C   UNL     1       5.861   5.217  15.154  0.00  0.00    +0.000 A 
ATOM      8  C   UNL     1       5.350   4.394  16.177  0.00  0.00    +0.000 A 
ATOM      9  C   UNL     1       4.406   4.918  17.077  0.00  0.00    +0.000 A 
ATOM     10  C   UNL     1       3.731   4.058  18.106  0.00  0.00    +0.000 A 
ATOM     11  O   UNL     1       3.978   2.854  18.108  0.00  0.00    +0.000 OA
ATOM     12  C   UNL     1       2.749   8.207  18.173  0.00  0.00    +0.000 C 
ATOM     13  O   UNL     1       3.055   9.177  17.516  0.00  0.00    +0.000 OA
ATOM     14  C   UNL     1       1.863   8.217  19.310  0.00  0.00    +0.000 A 
ATOM     15  C   UNL     1       1.172   9.314  19.791  0.00  0.00    +0.000 A 
ATOM     16  C   UNL     1       0.359   9.144  20.911  0.00  0.00    +0.000 A 
ATOM     17  C   UNL     1       0.354   7.860  21.512  0.00  0.00    +0.000 A 
ATOM     18  C   UNL     1       1.119   6.780  21.019  0.00  0.00    +0.000 A 
ATOM     19  C   UNL     1       1.834   6.935  19.848  0.00  0.00    +0.000 A 
ENDROOT
BRANCH  16  20
ATOM     20  C   UNL     1      -0.412  10.281  21.461  0.00  0.00    +0.000 A 
ATOM     21  C   UNL     1      -0.820  10.319  22.809  0.00  0.00    +0.000 A 
ATOM     22  C   UNL     1      -1.619  11.357  23.301  0.00  0.00    +0.000 A 
ATOM     23  C   UNL     1      -2.008  12.392  22.459  0.00  0.00    +0.000 A 
ATOM     24  C   UNL     1      -1.596  12.394  21.131  0.00  0.00    +0.000 A 
ATOM     25  C   UNL     1      -0.813  11.348  20.639  0.00  0.00    +0.000 A 
ENDBRANCH  16  20
BRANCH   7  26
ATOM     26  N   UNL     1       6.900   4.729  14.239  0.00  0.00    +0.000 N 
ATOM     27  O   UNL     1       6.650   3.722  13.565  0.00  0.00    +0.000 OA
ATOM     28  O   UNL     1       7.962   5.368  14.186  0.00  0.00    +0.000 OA
ENDBRANCH   7  26
BRANCH   1  29
ATOM     29  C   UNL     1       2.042   3.796  19.895  0.00  0.00    +0.000 C 
BRANCH  29  30
ATOM     30  C   UNL     1       2.709   3.484  21.246  0.00  0.00    +0.000 C 
BRANCH  30  31
ATOM     31  C   UNL     1       3.267   2.073  21.366  0.00  0.00    +0.000 C 
BRANCH  31  34
ATOM     32  N   UNL     1       6.087   0.561  22.153  0.00  0.00    +0.000 NA
ATOM     33  N   UNL     1       5.423   1.313  21.616  0.00  0.00    +0.000 NA
ATOM     34  N   UNL     1       4.697   2.136  21.030  0.00  0.00    +0.000 NA
ENDBRANCH  31  34
ENDBRANCH  30  31
ENDBRANCH  29  30
ENDBRANCH   1  29
TORSDOF 6
ENDMDL
MODEL 4
REMARK VINA RESULT:      -8.3      1.394      1.862
REMARK  Name = 
REMARK  6 active torsions:
REMARK  status: ('A' for Active; 'I' for Inactive)
REMARK    1  A    between atoms: N_3  and  C_4
REMARK    2  A    between atoms: C_4  and  C_5
REMARK    3  A    between atoms: C_5  and  C_6
REMARK    4  A    between atoms: C_6  and  N_7
REMARK    5  A    between atoms: C_13  and  N_14
REMARK    6  A    between atoms: C_25  and  C_26
REMARK                            x       y       z     vdW  Elec       q    Type
REMARK                         _______ _______ _______ _____ _____    ______ ____
ROOT
ATOM      1  N   UNL     1       2.167   5.133  19.088  0.00  0.00    +0.000 N 
ATOM      2  C   UNL     1       2.154   6.523  19.061  0.00  0.00    +0.000 A 
ATOM      3  C   UNL     1       2.866   7.208  18.153  0.00  0.00    +0.000 A 
ATOM      4  C   UNL     1       3.727   6.568  17.186  0.00  0.00    +0.000 A 
ATOM      5  C   UNL     1       4.367   7.293  16.175  0.00  0.00    +0.000 A 
ATOM      6  C   UNL     1       5.263   6.671  15.316  0.00  0.00    +0.000 A 
ATOM      7  C   UNL     1       5.553   5.316  15.494  0.00  0.00    +0.000 A 
ATOM      8  C   UNL     1       4.875   4.557  16.470  0.00  0.00    +0.000 A 
ATOM      9  C   UNL     1       3.932   5.187  17.300  0.00  0.00    +0.000 A 
ATOM     10  C   UNL     1       3.088   4.411  18.268  0.00  0.00    +0.000 A 
ATOM     11  O   UNL     1       3.194   3.186  18.279  0.00  0.00    +0.000 OA
ATOM     12  C   UNL     1       2.585   8.644  18.295  0.00  0.00    +0.000 C 
ATOM     13  O   UNL     1       3.049   9.573  17.671  0.00  0.00    +0.000 OA
ATOM     14  C   UNL     1       1.622   8.757  19.362  0.00  0.00    +0.000 A 
ATOM     15  C   UNL     1       1.027   9.926  19.799  0.00  0.00    +0.000 A 
ATOM     16  C   UNL     1       0.117   9.851  20.853  0.00  0.00    +0.000 A 
ATOM     17  C   UNL     1      -0.080   8.576  21.441  0.00  0.00    +0.000 A 
ATOM     18  C   UNL     1       0.591   7.416  20.999  0.00  0.00    +0.000 A 
ATOM     19  C   UNL     1       1.406   7.487  19.887  0.00  0.00    +0.000 A 
ENDROOT
BRANCH  16  20
ATOM     20  C   UNL     1      -0.558  11.069  21.353  0.00  0.00    +0.000 A 
ATOM     21  C   UNL     1      -0.670  12.233  20.568  0.00  0.00    +0.000 A 
ATOM     22  C   UNL     1      -1.237  13.406  21.078  0.00  0.00    +0.000 A 
ATOM     23  C   UNL     1      -1.725  13.433  22.379  0.00  0.00    +0.000 A 
ATOM     24  C   UNL     1      -1.653  12.289  23.167  0.00  0.00    +0.000 A 
ATOM     25  C   UNL     1      -1.072  11.125  22.660  0.00  0.00    +0.000 A 
ENDBRANCH  16  20
BRANCH   7  26
ATOM     26  N   UNL     1       6.596   4.712  14.657  0.00  0.00    +0.000 N 
ATOM     27  O   UNL     1       6.324   3.658  14.065  0.00  0.00    +0.000 OA
ATOM     28  O   UNL     1       7.683   5.304  14.578  0.00  0.00    +0.000 OA
ENDBRANCH   7  26
BRANCH   1  29
ATOM     29  C   UNL     1       1.249   4.345  19.923  0.00  0.00    +0.000 C 
BRANCH  29  30
ATOM     30  C   UNL     1       1.782   3.938  21.308  0.00  0.00    +0.000 C 
BRANCH  30  31
ATOM     31  C   UNL     1       1.891   2.436  21.528  0.00  0.00    +0.000 C 
BRANCH  31  34
ATOM     32  N   UNL     1       4.975   1.926  20.487  0.00  0.00    +0.000 NA
ATOM     33  N   UNL     1       4.139   2.042  21.250  0.00  0.00    +0.000 NA
ATOM     34  N   UNL     1       3.225   2.168  22.084  0.00  0.00    +0.000 NA
ENDBRANCH  31  34
ENDBRANCH  30  31
ENDBRANCH  29  30
ENDBRANCH   1  29
TORSDOF 6
ENDMDL
MODEL 5
REMARK VINA RESULT:      -7.8      4.840      9.754
REMARK  Name = 
REMARK  6 active torsions:
REMARK  status: ('A' for Active; 'I' for Inactive)
REMARK    1  A    between atoms: N_3  and  C_4
REMARK    2  A    between atoms: C_4  and  C_5
REMARK    3  A    between atoms: C_5  and  C_6
REMARK    4  A    between atoms: C_6  and  N_7
REMARK    5  A    between atoms: C_13  and  N_14
REMARK    6  A    between atoms: C_25  and  C_26
REMARK                            x       y       z     vdW  Elec       q    Type
REMARK                         _______ _______ _______ _____ _____    ______ ____
ROOT
ATOM      1  N   UNL     1      -1.509  11.307  18.804  0.00  0.00    +0.000 N 
ATOM      2  C   UNL     1      -0.555  10.551  19.478  0.00  0.00    +0.000 A 
ATOM      3  C   UNL     1      -0.499  10.537  20.819  0.00  0.00    +0.000 A 
ATOM      4  C   UNL     1      -1.374  11.332  21.649  0.00  0.00    +0.000 A 
ATOM      5  C   UNL     1      -1.377  11.212  23.042  0.00  0.00    +0.000 A 
ATOM      6  C   UNL     1      -2.159  12.053  23.823  0.00  0.00    +0.000 A 
ATOM      7  C   UNL     1      -2.916  13.052  23.206  0.00  0.00    +0.000 A 
ATOM      8  C   UNL     1      -2.970  13.150  21.801  0.00  0.00    +0.000 A 
ATOM      9  C   UNL     1      -2.215  12.259  21.019  0.00  0.00    +0.000 A 
ATOM     10  C   UNL     1      -2.328  12.230  19.522  0.00  0.00    +0.000 A 
ATOM     11  O   UNL     1      -3.152  12.969  18.989  0.00  0.00    +0.000 OA
ATOM     12  C   UNL     1       0.530   9.582  21.254  0.00  0.00    +0.000 C 
ATOM     13  O   UNL     1       0.883   9.308  22.380  0.00  0.00    +0.000 OA
ATOM     14  C   UNL     1       1.076   9.009  20.048  0.00  0.00    +0.000 A 
ATOM     15  C   UNL     1       2.036   8.016  19.984  0.00  0.00    +0.000 A 
ATOM     16  C   UNL     1       2.455   7.583  18.726  0.00  0.00    +0.000 A 
ATOM     17  C   UNL     1       1.904   8.247  17.602  0.00  0.00    +0.000 A 
ATOM     18  C   UNL     1       0.966   9.296  17.715  0.00  0.00    +0.000 A 
ATOM     19  C   UNL     1       0.481   9.640  18.962  0.00  0.00    +0.000 A 
ENDROOT
BRANCH  16  20
ATOM     20  C   UNL     1       3.471   6.514  18.597  0.00  0.00    +0.000 A 
ATOM     21  C   UNL     1       3.575   5.470  19.536  0.00  0.00    +0.000 A 
ATOM     22  C   UNL     1       4.590   4.511  19.453  0.00  0.00    +0.000 A 
ATOM     23  C   UNL     1       5.510   4.563  18.413  0.00  0.00    +0.000 A 
ATOM     24  C   UNL     1       5.414   5.566  17.455  0.00  0.00    +0.000 A 
ATOM     25  C   UNL     1       4.409   6.532  17.552  0.00  0.00    +0.000 A 
ENDBRANCH  16  20
BRANCH   7  26
ATOM     26  N   UNL     1      -3.634  14.007  24.059  0.00  0.00    +0.000 N 
ATOM     27  O   UNL     1      -3.013  14.527  24.995  0.00  0.00    +0.000 OA
ATOM     28  O   UNL     1      -4.818  14.248  23.779  0.00  0.00    +0.000 OA
ENDBRANCH   7  26
BRANCH   1  29
ATOM     29  C   UNL     1      -1.736  11.190  17.356  0.00  0.00    +0.000 C 
BRANCH  29  30
ATOM     30  C   UNL     1      -2.761  10.128  16.920  0.00  0.00    +0.000 C 
BRANCH  30  31
ATOM     31  C   UNL     1      -3.688  10.566  15.796  0.00  0.00    +0.000 C 
BRANCH  31  34
ATOM     32  N   UNL     1      -4.107   9.855  12.606  0.00  0.00    +0.000 NA
ATOM     33  N   UNL     1      -3.537  10.182  13.534  0.00  0.00    +0.000 NA
ATOM     34  N   UNL     1      -2.911  10.539  14.549  0.00  0.00    +0.000 NA
ENDBRANCH  31  34
ENDBRANCH  30  31
ENDBRANCH  29  30
ENDBRANCH   1  29
TORSDOF 6
ENDMDL
MODEL 6
REMARK VINA RESULT:      -7.6      4.955      9.809
REMARK  Name = 
REMARK  6 active torsions:
REMARK  status: ('A' for Active; 'I' for Inactive)
REMARK    1  A    between atoms: N_3  and  C_4
REMARK    2  A    between atoms: C_4  and  C_5
REMARK    3  A    between atoms: C_5  and  C_6
REMARK    4  A    between atoms: C_6  and  N_7
REMARK    5  A    between atoms: C_13  and  N_14
REMARK    6  A    between atoms: C_25  and  C_26
REMARK                            x       y       z     vdW  Elec       q    Type
REMARK                         _______ _______ _______ _____ _____    ______ ____
ROOT
ATOM      1  N   UNL     1      -1.296  11.278  18.830  0.00  0.00    +0.000 N 
ATOM      2  C   UNL     1      -0.405  10.476  19.536  0.00  0.00    +0.000 A 
ATOM      3  C   UNL     1      -0.402  10.454  20.878  0.00  0.00    +0.000 A 
ATOM      4  C   UNL     1      -1.270  11.287  21.678  0.00  0.00    +0.000 A 
ATOM      5  C   UNL     1      -1.332  11.162  23.070  0.00  0.00    +0.000 A 
ATOM      6  C   UNL     1      -2.103  12.036  23.825  0.00  0.00    +0.000 A 
ATOM      7  C   UNL     1      -2.789  13.071  23.185  0.00  0.00    +0.000 A 
ATOM      8  C   UNL     1      -2.784  13.177  21.779  0.00  0.00    +0.000 A 
ATOM      9  C   UNL     1      -2.041  12.255  21.022  0.00  0.00    +0.000 A 
ATOM     10  C   UNL     1      -2.098  12.236  19.522  0.00  0.00    +0.000 A 
ATOM     11  O   UNL     1      -2.866  13.015  18.961  0.00  0.00    +0.000 OA
ATOM     12  C   UNL     1       0.565   9.451  21.347  0.00  0.00    +0.000 C 
ATOM     13  O   UNL     1       0.861   9.157  22.484  0.00  0.00    +0.000 OA
ATOM     14  C   UNL     1       1.129   8.858  20.160  0.00  0.00    +0.000 A 
ATOM     15  C   UNL     1       2.044   7.821  20.126  0.00  0.00    +0.000 A 
ATOM     16  C   UNL     1       2.490   7.373  18.884  0.00  0.00    +0.000 A 
ATOM     17  C   UNL     1       2.014   8.067  17.743  0.00  0.00    +0.000 A 
ATOM     18  C   UNL     1       1.122   9.157  17.826  0.00  0.00    +0.000 A 
ATOM     19  C   UNL     1       0.606   9.519  19.055  0.00  0.00    +0.000 A 
ENDROOT
BRANCH  16  20
ATOM     20  C   UNL     1       3.459   6.258  18.788  0.00  0.00    +0.000 A 
ATOM     21  C   UNL     1       4.469   6.234  17.808  0.00  0.00    +0.000 A 
ATOM     22  C   UNL     1       5.329   5.139  17.671  0.00  0.00    +0.000 A 
ATOM     23  C   UNL     1       5.210   4.053  18.531  0.00  0.00    +0.000 A 
ATOM     24  C   UNL     1       4.240   4.063  19.527  0.00  0.00    +0.000 A 
ATOM     25  C   UNL     1       3.373   5.151  19.649  0.00  0.00    +0.000 A 
ENDBRANCH  16  20
BRANCH   7  26
ATOM     26  N   UNL     1      -3.493  14.056  24.014  0.00  0.00    +0.000 N 
ATOM     27  O   UNL     1      -4.729  14.005  24.049  0.00  0.00    +0.000 OA
ATOM     28  O   UNL     1      -2.803  14.872  24.645  0.00  0.00    +0.000 OA
ENDBRANCH   7  26
BRANCH   1  29
ATOM     29  C   UNL     1      -1.474  11.177  17.374  0.00  0.00    +0.000 C 
BRANCH  29  30
ATOM     30  C   UNL     1      -2.327   9.996  16.881  0.00  0.00    +0.000 C 
BRANCH  30  31
ATOM     31  C   UNL     1      -3.279  10.333  15.742  0.00  0.00    +0.000 C 
BRANCH  31  34
ATOM     32  N   UNL     1      -5.710  11.104  17.829  0.00  0.00    +0.000 NA
ATOM     33  N   UNL     1      -4.922  11.295  17.031  0.00  0.00    +0.000 NA
ATOM     34  N   UNL     1      -4.062  11.506  16.157  0.00  0.00    +0.000 NA
ENDBRANCH  31  34
ENDBRANCH  30  31
ENDBRANCH  29  30
ENDBRANCH   1  29
TORSDOF 6
ENDMDL
MODEL 7
REMARK VINA RESULT:      -7.6      5.716     10.606
REMARK  Name = 
REMARK  6 active torsions:
REMARK  status: ('A' for Active; 'I' for Inactive)
REMARK    1  A    between atoms: N_3  and  C_4
REMARK    2  A    between atoms: C_4  and  C_5
REMARK    3  A    between atoms: C_5  and  C_6
REMARK    4  A    between atoms: C_6  and  N_7
REMARK    5  A    between atoms: C_13  and  N_14
REMARK    6  A    between atoms: C_25  and  C_26
REMARK                            x       y       z     vdW  Elec       q    Type
REMARK                         _______ _______ _______ _____ _____    ______ ____
ROOT
ATOM      1  N   UNL     1      -3.293  12.245  19.438  0.00  0.00    +0.000 N 
ATOM      2  C   UNL     1      -2.105  11.743  19.957  0.00  0.00    +0.000 A 
ATOM      3  C   UNL     1      -1.726  12.014  21.215  0.00  0.00    +0.000 A 
ATOM      4  C   UNL     1      -2.482  12.877  22.094  0.00  0.00    +0.000 A 
ATOM      5  C   UNL     1      -2.130  13.051  23.436  0.00  0.00    +0.000 A 
ATOM      6  C   UNL     1      -2.816  13.957  24.235  0.00  0.00    +0.000 A 
ATOM      7  C   UNL     1      -3.838  14.727  23.675  0.00  0.00    +0.000 A 
ATOM      8  C   UNL     1      -4.243  14.524  22.340  0.00  0.00    +0.000 A 
ATOM      9  C   UNL     1      -3.576  13.567  21.556  0.00  0.00    +0.000 A 
ATOM     10  C   UNL     1      -4.041  13.214  20.173  0.00  0.00    +0.000 A 
ATOM     11  O   UNL     1      -5.070  13.743  19.755  0.00  0.00    +0.000 OA
ATOM     12  C   UNL     1      -0.492  11.276  21.524  0.00  0.00    +0.000 C 
ATOM     13  O   UNL     1       0.158  11.279  22.546  0.00  0.00    +0.000 OA
ATOM     14  C   UNL     1      -0.176  10.520  20.338  0.00  0.00    +0.000 A 
ATOM     15  C   UNL     1       0.876   9.632  20.197  0.00  0.00    +0.000 A 
ATOM     16  C   UNL     1       1.038   8.988  18.971  0.00  0.00    +0.000 A 
ATOM     17  C   UNL     1       0.140   9.347  17.934  0.00  0.00    +0.000 A 
ATOM     18  C   UNL     1      -0.887  10.300  18.105  0.00  0.00    +0.000 A 
ATOM     19  C   UNL     1      -1.101  10.849  19.354  0.00  0.00    +0.000 A 
ENDROOT
BRANCH  16  20
ATOM     20  C   UNL     1       2.139   8.020  18.768  0.00  0.00    +0.000 A 
ATOM     21  C   UNL     1       3.023   8.118  17.677  0.00  0.00    +0.000 A 
ATOM     22  C   UNL     1       4.009   7.152  17.447  0.00  0.00    +0.000 A 
ATOM     23  C   UNL     1       4.145   6.078  18.319  0.00  0.00    +0.000 A 
ATOM     24  C   UNL     1       3.304   5.972  19.421  0.00  0.00    +0.000 A 
ATOM     25  C   UNL     1       2.310   6.929  19.638  0.00  0.00    +0.000 A 
ENDBRANCH  16  20
BRANCH   7  26
ATOM     26  N   UNL     1      -4.461  15.765  24.504  0.00  0.00    +0.000 N 
ATOM     27  O   UNL     1      -3.761  16.317  25.363  0.00  0.00    +0.000 OA
ATOM     28  O   UNL     1      -5.650  16.039  24.282  0.00  0.00    +0.000 OA
ENDBRANCH   7  26
BRANCH   1  29
ATOM     29  C   UNL     1      -3.844  11.807  18.147  0.00  0.00    +0.000 C 
BRANCH  29  30
ATOM     30  C   UNL     1      -4.758  10.570  18.191  0.00  0.00    +0.000 C 
BRANCH  30  31
ATOM     31  C   UNL     1      -6.247  10.883  18.234  0.00  0.00    +0.000 C 
BRANCH  31  34
ATOM     32  N   UNL     1      -7.438   8.551  20.233  0.00  0.00    +0.000 NA
ATOM     33  N   UNL     1      -7.080   9.591  19.943  0.00  0.00    +0.000 NA
ATOM     34  N   UNL     1      -6.689  10.729  19.627  0.00  0.00    +0.000 NA
ENDBRANCH  31  34
ENDBRANCH  30  31
ENDBRANCH  29  30
ENDBRANCH   1  29
TORSDOF 6
ENDMDL
MODEL 8
REMARK VINA RESULT:      -7.5      5.144      9.907
REMARK  Name = 
REMARK  6 active torsions:
REMARK  status: ('A' for Active; 'I' for Inactive)
REMARK    1  A    between atoms: N_3  and  C_4
REMARK    2  A    between atoms: C_4  and  C_5
REMARK    3  A    between atoms: C_5  and  C_6
REMARK    4  A    between atoms: C_6  and  N_7
REMARK    5  A    between atoms: C_13  and  N_14
REMARK    6  A    between atoms: C_25  and  C_26
REMARK                            x       y       z     vdW  Elec       q    Type
REMARK                         _______ _______ _______ _____ _____    ______ ____
ROOT
ATOM      1  N   UNL     1      -1.350  11.379  18.839  0.00  0.00    +0.000 N 
ATOM      2  C   UNL     1      -0.463  10.561  19.530  0.00  0.00    +0.000 A 
ATOM      3  C   UNL     1      -0.465  10.510  20.872  0.00  0.00    +0.000 A 
ATOM      4  C   UNL     1      -1.336  11.325  21.687  0.00  0.00    +0.000 A 
ATOM      5  C   UNL     1      -1.404  11.170  23.075  0.00  0.00    +0.000 A 
ATOM      6  C   UNL     1      -2.179  12.027  23.846  0.00  0.00    +0.000 A 
ATOM      7  C   UNL     1      -2.861  13.077  23.226  0.00  0.00    +0.000 A 
ATOM      8  C   UNL     1      -2.850  13.213  21.823  0.00  0.00    +0.000 A 
ATOM      9  C   UNL     1      -2.105  12.308  21.048  0.00  0.00    +0.000 A 
ATOM     10  C   UNL     1      -2.155  12.322  19.548  0.00  0.00    +0.000 A 
ATOM     11  O   UNL     1      -2.920  13.113  19.001  0.00  0.00    +0.000 OA
ATOM     12  C   UNL     1       0.499   9.496  21.323  0.00  0.00    +0.000 C 
ATOM     13  O   UNL     1       0.790   9.177  22.455  0.00  0.00    +0.000 OA
ATOM     14  C   UNL     1       1.068   8.929  20.126  0.00  0.00    +0.000 A 
ATOM     15  C   UNL     1       1.982   7.892  20.073  0.00  0.00    +0.000 A 
ATOM     16  C   UNL     1       2.433   7.471  18.823  0.00  0.00    +0.000 A 
ATOM     17  C   UNL     1       1.962   8.190  17.695  0.00  0.00    +0.000 A 
ATOM     18  C   UNL     1       1.071   9.279  17.799  0.00  0.00    +0.000 A 
ATOM     19  C   UNL     1       0.550   9.615  19.033  0.00  0.00    +0.000 A 
ENDROOT
BRANCH  16  20
ATOM     20  C   UNL     1       3.402   6.359  18.707  0.00  0.00    +0.000 A 
ATOM     21  C   UNL     1       3.298   5.197  19.496  0.00  0.00    +0.000 A 
ATOM     22  C   UNL     1       4.264   4.187  19.439  0.00  0.00    +0.000 A 
ATOM     23  C   UNL     1       5.345   4.308  18.573  0.00  0.00    +0.000 A 
ATOM     24  C   UNL     1       5.458   5.431  17.762  0.00  0.00    +0.000 A 
ATOM     25  C   UNL     1       4.500   6.445  17.834  0.00  0.00    +0.000 A 
ENDBRANCH  16  20
BRANCH   7  26
ATOM     26  N   UNL     1      -3.568  14.043  24.074  0.00  0.00    +0.000 N 
ATOM     27  O   UNL     1      -3.100  14.281  25.195  0.00  0.00    +0.000 OA
ATOM     28  O   UNL     1      -4.586  14.578  23.607  0.00  0.00    +0.000 OA
ENDBRANCH   7  26
BRANCH   1  29
ATOM     29  C   UNL     1      -1.522  11.310  17.380  0.00  0.00    +0.000 C 
BRANCH  29  30
ATOM     30  C   UNL     1      -2.576  10.312  16.873  0.00  0.00    +0.000 C 
BRANCH  30  31
ATOM     31  C   UNL     1      -3.773  10.950  16.182  0.00  0.00    +0.000 C 
BRANCH  31  34
ATOM     32  N   UNL     1      -6.250  12.994  16.920  0.00  0.00    +0.000 NA
ATOM     33  N   UNL     1      -5.574  12.087  17.047  0.00  0.00    +0.000 NA
ATOM     34  N   UNL     1      -4.835  11.096  17.187  0.00  0.00    +0.000 NA
ENDBRANCH  31  34
ENDBRANCH  30  31
ENDBRANCH  29  30
ENDBRANCH   1  29
TORSDOF 6
ENDMDL
MODEL 9
REMARK VINA RESULT:      -7.4      5.067      9.907
REMARK  Name = 
REMARK  6 active torsions:
REMARK  status: ('A' for Active; 'I' for Inactive)
REMARK    1  A    between atoms: N_3  and  C_4
REMARK    2  A    between atoms: C_4  and  C_5
REMARK    3  A    between atoms: C_5  and  C_6
REMARK    4  A    between atoms: C_6  and  N_7
REMARK    5  A    between atoms: C_13  and  N_14
REMARK    6  A    between atoms: C_25  and  C_26
REMARK                            x       y       z     vdW  Elec       q    Type
REMARK                         _______ _______ _______ _____ _____    ______ ____
ROOT
ATOM      1  N   UNL     1      -0.867  12.163  19.523  0.00  0.00    +0.000 N 
ATOM      2  C   UNL     1      -0.407  11.109  20.305  0.00  0.00    +0.000 A 
ATOM      3  C   UNL     1      -0.784  10.978  21.587  0.00  0.00    +0.000 A 
ATOM      4  C   UNL     1      -1.636  11.933  22.255  0.00  0.00    +0.000 A 
ATOM      5  C   UNL     1      -2.110  11.716  23.553  0.00  0.00    +0.000 A 
ATOM      6  C   UNL     1      -2.851  12.691  24.209  0.00  0.00    +0.000 A 
ATOM      7  C   UNL     1      -3.086  13.913  23.575  0.00  0.00    +0.000 A 
ATOM      8  C   UNL     1      -2.665  14.128  22.247  0.00  0.00    +0.000 A 
ATOM      9  C   UNL     1      -1.962  13.114  21.575  0.00  0.00    +0.000 A 
ATOM     10  C   UNL     1      -1.600  13.232  20.123  0.00  0.00    +0.000 A 
ATOM     11  O   UNL     1      -1.990  14.221  19.506  0.00  0.00    +0.000 OA
ATOM     12  C   UNL     1      -0.231   9.730  22.132  0.00  0.00    +0.000 C 
ATOM     13  O   UNL     1      -0.337   9.280  23.252  0.00  0.00    +0.000 OA
ATOM     14  C   UNL     1       0.498   9.113  21.052  0.00  0.00    +0.000 A 
ATOM     15  C   UNL     1       1.135   7.886  21.099  0.00  0.00    +0.000 A 
ATOM     16  C   UNL     1       1.801   7.443  19.957  0.00  0.00    +0.000 A 
ATOM     17  C   UNL     1       1.827   8.324  18.847  0.00  0.00    +0.000 A 
ATOM     18  C   UNL     1       1.209   9.593  18.861  0.00  0.00    +0.000 A 
ATOM     19  C   UNL     1       0.463   9.972  19.960  0.00  0.00    +0.000 A 
ENDROOT
BRANCH  16  20
ATOM     20  C   UNL     1       2.489   6.133  19.947  0.00  0.00    +0.000 A 
ATOM     21  C   UNL     1       3.636   5.902  19.163  0.00  0.00    +0.000 A 
ATOM     22  C   UNL     1       4.232   4.638  19.095  0.00  0.00    +0.000 A 
ATOM     23  C   UNL     1       3.706   3.582  19.831  0.00  0.00    +0.000 A 
ATOM     24  C   UNL     1       2.591   3.789  20.636  0.00  0.00    +0.000 A 
ATOM     25  C   UNL     1       1.989   5.048  20.688  0.00  0.00    +0.000 A 
ENDBRANCH  16  20
BRANCH   7  26
ATOM     26  N   UNL     1      -3.760  14.972  24.335  0.00  0.00    +0.000 N 
ATOM     27  O   UNL     1      -3.230  15.358  25.385  0.00  0.00    +0.000 OA
ATOM     28  O   UNL     1      -4.815  15.430  23.869  0.00  0.00    +0.000 OA
ENDBRANCH   7  26
BRANCH   1  29
ATOM     29  C   UNL     1      -0.648  12.229  18.070  0.00  0.00    +0.000 C 
BRANCH  29  30
ATOM     30  C   UNL     1      -1.808  11.727  17.192  0.00  0.00    +0.000 C 
BRANCH  30  31
ATOM     31  C   UNL     1      -1.934  10.212  17.114  0.00  0.00    +0.000 C 
BRANCH  31  34
ATOM     32  N   UNL     1      -2.750  10.007  13.928  0.00  0.00    +0.000 NA
ATOM     33  N   UNL     1      -2.921   9.961  15.052  0.00  0.00    +0.000 NA
ATOM     34  N   UNL     1      -3.108   9.912  16.281  0.00  0.00    +0.000 NA
ENDBRANCH  31  34
ENDBRANCH  30  31
ENDBRANCH  29  30
ENDBRANCH   1  29
TORSDOF 6
ENDMDL
