MODEL 1
REMARK VINA RESULT:      -8.9      0.000      0.000
REMARK  Name = 
REMARK  3 active torsions:
REMARK  status: ('A' for Active; 'I' for Inactive)
REMARK    1  A    between atoms: N_5  and  C_6
REMARK    2  A    between atoms: N_16  and  S_17
REMARK    3  A    between atoms: S_17  and  C_20
REMARK                            x       y       z     vdW  Elec       q    Type
REMARK                         _______ _______ _______ _____ _____    ______ ____
ROOT
ATOM      1  O   UNL     1       5.205   2.493  19.871  0.00  0.00    +0.000 OA
ATOM      2  C   UNL     1       4.223   3.206  19.744  0.00  0.00    +0.000 C 
ATOM      3  N   UNL     1       3.027   2.966  20.366  0.00  0.00    +0.000 N 
ATOM      4  C   UNL     1       1.992   3.854  19.981  0.00  0.00    +0.000 C 
ATOM      5  N   UNL     1       2.673   4.912  19.241  0.00  0.00    +0.000 N 
ATOM      6  C   UNL     1       4.062   4.469  18.866  0.00  0.00    +0.000 C 
ATOM      7  C   UNL     1       5.199   5.417  19.243  0.00  0.00    +0.000 C 
ATOM      8  C   UNL     1       5.498   6.471  18.191  0.00  0.00    +0.000 C 
ATOM      9  N   UNL     1       5.602   5.905  16.827  0.00  0.00    +0.000 NA
ATOM     10  C   UNL     1       4.475   5.051  16.407  0.00  0.00    +0.000 C 
ATOM     11  C   UNL     1       4.156   3.972  17.422  0.00  0.00    +0.000 C 
ATOM     12  H   UNL     1       2.904   2.149  20.945  0.00  0.00    +0.000 HD
ENDROOT
BRANCH   5  13
ATOM     13  C   UNL     1       2.230   6.216  19.368  0.00  0.00    +0.000 A 
ATOM     14  C   UNL     1       2.219   7.124  18.294  0.00  0.00    +0.000 A 
ATOM     15  C   UNL     1       1.823   8.462  18.450  0.00  0.00    +0.000 A 
ATOM     16  C   UNL     1       1.396   8.911  19.686  0.00  0.00    +0.000 A 
ATOM     17  F   UNL     1       1.010  10.185  19.839  0.00  0.00    +0.000 F 
ATOM     18  C   UNL     1       1.378   8.054  20.767  0.00  0.00    +0.000 A 
ATOM     19  C   UNL     1       1.814   6.734  20.602  0.00  0.00    +0.000 A 
ENDBRANCH   5  13
BRANCH   9  20
ATOM     20  S   UNL     1       7.140   5.436  16.285  0.00  0.00    +0.000 S 
ATOM     21  O   UNL     1       7.962   6.624  16.207  0.00  0.00    +0.000 OA
ATOM     22  O   UNL     1       7.566   4.269  17.024  0.00  0.00    +0.000 OA
BRANCH  20  23
ATOM     23  C   UNL     1       6.986   4.885  14.603  0.00  0.00    +0.000 A 
ATOM     24  C   UNL     1       7.609   5.288  13.436  0.00  0.00    +0.000 A 
ATOM     25  C   UNL     1       7.202   4.514  12.311  0.00  0.00    +0.000 A 
ATOM     26  C   UNL     1       6.281   3.566  12.675  0.00  0.00    +0.000 A 
ATOM     27 CL   UNL     1       5.547   2.405  11.645  0.00  0.00    +0.000 Cl
ATOM     28  S   UNL     1       5.880   3.606  14.318  0.00  0.00    +0.000 S 
ENDBRANCH  20  23
ENDBRANCH   9  20
TORSDOF 3
ENDMDL
MODEL 2
REMARK VINA RESULT:      -8.2      0.851      1.355
REMARK  Name = 
REMARK  3 active torsions:
REMARK  status: ('A' for Active; 'I' for Inactive)
REMARK    1  A    between atoms: N_5  and  C_6
REMARK    2  A    between atoms: N_16  and  S_17
REMARK    3  A    between atoms: S_17  and  C_20
REMARK                            x       y       z     vdW  Elec       q    Type
REMARK                         _______ _______ _______ _____ _____    ______ ____
ROOT
ATOM      1  O   UNL     1       4.973   2.369  19.931  0.00  0.00    +0.000 OA
ATOM      2  C   UNL     1       4.028   3.136  19.842  0.00  0.00    +0.000 C 
ATOM      3  N   UNL     1       2.828   2.935  20.469  0.00  0.00    +0.000 N 
ATOM      4  C   UNL     1       1.838   3.889  20.129  0.00  0.00    +0.000 C 
ATOM      5  N   UNL     1       2.565   4.938  19.421  0.00  0.00    +0.000 N 
ATOM      6  C   UNL     1       3.925   4.438  19.013  0.00  0.00    +0.000 C 
ATOM      7  C   UNL     1       5.114   5.311  19.411  0.00  0.00    +0.000 C 
ATOM      8  C   UNL     1       5.457   6.387  18.395  0.00  0.00    +0.000 C 
ATOM      9  N   UNL     1       5.518   5.867  17.010  0.00  0.00    +0.000 NA
ATOM     10  C   UNL     1       4.343   5.090  16.573  0.00  0.00    +0.000 C 
ATOM     11  C   UNL     1       3.978   3.991  17.551  0.00  0.00    +0.000 C 
ATOM     12  H   UNL     1       2.669   2.104  21.019  0.00  0.00    +0.000 HD
ENDROOT
BRANCH   5  13
ATOM     13  C   UNL     1       2.192   6.257  19.601  0.00  0.00    +0.000 A 
ATOM     14  C   UNL     1       1.695   6.748  20.822  0.00  0.00    +0.000 A 
ATOM     15  C   UNL     1       1.262   8.075  20.973  0.00  0.00    +0.000 A 
ATOM     16  C   UNL     1       1.351   8.952  19.908  0.00  0.00    +0.000 A 
ATOM     17  F   UNL     1       0.947  10.221  20.049  0.00  0.00    +0.000 F 
ATOM     18  C   UNL     1       1.843   8.519  18.694  0.00  0.00    +0.000 A 
ATOM     19  C   UNL     1       2.232   7.182  18.549  0.00  0.00    +0.000 A 
ENDBRANCH   5  13
BRANCH   9  20
ATOM     20  S   UNL     1       7.023   5.340  16.433  0.00  0.00    +0.000 S 
ATOM     21  O   UNL     1       7.847   6.509  16.214  0.00  0.00    +0.000 OA
ATOM     22  O   UNL     1       7.481   4.235  17.245  0.00  0.00    +0.000 OA
BRANCH  20  23
ATOM     23  C   UNL     1       6.781   4.651  14.814  0.00  0.00    +0.000 A 
ATOM     24  C   UNL     1       5.965   3.634  14.353  0.00  0.00    +0.000 A 
ATOM     25  C   UNL     1       6.067   3.457  12.942  0.00  0.00    +0.000 A 
ATOM     26  C   UNL     1       6.964   4.339  12.400  0.00  0.00    +0.000 A 
ATOM     27 CL   UNL     1       7.375   4.490  10.740  0.00  0.00    +0.000 Cl
ATOM     28  S   UNL     1       7.699   5.348  13.544  0.00  0.00    +0.000 S 
ENDBRANCH  20  23
ENDBRANCH   9  20
TORSDOF 3
ENDMDL
MODEL 3
REMARK VINA RESULT:      -7.4      1.012      1.083
REMARK  Name = 
REMARK  3 active torsions:
REMARK  status: ('A' for Active; 'I' for Inactive)
REMARK    1  A    between atoms: N_5  and  C_6
REMARK    2  A    between atoms: N_16  and  S_17
REMARK    3  A    between atoms: S_17  and  C_20
REMARK                            x       y       z     vdW  Elec       q    Type
REMARK                         _______ _______ _______ _____ _____    ______ ____
ROOT
ATOM      1  O   UNL     1       4.122   1.701  18.040  0.00  0.00    +0.000 OA
ATOM      2  C   UNL     1       3.310   2.600  18.189  0.00  0.00    +0.000 C 
ATOM      3  N   UNL     1       1.990   2.388  18.486  0.00  0.00    +0.000 N 
ATOM      4  C   UNL     1       1.207   3.568  18.493  0.00  0.00    +0.000 C 
ATOM      5  N   UNL     1       2.181   4.655  18.451  0.00  0.00    +0.000 N 
ATOM      6  C   UNL     1       3.530   4.125  18.046  0.00  0.00    +0.000 C 
ATOM      7  C   UNL     1       4.701   4.489  18.957  0.00  0.00    +0.000 C 
ATOM      8  C   UNL     1       5.369   5.807  18.606  0.00  0.00    +0.000 C 
ATOM      9  N   UNL     1       5.658   5.936  17.160  0.00  0.00    +0.000 NA
ATOM     10  C   UNL     1       4.519   5.669  16.260  0.00  0.00    +0.000 C 
ATOM     11  C   UNL     1       3.836   4.351  16.564  0.00  0.00    +0.000 C 
ATOM     12  H   UNL     1       1.626   1.450  18.565  0.00  0.00    +0.000 HD
ENDROOT
BRANCH   5  13
ATOM     13  C   UNL     1       1.931   5.812  19.166  0.00  0.00    +0.000 A 
ATOM     14  C   UNL     1       2.084   7.096  18.613  0.00  0.00    +0.000 A 
ATOM     15  C   UNL     1       1.885   8.263  19.367  0.00  0.00    +0.000 A 
ATOM     16  C   UNL     1       1.495   8.167  20.690  0.00  0.00    +0.000 A 
ATOM     17  F   UNL     1       1.297   9.278  21.413  0.00  0.00    +0.000 F 
ATOM     18  C   UNL     1       1.320   6.929  21.273  0.00  0.00    +0.000 A 
ATOM     19  C   UNL     1       1.562   5.776  20.517  0.00  0.00    +0.000 A 
ENDBRANCH   5  13
BRANCH   9  20
ATOM     20  S   UNL     1       7.180   5.425  16.613  0.00  0.00    +0.000 S 
ATOM     21  O   UNL     1       8.053   6.579  16.596  0.00  0.00    +0.000 OA
ATOM     22  O   UNL     1       7.547   4.209  17.302  0.00  0.00    +0.000 OA
BRANCH  20  23
ATOM     23  C   UNL     1       7.023   4.957  14.906  0.00  0.00    +0.000 A 
ATOM     24  C   UNL     1       7.572   5.478  13.749  0.00  0.00    +0.000 A 
ATOM     25  C   UNL     1       7.200   4.734  12.591  0.00  0.00    +0.000 A 
ATOM     26  C   UNL     1       6.377   3.689  12.923  0.00  0.00    +0.000 A 
ATOM     27 CL   UNL     1       5.715   2.527  11.847  0.00  0.00    +0.000 Cl
ATOM     28  S   UNL     1       6.025   3.602  14.576  0.00  0.00    +0.000 S 
ENDBRANCH  20  23
ENDBRANCH   9  20
TORSDOF 3
ENDMDL
MODEL 4
REMARK VINA RESULT:      -7.2      8.414     10.285
REMARK  Name = 
REMARK  3 active torsions:
REMARK  status: ('A' for Active; 'I' for Inactive)
REMARK    1  A    between atoms: N_5  and  C_6
REMARK    2  A    between atoms: N_16  and  S_17
REMARK    3  A    between atoms: S_17  and  C_20
REMARK                            x       y       z     vdW  Elec       q    Type
REMARK                         _______ _______ _______ _____ _____    ______ ____
ROOT
ATOM      1  O   UNL     1       2.940  12.197  18.003  0.00  0.00    +0.000 OA
ATOM      2  C   UNL     1       1.840  11.944  18.468  0.00  0.00    +0.000 C 
ATOM      3  N   UNL     1       1.233  10.723  18.353  0.00  0.00    +0.000 N 
ATOM      4  C   UNL     1      -0.089  10.690  18.861  0.00  0.00    +0.000 C 
ATOM      5  N   UNL     1      -0.229  11.942  19.599  0.00  0.00    +0.000 N 
ATOM      6  C   UNL     1       0.878  12.890  19.224  0.00  0.00    +0.000 C 
ATOM      7  C   UNL     1       1.672  13.494  20.381  0.00  0.00    +0.000 C 
ATOM      8  C   UNL     1       1.074  14.775  20.937  0.00  0.00    +0.000 C 
ATOM      9  N   UNL     1       0.708  15.742  19.879  0.00  0.00    +0.000 NA
ATOM     10  C   UNL     1      -0.129  15.203  18.790  0.00  0.00    +0.000 C 
ATOM     11  C   UNL     1       0.443  13.933  18.193  0.00  0.00    +0.000 C 
ATOM     12  H   UNL     1       1.675   9.976  17.838  0.00  0.00    +0.000 HD
ENDROOT
BRANCH   5  13
ATOM     13  C   UNL     1      -0.965  11.956  20.770  0.00  0.00    +0.000 A 
ATOM     14  C   UNL     1      -0.604  11.207  21.904  0.00  0.00    +0.000 A 
ATOM     15  C   UNL     1      -1.392  11.183  23.066  0.00  0.00    +0.000 A 
ATOM     16  C   UNL     1      -2.548  11.939  23.127  0.00  0.00    +0.000 A 
ATOM     17  F   UNL     1      -3.300  11.926  24.236  0.00  0.00    +0.000 F 
ATOM     18  C   UNL     1      -2.937  12.699  22.043  0.00  0.00    +0.000 A 
ATOM     19  C   UNL     1      -2.160  12.680  20.878  0.00  0.00    +0.000 A 
ENDBRANCH   5  13
BRANCH   9  20
ATOM     20  S   UNL     1       1.868  16.896  19.431  0.00  0.00    +0.000 S 
ATOM     21  O   UNL     1       1.410  17.535  18.216  0.00  0.00    +0.000 OA
ATOM     22  O   UNL     1       2.243  17.666  20.595  0.00  0.00    +0.000 OA
BRANCH  20  23
ATOM     23  C   UNL     1       3.346  16.033  18.954  0.00  0.00    +0.000 A 
ATOM     24  C   UNL     1       3.714  15.408  17.776  0.00  0.00    +0.000 A 
ATOM     25  C   UNL     1       5.039  14.885  17.834  0.00  0.00    +0.000 A 
ATOM     26  C   UNL     1       5.610  15.127  19.056  0.00  0.00    +0.000 A 
ATOM     27 CL   UNL     1       7.197  14.695  19.547  0.00  0.00    +0.000 Cl
ATOM     28  S   UNL     1       4.587  15.939  20.133  0.00  0.00    +0.000 S 
ENDBRANCH  20  23
ENDBRANCH   9  20
TORSDOF 3
ENDMDL
MODEL 5
REMARK VINA RESULT:      -7.1      4.849      7.026
REMARK  Name = 
REMARK  3 active torsions:
REMARK  status: ('A' for Active; 'I' for Inactive)
REMARK    1  A    between atoms: N_5  and  C_6
REMARK    2  A    between atoms: N_16  and  S_17
REMARK    3  A    between atoms: S_17  and  C_20
REMARK                            x       y       z     vdW  Elec       q    Type
REMARK                         _______ _______ _______ _____ _____    ______ ____
ROOT
ATOM      1  O   UNL     1       0.252   2.846  19.034  0.00  0.00    +0.000 OA
ATOM      2  C   UNL     1       1.426   2.777  18.708  0.00  0.00    +0.000 C 
ATOM      3  N   UNL     1       2.021   1.628  18.259  0.00  0.00    +0.000 N 
ATOM      4  C   UNL     1       3.417   1.749  18.054  0.00  0.00    +0.000 C 
ATOM      5  N   UNL     1       3.678   3.182  18.135  0.00  0.00    +0.000 N 
ATOM      6  C   UNL     1       2.502   3.888  18.756  0.00  0.00    +0.000 C 
ATOM      7  C   UNL     1       1.941   5.078  17.980  0.00  0.00    +0.000 C 
ATOM      8  C   UNL     1       2.613   6.400  18.308  0.00  0.00    +0.000 C 
ATOM      9  N   UNL     1       2.747   6.629  19.765  0.00  0.00    +0.000 NA
ATOM     10  C   UNL     1       3.362   5.524  20.526  0.00  0.00    +0.000 C 
ATOM     11  C   UNL     1       2.706   4.188  20.242  0.00  0.00    +0.000 C 
ATOM     12  H   UNL     1       1.499   0.766  18.209  0.00  0.00    +0.000 HD
ENDROOT
BRANCH   5  13
ATOM     13  C   UNL     1       4.630   3.743  17.303  0.00  0.00    +0.000 A 
ATOM     14  C   UNL     1       4.529   3.709  15.901  0.00  0.00    +0.000 A 
ATOM     15  C   UNL     1       5.532   4.229  15.067  0.00  0.00    +0.000 A 
ATOM     16  C   UNL     1       6.648   4.827  15.625  0.00  0.00    +0.000 A 
ATOM     17  F   UNL     1       7.604   5.331  14.834  0.00  0.00    +0.000 F 
ATOM     18  C   UNL     1       6.784   4.895  16.996  0.00  0.00    +0.000 A 
ATOM     19  C   UNL     1       5.793   4.335  17.813  0.00  0.00    +0.000 A 
ENDBRANCH   5  13
BRANCH   9  20
ATOM     20  S   UNL     1       1.501   7.474  20.546  0.00  0.00    +0.000 S 
ATOM     21  O   UNL     1       0.316   6.644  20.513  0.00  0.00    +0.000 OA
ATOM     22  O   UNL     1       2.006   8.022  21.785  0.00  0.00    +0.000 OA
BRANCH  20  23
ATOM     23  C   UNL     1       1.087   8.887  19.552  0.00  0.00    +0.000 A 
ATOM     24  C   UNL     1       1.587   9.351  18.349  0.00  0.00    +0.000 A 
ATOM     25  C   UNL     1       0.904  10.516  17.894  0.00  0.00    +0.000 A 
ATOM     26  C   UNL     1      -0.075  10.889  18.778  0.00  0.00    +0.000 A 
ATOM     27 CL   UNL     1      -1.152  12.215  18.613  0.00  0.00    +0.000 Cl
ATOM     28  S   UNL     1      -0.170   9.892  20.143  0.00  0.00    +0.000 S 
ENDBRANCH  20  23
ENDBRANCH   9  20
TORSDOF 3
ENDMDL
MODEL 6
REMARK VINA RESULT:      -7.0      9.187     12.276
REMARK  Name = 
REMARK  3 active torsions:
REMARK  status: ('A' for Active; 'I' for Inactive)
REMARK    1  A    between atoms: N_5  and  C_6
REMARK    2  A    between atoms: N_16  and  S_17
REMARK    3  A    between atoms: S_17  and  C_20
REMARK                            x       y       z     vdW  Elec       q    Type
REMARK                         _______ _______ _______ _____ _____    ______ ____
ROOT
ATOM      1  O   UNL     1      -1.954  10.033  18.439  0.00  0.00    +0.000 OA
ATOM      2  C   UNL     1      -0.811  10.434  18.594  0.00  0.00    +0.000 C 
ATOM      3  N   UNL     1       0.249  10.010  17.839  0.00  0.00    +0.000 N 
ATOM      4  C   UNL     1       1.499  10.516  18.272  0.00  0.00    +0.000 C 
ATOM      5  N   UNL     1       1.160  11.562  19.231  0.00  0.00    +0.000 N 
ATOM      6  C   UNL     1      -0.280  11.433  19.649  0.00  0.00    +0.000 C 
ATOM      7  C   UNL     1      -1.134  12.694  19.533  0.00  0.00    +0.000 C 
ATOM      8  C   UNL     1      -1.095  13.581  20.765  0.00  0.00    +0.000 C 
ATOM      9  N   UNL     1      -1.293  12.824  22.022  0.00  0.00    +0.000 NA
ATOM     10  C   UNL     1      -0.421  11.647  22.196  0.00  0.00    +0.000 C 
ATOM     11  C   UNL     1      -0.446  10.724  20.995  0.00  0.00    +0.000 C 
ATOM     12  H   UNL     1       0.123   9.307  17.125  0.00  0.00    +0.000 HD
ENDROOT
BRANCH   5  13
ATOM     13  C   UNL     1       1.933  12.708  19.281  0.00  0.00    +0.000 A 
ATOM     14  C   UNL     1       2.422  13.244  20.486  0.00  0.00    +0.000 A 
ATOM     15  C   UNL     1       3.154  14.441  20.528  0.00  0.00    +0.000 A 
ATOM     16  C   UNL     1       3.441  15.112  19.354  0.00  0.00    +0.000 A 
ATOM     17  F   UNL     1       4.146  16.251  19.388  0.00  0.00    +0.000 F 
ATOM     18  C   UNL     1       2.993  14.618  18.146  0.00  0.00    +0.000 A 
ATOM     19  C   UNL     1       2.230  13.444  18.127  0.00  0.00    +0.000 A 
ENDBRANCH   5  13
BRANCH   9  20
ATOM     20  S   UNL     1      -2.876  12.678  22.612  0.00  0.00    +0.000 S 
ATOM     21  O   UNL     1      -3.780  12.805  21.489  0.00  0.00    +0.000 OA
ATOM     22  O   UNL     1      -2.943  11.549  23.512  0.00  0.00    +0.000 OA
BRANCH  20  23
ATOM     23  C   UNL     1      -3.219  14.096  23.627  0.00  0.00    +0.000 A 
ATOM     24  C   UNL     1      -2.493  14.714  24.628  0.00  0.00    +0.000 A 
ATOM     25  C   UNL     1      -3.152  15.872  25.136  0.00  0.00    +0.000 A 
ATOM     26  C   UNL     1      -4.352  16.071  24.505  0.00  0.00    +0.000 A 
ATOM     27 CL   UNL     1      -5.455  17.355  24.786  0.00  0.00    +0.000 Cl
ATOM     28  S   UNL     1      -4.711  14.892  23.345  0.00  0.00    +0.000 S 
ENDBRANCH  20  23
ENDBRANCH   9  20
TORSDOF 3
ENDMDL
MODEL 7
REMARK VINA RESULT:      -7.0      9.312     10.279
REMARK  Name = 
REMARK  3 active torsions:
REMARK  status: ('A' for Active; 'I' for Inactive)
REMARK    1  A    between atoms: N_5  and  C_6
REMARK    2  A    between atoms: N_16  and  S_17
REMARK    3  A    between atoms: S_17  and  C_20
REMARK                            x       y       z     vdW  Elec       q    Type
REMARK                         _______ _______ _______ _____ _____    ______ ____
ROOT
ATOM      1  O   UNL     1      -0.251  14.530  23.004  0.00  0.00    +0.000 OA
ATOM      2  C   UNL     1      -0.451  13.506  22.370  0.00  0.00    +0.000 C 
ATOM      3  N   UNL     1      -1.078  12.405  22.888  0.00  0.00    +0.000 N 
ATOM      4  C   UNL     1      -1.094  11.291  22.014  0.00  0.00    +0.000 C 
ATOM      5  N   UNL     1      -0.663  11.827  20.727  0.00  0.00    +0.000 N 
ATOM      6  C   UNL     1      -0.036  13.182  20.916  0.00  0.00    +0.000 C 
ATOM      7  C   UNL     1      -0.580  14.309  20.040  0.00  0.00    +0.000 C 
ATOM      8  C   UNL     1       0.110  14.431  18.692  0.00  0.00    +0.000 C 
ATOM      9  N   UNL     1       1.586  14.402  18.800  0.00  0.00    +0.000 NA
ATOM     10  C   UNL     1       2.142  13.275  19.573  0.00  0.00    +0.000 C 
ATOM     11  C   UNL     1       1.494  13.130  20.935  0.00  0.00    +0.000 C 
ATOM     12  H   UNL     1      -1.379  12.391  23.851  0.00  0.00    +0.000 HD
ENDROOT
BRANCH   5  13
ATOM     13  C   UNL     1      -1.237  11.340  19.567  0.00  0.00    +0.000 A 
ATOM     14  C   UNL     1      -0.584  10.424  18.722  0.00  0.00    +0.000 A 
ATOM     15  C   UNL     1      -1.152   9.984  17.516  0.00  0.00    +0.000 A 
ATOM     16  C   UNL     1      -2.408  10.429  17.146  0.00  0.00    +0.000 A 
ATOM     17  F   UNL     1      -2.958  10.005  16.000  0.00  0.00    +0.000 F 
ATOM     18  C   UNL     1      -3.092  11.317  17.948  0.00  0.00    +0.000 A 
ATOM     19  C   UNL     1      -2.493  11.777  19.128  0.00  0.00    +0.000 A 
ENDBRANCH   5  13
BRANCH   9  20
ATOM     20  S   UNL     1       2.394  15.885  18.951  0.00  0.00    +0.000 S 
ATOM     21  O   UNL     1       1.948  16.743  17.874  0.00  0.00    +0.000 OA
ATOM     22  O   UNL     1       2.341  16.315  20.330  0.00  0.00    +0.000 OA
BRANCH  20  23
ATOM     23  C   UNL     1       4.117  15.610  18.621  0.00  0.00    +0.000 A 
ATOM     24  C   UNL     1       4.775  14.646  17.878  0.00  0.00    +0.000 A 
ATOM     25  C   UNL     1       6.185  14.853  17.853  0.00  0.00    +0.000 A 
ATOM     26  C   UNL     1       6.533  15.956  18.588  0.00  0.00    +0.000 A 
ATOM     27 CL   UNL     1       8.116  16.583  18.806  0.00  0.00    +0.000 Cl
ATOM     28  S   UNL     1       5.215  16.726  19.320  0.00  0.00    +0.000 S 
ENDBRANCH  20  23
ENDBRANCH   9  20
TORSDOF 3
ENDMDL
MODEL 8
REMARK VINA RESULT:      -7.0      9.112     12.234
REMARK  Name = 
REMARK  3 active torsions:
REMARK  status: ('A' for Active; 'I' for Inactive)
REMARK    1  A    between atoms: N_5  and  C_6
REMARK    2  A    between atoms: N_16  and  S_17
REMARK    3  A    between atoms: S_17  and  C_20
REMARK                            x       y       z     vdW  Elec       q    Type
REMARK                         _______ _______ _______ _____ _____    ______ ____
ROOT
ATOM      1  O   UNL     1      -2.009  10.005  18.440  0.00  0.00    +0.000 OA
ATOM      2  C   UNL     1      -0.871  10.410  18.616  0.00  0.00    +0.000 C 
ATOM      3  N   UNL     1       0.208   9.969  17.898  0.00  0.00    +0.000 N 
ATOM      4  C   UNL     1       1.447  10.484  18.352  0.00  0.00    +0.000 C 
ATOM      5  N   UNL     1       1.084  11.551  19.279  0.00  0.00    +0.000 N 
ATOM      6  C   UNL     1      -0.367  11.431  19.663  0.00  0.00    +0.000 C 
ATOM      7  C   UNL     1      -1.217  12.689  19.497  0.00  0.00    +0.000 C 
ATOM      8  C   UNL     1      -1.209  13.603  20.711  0.00  0.00    +0.000 C 
ATOM      9  N   UNL     1      -1.439  12.874  21.978  0.00  0.00    +0.000 NA
ATOM     10  C   UNL     1      -0.572  11.701  22.200  0.00  0.00    +0.000 C 
ATOM     11  C   UNL     1      -0.567  10.751  21.019  0.00  0.00    +0.000 C 
ATOM     12  H   UNL     1       0.100   9.251  17.197  0.00  0.00    +0.000 HD
ENDROOT
BRANCH   5  13
ATOM     13  C   UNL     1       1.855  12.698  19.324  0.00  0.00    +0.000 A 
ATOM     14  C   UNL     1       2.244  13.399  18.169  0.00  0.00    +0.000 A 
ATOM     15  C   UNL     1       3.078  14.527  18.224  0.00  0.00    +0.000 A 
ATOM     16  C   UNL     1       3.515  14.998  19.449  0.00  0.00    +0.000 A 
ATOM     17  F   UNL     1       4.305  16.079  19.508  0.00  0.00    +0.000 F 
ATOM     18  C   UNL     1       3.149  14.351  20.611  0.00  0.00    +0.000 A 
ATOM     19  C   UNL     1       2.350  13.203  20.534  0.00  0.00    +0.000 A 
ENDBRANCH   5  13
BRANCH   9  20
ATOM     20  S   UNL     1      -3.037  12.740  22.530  0.00  0.00    +0.000 S 
ATOM     21  O   UNL     1      -3.904  12.714  21.372  0.00  0.00    +0.000 OA
ATOM     22  O   UNL     1      -3.102  11.714  23.547  0.00  0.00    +0.000 OA
BRANCH  20  23
ATOM     23  C   UNL     1      -3.457  14.248  23.371  0.00  0.00    +0.000 A 
ATOM     24  C   UNL     1      -4.671  14.866  23.613  0.00  0.00    +0.000 A 
ATOM     25  C   UNL     1      -4.526  16.056  24.385  0.00  0.00    +0.000 A 
ATOM     26  C   UNL     1      -3.209  16.291  24.683  0.00  0.00    +0.000 A 
ATOM     27 CL   UNL     1      -2.588  17.594  25.611  0.00  0.00    +0.000 Cl
ATOM     28  S   UNL     1      -2.152  15.138  24.038  0.00  0.00    +0.000 S 
ENDBRANCH  20  23
ENDBRANCH   9  20
TORSDOF 3
ENDMDL
MODEL 9
REMARK VINA RESULT:      -6.9      8.978     10.220
REMARK  Name = 
REMARK  3 active torsions:
REMARK  status: ('A' for Active; 'I' for Inactive)
REMARK    1  A    between atoms: N_5  and  C_6
REMARK    2  A    between atoms: N_16  and  S_17
REMARK    3  A    between atoms: S_17  and  C_20
REMARK                            x       y       z     vdW  Elec       q    Type
REMARK                         _______ _______ _______ _____ _____    ______ ____
ROOT
ATOM      1  O   UNL     1      -0.264  14.768  22.951  0.00  0.00    +0.000 OA
ATOM      2  C   UNL     1      -0.459  13.723  22.351  0.00  0.00    +0.000 C 
ATOM      3  N   UNL     1      -1.116  12.651  22.892  0.00  0.00    +0.000 N 
ATOM      4  C   UNL     1      -1.121  11.504  22.061  0.00  0.00    +0.000 C 
ATOM      5  N   UNL     1      -0.646  11.985  20.768  0.00  0.00    +0.000 N 
ATOM      6  C   UNL     1      -0.006  13.338  20.923  0.00  0.00    +0.000 C 
ATOM      7  C   UNL     1      -0.510  14.437  19.989  0.00  0.00    +0.000 C 
ATOM      8  C   UNL     1       0.220  14.498  18.658  0.00  0.00    +0.000 C 
ATOM      9  N   UNL     1       1.692  14.455  18.811  0.00  0.00    +0.000 NA
ATOM     10  C   UNL     1       2.211  13.353  19.643  0.00  0.00    +0.000 C 
ATOM     11  C   UNL     1       1.521  13.268  20.990  0.00  0.00    +0.000 C 
ATOM     12  H   UNL     1      -1.445  12.677  23.846  0.00  0.00    +0.000 HD
ENDROOT
BRANCH   5  13
ATOM     13  C   UNL     1      -1.192  11.460  19.611  0.00  0.00    +0.000 A 
ATOM     14  C   UNL     1      -2.482  11.790  19.160  0.00  0.00    +0.000 A 
ATOM     15  C   UNL     1      -3.048  11.203  18.016  0.00  0.00    +0.000 A 
ATOM     16  C   UNL     1      -2.314  10.293  17.278  0.00  0.00    +0.000 A 
ATOM     17  F   UNL     1      -2.845   9.736  16.181  0.00  0.00    +0.000 F 
ATOM     18  C   UNL     1      -1.038   9.948  17.674  0.00  0.00    +0.000 A 
ATOM     19  C   UNL     1      -0.506  10.512  18.839  0.00  0.00    +0.000 A 
ENDBRANCH   5  13
BRANCH   9  20
ATOM     20  S   UNL     1       2.515  15.934  18.929  0.00  0.00    +0.000 S 
ATOM     21  O   UNL     1       2.494  16.556  17.623  0.00  0.00    +0.000 OA
ATOM     22  O   UNL     1       2.061  16.635  20.108  0.00  0.00    +0.000 OA
BRANCH  20  23
ATOM     23  C   UNL     1       4.231  15.586  19.233  0.00  0.00    +0.000 A 
ATOM     24  C   UNL     1       5.013  15.708  20.367  0.00  0.00    +0.000 A 
ATOM     25  C   UNL     1       6.347  15.255  20.153  0.00  0.00    +0.000 A 
ATOM     26  C   UNL     1       6.519  14.821  18.865  0.00  0.00    +0.000 A 
ATOM     27 CL   UNL     1       7.956  14.172  18.186  0.00  0.00    +0.000 Cl
ATOM     28  S   UNL     1       5.130  14.971  17.909  0.00  0.00    +0.000 S 
ENDBRANCH  20  23
ENDBRANCH   9  20
TORSDOF 3
ENDMDL
